MODEL 1
REMARK VINA RESULT:      -8.6      0.000      0.000
REMARK  Name = 
REMARK  5 active torsions:
REMARK  status: ('A' for Active; 'I' for Inactive)
REMARK    1  A    between atoms: N_5  and  S_7
REMARK    2  A    between atoms: S_7  and  C_10
REMARK    3  A    between atoms: C_15  and  C_16
REMARK    4  A    between atoms: C_16  and  C_19
REMARK    5  A    between atoms: C_29  and  C_31
REMARK                            x       y       z     vdW  Elec       q    Type
REMARK                         _______ _______ _______ _____ _____    ______ ____
ROOT
ATOM      1  C   UNL     1       9.341   0.814  22.556  0.00  0.00    +0.000 A 
ATOM      2  C   UNL     1       7.963   0.985  22.007  0.00  0.00    +0.000 A 
ATOM      3  C   UNL     1       7.115   0.013  21.332  0.00  0.00    +0.000 A 
ATOM      4  C   UNL     1       7.689  -1.437  21.627  0.00  0.00    +0.000 A 
ATOM      5  C   UNL     1       9.148  -1.705  21.703  0.00  0.00    +0.000 A 
ATOM      6  C   UNL     1       9.964  -0.459  22.209  0.00  0.00    +0.000 A 
ENDROOT
BRANCH   1   7
ATOM      7  S   UNL     1       9.054   1.063  24.308  0.00  0.00    +0.000 S 
ATOM      8  O   UNL     1       7.834   0.440  24.643  0.00  0.00    +0.000 OA
ATOM      9  O   UNL     1      10.220   0.701  25.056  0.00  0.00    +0.000 OA
BRANCH   7  13
ATOM     10  C   UNL     1      11.755   3.926  23.310  0.00  0.00    +0.000 A 
ATOM     11  N   UNL     1      10.782   2.863  23.625  0.00  0.00    +0.000 NA
ATOM     12  C   UNL     1       9.614   3.359  23.604  0.00  0.00    +0.000 A 
ATOM     13  N   UNL     1       8.877   2.700  24.490  0.00  0.00    +0.000 N 
ATOM     14  H   UNL     1       9.158   2.924  25.393  0.00  0.00    +0.000 HD
ATOM     15  C   UNL     1       9.096   4.686  23.755  0.00  0.00    +0.000 A 
ATOM     16  C   UNL     1       9.906   5.857  23.735  0.00  0.00    +0.000 A 
ATOM     17  C   UNL     1      11.289   5.212  23.716  0.00  0.00    +0.000 A 
ENDBRANCH   7  13
ENDBRANCH   1   7
BRANCH   4  18
ATOM     18  C   UNL     1       6.624  -2.108  22.553  0.00  0.00    +0.000 C 
BRANCH  18  19
ATOM     19  C   UNL     1       5.776  -3.007  21.685  0.00  0.00    +0.000 C 
ATOM     20  O   UNL     1       5.740  -2.794  20.469  0.00  0.00    +0.000 OA
ATOM     21  N   UNL     1       5.467  -4.213  22.136  0.00  0.00    +0.000 N 
ATOM     22  C   UNL     1       5.889  -5.427  21.440  0.00  0.00    +0.000 C 
ATOM     23  C   UNL     1       7.061  -6.045  22.175  0.00  0.00    +0.000 C 
ATOM     24  O   UNL     1       7.310  -5.429  23.353  0.00  0.00    +0.000 OA
ATOM     25  C   UNL     1       6.185  -5.238  24.157  0.00  0.00    +0.000 C 
ATOM     26  C   UNL     1       5.178  -4.412  23.596  0.00  0.00    +0.000 C 
BRANCH  25  27
ATOM     27  C   UNL     1       6.690  -4.963  25.562  0.00  0.00    +0.000 A 
ATOM     28  C   UNL     1       6.371  -3.547  25.907  0.00  0.00    +0.000 A 
ATOM     29  C   UNL     1       7.348  -2.494  26.209  0.00  0.00    +0.000 A 
ATOM     30  C   UNL     1       8.777  -2.991  26.231  0.00  0.00    +0.000 A 
ATOM     31  F   UNL     1       9.353  -2.261  25.141  0.00  0.00    +0.000 F 
ATOM     32  C   UNL     1       9.196  -4.396  26.214  0.00  0.00    +0.000 A 
ATOM     33  C   UNL     1       8.018  -5.409  25.993  0.00  0.00    +0.000 A 
ENDBRANCH  25  27
ENDBRANCH  18  19
ENDBRANCH   4  18
TORSDOF 5
ENDMDL
MODEL 2
REMARK VINA RESULT:      -8.5      2.122      3.053
REMARK  Name = 
REMARK  5 active torsions:
REMARK  status: ('A' for Active; 'I' for Inactive)
REMARK    1  A    between atoms: N_5  and  S_7
REMARK    2  A    between atoms: S_7  and  C_10
REMARK    3  A    between atoms: C_15  and  C_16
REMARK    4  A    between atoms: C_16  and  C_19
REMARK    5  A    between atoms: C_29  and  C_31
REMARK                            x       y       z     vdW  Elec       q    Type
REMARK                         _______ _______ _______ _____ _____    ______ ____
ROOT
ATOM      1  C   UNL     1      10.171   0.401  22.806  0.00  0.00    +0.000 A 
ATOM      2  C   UNL     1       9.170   0.980  21.862  0.00  0.00    +0.000 A 
ATOM      3  C   UNL     1       8.238   0.297  20.977  0.00  0.00    +0.000 A 
ATOM      4  C   UNL     1       8.112  -1.210  21.455  0.00  0.00    +0.000 A 
ATOM      5  C   UNL     1       9.278  -1.971  21.975  0.00  0.00    +0.000 A 
ATOM      6  C   UNL     1      10.333  -1.045  22.684  0.00  0.00    +0.000 A 
ENDROOT
BRANCH   1   7
ATOM      7  S   UNL     1       9.531   0.960  24.384  0.00  0.00    +0.000 S 
ATOM      8  O   UNL     1      10.189   0.238  25.402  0.00  0.00    +0.000 OA
ATOM      9  O   UNL     1       9.558   2.390  24.450  0.00  0.00    +0.000 OA
BRANCH   7  13
ATOM     10  C   UNL     1       7.202   0.231  27.629  0.00  0.00    +0.000 A 
ATOM     11  N   UNL     1       8.065   0.540  26.474  0.00  0.00    +0.000 NA
ATOM     12  C   UNL     1       7.334   0.906  25.504  0.00  0.00    +0.000 A 
ATOM     13  N   UNL     1       7.932   0.527  24.381  0.00  0.00    +0.000 N 
ATOM     14  H   UNL     1       7.893  -0.439  24.288  0.00  0.00    +0.000 HD
ATOM     15  C   UNL     1       5.959   0.696  25.163  0.00  0.00    +0.000 A 
ATOM     16  C   UNL     1       4.995   0.162  26.063  0.00  0.00    +0.000 A 
ATOM     17  C   UNL     1       5.910  -0.220  27.223  0.00  0.00    +0.000 A 
ENDBRANCH   7  13
ENDBRANCH   1   7
BRANCH   4  18
ATOM     18  C   UNL     1       6.662  -1.330  22.026  0.00  0.00    +0.000 C 
BRANCH  18  19
ATOM     19  C   UNL     1       5.912  -2.302  21.146  0.00  0.00    +0.000 C 
ATOM     20  O   UNL     1       6.009  -2.188  19.920  0.00  0.00    +0.000 OA
ATOM     21  N   UNL     1       5.553  -3.470  21.657  0.00  0.00    +0.000 N 
ATOM     22  C   UNL     1       6.047  -4.733  21.110  0.00  0.00    +0.000 C 
ATOM     23  C   UNL     1       7.131  -5.282  22.016  0.00  0.00    +0.000 C 
ATOM     24  O   UNL     1       7.251  -4.571  23.160  0.00  0.00    +0.000 OA
ATOM     25  C   UNL     1       6.046  -4.324  23.819  0.00  0.00    +0.000 C 
ATOM     26  C   UNL     1       5.107  -3.553  23.088  0.00  0.00    +0.000 C 
BRANCH  25  27
ATOM     27  C   UNL     1       6.395  -3.934  25.245  0.00  0.00    +0.000 A 
ATOM     28  C   UNL     1       7.469  -2.898  25.198  0.00  0.00    +0.000 A 
ATOM     29  C   UNL     1       8.821  -3.035  25.751  0.00  0.00    +0.000 A 
ATOM     30  C   UNL     1       9.038  -4.339  26.487  0.00  0.00    +0.000 A 
ATOM     31  F   UNL     1      10.045  -4.963  25.681  0.00  0.00    +0.000 F 
ATOM     32  C   UNL     1       7.990  -5.294  26.866  0.00  0.00    +0.000 A 
ATOM     33  C   UNL     1       6.573  -4.947  26.287  0.00  0.00    +0.000 A 
ENDBRANCH  25  27
ENDBRANCH  18  19
ENDBRANCH   4  18
TORSDOF 5
ENDMDL
MODEL 3
REMARK VINA RESULT:      -8.4      1.907      2.539
REMARK  Name = 
REMARK  5 active torsions:
REMARK  status: ('A' for Active; 'I' for Inactive)
REMARK    1  A    between atoms: N_5  and  S_7
REMARK    2  A    between atoms: S_7  and  C_10
REMARK    3  A    between atoms: C_15  and  C_16
REMARK    4  A    between atoms: C_16  and  C_19
REMARK    5  A    between atoms: C_29  and  C_31
REMARK                            x       y       z     vdW  Elec       q    Type
REMARK                         _______ _______ _______ _____ _____    ______ ____
ROOT
ATOM      1  C   UNL     1      10.080   0.559  22.335  0.00  0.00    +0.000 A 
ATOM      2  C   UNL     1       8.983   0.723  21.336  0.00  0.00    +0.000 A 
ATOM      3  C   UNL     1       8.095  -0.283  20.771  0.00  0.00    +0.000 A 
ATOM      4  C   UNL     1       8.156  -1.573  21.691  0.00  0.00    +0.000 A 
ATOM      5  C   UNL     1       9.420  -2.025  22.330  0.00  0.00    +0.000 A 
ATOM      6  C   UNL     1      10.395  -0.833  22.645  0.00  0.00    +0.000 A 
ENDROOT
BRANCH   1   7
ATOM      7  S   UNL     1       9.448   1.517  23.712  0.00  0.00    +0.000 S 
ATOM      8  O   UNL     1       9.824   0.865  24.905  0.00  0.00    +0.000 OA
ATOM      9  O   UNL     1       9.804   2.896  23.559  0.00  0.00    +0.000 OA
BRANCH   7  13
ATOM     10  C   UNL     1       6.714   2.868  26.393  0.00  0.00    +0.000 A 
ATOM     11  N   UNL     1       7.734   2.423  25.424  0.00  0.00    +0.000 NA
ATOM     12  C   UNL     1       7.219   2.417  24.264  0.00  0.00    +0.000 A 
ATOM     13  N   UNL     1       7.800   1.446  23.569  0.00  0.00    +0.000 N 
ATOM     14  H   UNL     1       7.517   0.578  23.903  0.00  0.00    +0.000 HD
ATOM     15  C   UNL     1       5.876   2.335  23.774  0.00  0.00    +0.000 A 
ATOM     16  C   UNL     1       4.724   2.484  24.598  0.00  0.00    +0.000 A 
ATOM     17  C   UNL     1       5.394   2.532  25.969  0.00  0.00    +0.000 A 
ENDBRANCH   7  13
ENDBRANCH   1   7
BRANCH   4  18
ATOM     18  C   UNL     1       6.753  -1.644  22.376  0.00  0.00    +0.000 C 
BRANCH  18  19
ATOM     19  C   UNL     1       5.919  -2.628  21.591  0.00  0.00    +0.000 C 
ATOM     20  O   UNL     1       5.788  -2.456  20.375  0.00  0.00    +0.000 OA
ATOM     21  N   UNL     1       5.730  -3.839  22.093  0.00  0.00    +0.000 N 
ATOM     22  C   UNL     1       6.195  -5.041  21.402  0.00  0.00    +0.000 C 
ATOM     23  C   UNL     1       7.455  -5.550  22.072  0.00  0.00    +0.000 C 
ATOM     24  O   UNL     1       7.734  -4.880  23.213  0.00  0.00    +0.000 OA
ATOM     25  C   UNL     1       6.653  -4.747  24.087  0.00  0.00    +0.000 C 
ATOM     26  C   UNL     1       5.553  -4.013  23.574  0.00  0.00    +0.000 C 
BRANCH  25  27
ATOM     27  C   UNL     1       7.228  -4.393  25.447  0.00  0.00    +0.000 A 
ATOM     28  C   UNL     1       6.130  -3.835  26.289  0.00  0.00    +0.000 A 
ATOM     29  C   UNL     1       6.077  -2.478  26.847  0.00  0.00    +0.000 A 
ATOM     30  C   UNL     1       7.321  -1.665  26.562  0.00  0.00    +0.000 A 
ATOM     31  F   UNL     1       6.797  -0.612  25.745  0.00  0.00    +0.000 F 
ATOM     32  C   UNL     1       8.580  -2.187  26.020  0.00  0.00    +0.000 A 
ATOM     33  C   UNL     1       8.507  -3.689  25.571  0.00  0.00    +0.000 A 
ENDBRANCH  25  27
ENDBRANCH  18  19
ENDBRANCH   4  18
TORSDOF 5
ENDMDL
MODEL 4
REMARK VINA RESULT:      -8.3      3.111      4.998
REMARK  Name = 
REMARK  5 active torsions:
REMARK  status: ('A' for Active; 'I' for Inactive)
REMARK    1  A    between atoms: N_5  and  S_7
REMARK    2  A    between atoms: S_7  and  C_10
REMARK    3  A    between atoms: C_15  and  C_16
REMARK    4  A    between atoms: C_16  and  C_19
REMARK    5  A    between atoms: C_29  and  C_31
REMARK                            x       y       z     vdW  Elec       q    Type
REMARK                         _______ _______ _______ _____ _____    ______ ____
ROOT
ATOM      1  C   UNL     1      10.080  -0.223  23.073  0.00  0.00    +0.000 A 
ATOM      2  C   UNL     1       9.400  -1.538  22.875  0.00  0.00    +0.000 A 
ATOM      3  C   UNL     1       8.770  -2.405  23.860  0.00  0.00    +0.000 A 
ATOM      4  C   UNL     1       8.512  -1.557  25.176  0.00  0.00    +0.000 A 
ATOM      5  C   UNL     1       9.475  -0.530  25.652  0.00  0.00    +0.000 A 
ATOM      6  C   UNL     1      10.273   0.139  24.474  0.00  0.00    +0.000 A 
ENDROOT
BRANCH   1   7
ATOM      7  S   UNL     1       9.003   0.873  22.150  0.00  0.00    +0.000 S 
ATOM      8  O   UNL     1       7.942   1.258  22.997  0.00  0.00    +0.000 OA
ATOM      9  O   UNL     1       9.770   1.906  21.522  0.00  0.00    +0.000 OA
BRANCH   7  13
ATOM     10  C   UNL     1       5.645   1.611  19.988  0.00  0.00    +0.000 A 
ATOM     11  N   UNL     1       6.880   1.394  20.766  0.00  0.00    +0.000 NA
ATOM     12  C   UNL     1       7.675   0.680  20.080  0.00  0.00    +0.000 A 
ATOM     13  N   UNL     1       8.388  -0.056  20.924  0.00  0.00    +0.000 N 
ATOM     14  H   UNL     1       7.829  -0.739  21.330  0.00  0.00    +0.000 HD
ATOM     15  C   UNL     1       7.499  -0.241  18.998  0.00  0.00    +0.000 A 
ATOM     16  C   UNL     1       6.287  -0.375  18.264  0.00  0.00    +0.000 A 
ATOM     17  C   UNL     1       5.381   0.529  19.095  0.00  0.00    +0.000 A 
ENDBRANCH   7  13
ENDBRANCH   1   7
BRANCH   4  18
ATOM     18  C   UNL     1       6.959  -1.407  25.258  0.00  0.00    +0.000 C 
BRANCH  18  19
ATOM     19  C   UNL     1       6.528  -1.923  26.611  0.00  0.00    +0.000 C 
ATOM     20  O   UNL     1       6.684  -1.197  27.598  0.00  0.00    +0.000 OA
ATOM     21  N   UNL     1       5.626  -2.892  26.661  0.00  0.00    +0.000 N 
ATOM     22  C   UNL     1       4.330  -2.704  27.309  0.00  0.00    +0.000 C 
ATOM     23  C   UNL     1       3.264  -2.505  26.250  0.00  0.00    +0.000 C 
ATOM     24  O   UNL     1       3.738  -2.712  25.000  0.00  0.00    +0.000 OA
ATOM     25  C   UNL     1       4.466  -3.893  24.845  0.00  0.00    +0.000 C 
ATOM     26  C   UNL     1       5.645  -3.981  25.628  0.00  0.00    +0.000 C 
BRANCH  25  27
ATOM     27  C   UNL     1       4.528  -4.179  23.354  0.00  0.00    +0.000 A 
ATOM     28  C   UNL     1       4.688  -5.650  23.165  0.00  0.00    +0.000 A 
ATOM     29  C   UNL     1       5.831  -6.316  22.529  0.00  0.00    +0.000 A 
ATOM     30  C   UNL     1       6.854  -5.349  21.973  0.00  0.00    +0.000 A 
ATOM     31  F   UNL     1       8.002  -5.650  22.776  0.00  0.00    +0.000 F 
ATOM     32  C   UNL     1       6.672  -3.902  21.822  0.00  0.00    +0.000 A 
ATOM     33  C   UNL     1       5.344  -3.357  22.458  0.00  0.00    +0.000 A 
ENDBRANCH  25  27
ENDBRANCH  18  19
ENDBRANCH   4  18
TORSDOF 5
ENDMDL
MODEL 5
REMARK VINA RESULT:      -8.3      2.909      7.237
REMARK  Name = 
REMARK  5 active torsions:
REMARK  status: ('A' for Active; 'I' for Inactive)
REMARK    1  A    between atoms: N_5  and  S_7
REMARK    2  A    between atoms: S_7  and  C_10
REMARK    3  A    between atoms: C_15  and  C_16
REMARK    4  A    between atoms: C_16  and  C_19
REMARK    5  A    between atoms: C_29  and  C_31
REMARK                            x       y       z     vdW  Elec       q    Type
REMARK                         _______ _______ _______ _____ _____    ______ ____
ROOT
ATOM      1  C   UNL     1       8.791  -4.093  25.798  0.00  0.00    +0.000 A 
ATOM      2  C   UNL     1       8.193  -2.902  26.473  0.00  0.00    +0.000 A 
ATOM      3  C   UNL     1       8.230  -1.504  26.072  0.00  0.00    +0.000 A 
ATOM      4  C   UNL     1       8.646  -1.435  24.543  0.00  0.00    +0.000 A 
ATOM      5  C   UNL     1       9.648  -2.364  23.957  0.00  0.00    +0.000 A 
ATOM      6  C   UNL     1       9.665  -3.762  24.677  0.00  0.00    +0.000 A 
ENDROOT
BRANCH   1   7
ATOM      7  S   UNL     1       7.322  -5.024  25.362  0.00  0.00    +0.000 S 
ATOM      8  O   UNL     1       7.472  -5.479  24.035  0.00  0.00    +0.000 OA
ATOM      9  O   UNL     1       7.031  -5.993  26.375  0.00  0.00    +0.000 OA
BRANCH   7  13
ATOM     10  C   UNL     1       3.437  -5.695  24.387  0.00  0.00    +0.000 A 
ATOM     11  N   UNL     1       4.848  -5.496  24.770  0.00  0.00    +0.000 NA
ATOM     12  C   UNL     1       4.916  -4.529  25.589  0.00  0.00    +0.000 A 
ATOM     13  N   UNL     1       6.084  -3.924  25.405  0.00  0.00    +0.000 N 
ATOM     14  H   UNL     1       6.087  -3.450  24.557  0.00  0.00    +0.000 HD
ATOM     15  C   UNL     1       4.072  -3.407  25.874  0.00  0.00    +0.000 A 
ATOM     16  C   UNL     1       2.741  -3.277  25.386  0.00  0.00    +0.000 A 
ATOM     17  C   UNL     1       2.692  -4.479  24.447  0.00  0.00    +0.000 A 
ENDBRANCH   7  13
ENDBRANCH   1   7
BRANCH   4  18
ATOM     18  C   UNL     1       7.360  -0.950  23.799  0.00  0.00    +0.000 C 
BRANCH  18  19
ATOM     19  C   UNL     1       7.250  -1.749  22.522  0.00  0.00    +0.000 C 
ATOM     20  O   UNL     1       6.494  -2.725  22.498  0.00  0.00    +0.000 OA
ATOM     21  N   UNL     1       7.586  -1.167  21.381  0.00  0.00    +0.000 N 
ATOM     22  C   UNL     1       6.621  -0.980  20.299  0.00  0.00    +0.000 C 
ATOM     23  C   UNL     1       6.166   0.466  20.277  0.00  0.00    +0.000 C 
ATOM     24  O   UNL     1       6.873   1.238  21.132  0.00  0.00    +0.000 OA
ATOM     25  C   UNL     1       8.258   1.088  21.041  0.00  0.00    +0.000 C 
ATOM     26  C   UNL     1       8.743  -0.210  21.344  0.00  0.00    +0.000 C 
BRANCH  25  27
ATOM     27  C   UNL     1       8.878   2.300  21.714  0.00  0.00    +0.000 A 
ATOM     28  C   UNL     1      10.032   1.839  22.540  0.00  0.00    +0.000 A 
ATOM     29  C   UNL     1      10.152   1.966  23.997  0.00  0.00    +0.000 A 
ATOM     30  C   UNL     1       8.998   2.713  24.630  0.00  0.00    +0.000 A 
ATOM     31  F   UNL     1       8.413   1.697  25.454  0.00  0.00    +0.000 F 
ATOM     32  C   UNL     1       7.971   3.473  23.910  0.00  0.00    +0.000 A 
ATOM     33  C   UNL     1       8.045   3.324  22.349  0.00  0.00    +0.000 A 
ENDBRANCH  25  27
ENDBRANCH  18  19
ENDBRANCH   4  18
TORSDOF 5
ENDMDL
MODEL 6
REMARK VINA RESULT:      -8.2      2.858      6.127
REMARK  Name = 
REMARK  5 active torsions:
REMARK  status: ('A' for Active; 'I' for Inactive)
REMARK    1  A    between atoms: N_5  and  S_7
REMARK    2  A    between atoms: S_7  and  C_10
REMARK    3  A    between atoms: C_15  and  C_16
REMARK    4  A    between atoms: C_16  and  C_19
REMARK    5  A    between atoms: C_29  and  C_31
REMARK                            x       y       z     vdW  Elec       q    Type
REMARK                         _______ _______ _______ _____ _____    ______ ____
ROOT
ATOM      1  C   UNL     1       6.582  -5.391  24.392  0.00  0.00    +0.000 A 
ATOM      2  C   UNL     1       7.398  -5.262  23.149  0.00  0.00    +0.000 A 
ATOM      3  C   UNL     1       7.079  -4.573  21.907  0.00  0.00    +0.000 A 
ATOM      4  C   UNL     1       5.877  -3.576  22.185  0.00  0.00    +0.000 A 
ATOM      5  C   UNL     1       4.764  -3.923  23.106  0.00  0.00    +0.000 A 
ATOM      6  C   UNL     1       5.216  -4.893  24.259  0.00  0.00    +0.000 A 
ENDROOT
BRANCH   1   7
ATOM      7  S   UNL     1       7.598  -4.504  25.574  0.00  0.00    +0.000 S 
ATOM      8  O   UNL     1       7.803  -5.343  26.689  0.00  0.00    +0.000 OA
ATOM      9  O   UNL     1       8.750  -3.958  24.923  0.00  0.00    +0.000 OA
BRANCH   7  13
ATOM     10  C   UNL     1       8.955  -0.889  26.830  0.00  0.00    +0.000 A 
ATOM     11  N   UNL     1       8.496  -2.200  26.333  0.00  0.00    +0.000 NA
ATOM     12  C   UNL     1       7.328  -2.069  25.854  0.00  0.00    +0.000 A 
ATOM     13  N   UNL     1       6.679  -3.210  26.049  0.00  0.00    +0.000 N 
ATOM     14  H   UNL     1       6.481  -3.327  26.994  0.00  0.00    +0.000 HD
ATOM     15  C   UNL     1       6.273  -1.120  26.054  0.00  0.00    +0.000 A 
ATOM     16  C   UNL     1       6.443   0.115  26.741  0.00  0.00    +0.000 A 
ATOM     17  C   UNL     1       7.866  -0.071  27.257  0.00  0.00    +0.000 A 
ENDBRANCH   7  13
ENDBRANCH   1   7
BRANCH   4  18
ATOM     18  C   UNL     1       6.504  -2.150  22.066  0.00  0.00    +0.000 C 
BRANCH  18  19
ATOM     19  C   UNL     1       6.437  -1.749  20.611  0.00  0.00    +0.000 C 
ATOM     20  O   UNL     1       5.492  -2.155  19.929  0.00  0.00    +0.000 OA
ATOM     21  N   UNL     1       7.094  -0.666  20.223  0.00  0.00    +0.000 N 
ATOM     22  C   UNL     1       6.403   0.489  19.653  0.00  0.00    +0.000 C 
ATOM     23  C   UNL     1       6.307   1.582  20.699  0.00  0.00    +0.000 C 
ATOM     24  O   UNL     1       7.013   1.288  21.814  0.00  0.00    +0.000 OA
ATOM     25  C   UNL     1       8.319   0.855  21.576  0.00  0.00    +0.000 C 
ATOM     26  C   UNL     1       8.429  -0.346  20.830  0.00  0.00    +0.000 C 
BRANCH  25  27
ATOM     27  C   UNL     1       9.076   1.001  22.885  0.00  0.00    +0.000 A 
ATOM     28  C   UNL     1       8.169   1.640  23.883  0.00  0.00    +0.000 A 
ATOM     29  C   UNL     1       8.385   2.936  24.537  0.00  0.00    +0.000 A 
ATOM     30  C   UNL     1       9.705   3.578  24.172  0.00  0.00    +0.000 A 
ATOM     31  F   UNL     1       9.273   4.764  23.495  0.00  0.00    +0.000 F 
ATOM     32  C   UNL     1      10.807   2.925  23.455  0.00  0.00    +0.000 A 
ATOM     33  C   UNL     1      10.455   1.495  22.913  0.00  0.00    +0.000 A 
ENDBRANCH  25  27
ENDBRANCH  18  19
ENDBRANCH   4  18
TORSDOF 5
ENDMDL
MODEL 7
REMARK VINA RESULT:      -8.1      2.411      7.568
REMARK  Name = 
REMARK  5 active torsions:
REMARK  status: ('A' for Active; 'I' for Inactive)
REMARK    1  A    between atoms: N_5  and  S_7
REMARK    2  A    between atoms: S_7  and  C_10
REMARK    3  A    between atoms: C_15  and  C_16
REMARK    4  A    between atoms: C_16  and  C_19
REMARK    5  A    between atoms: C_29  and  C_31
REMARK                            x       y       z     vdW  Elec       q    Type
REMARK                         _______ _______ _______ _____ _____    ______ ____
ROOT
ATOM      1  C   UNL     1       6.901  -1.877  26.862  0.00  0.00    +0.000 A 
ATOM      2  C   UNL     1       6.434  -0.525  27.290  0.00  0.00    +0.000 A 
ATOM      3  C   UNL     1       6.946   0.786  26.918  0.00  0.00    +0.000 A 
ATOM      4  C   UNL     1       7.840   0.619  25.618  0.00  0.00    +0.000 A 
ATOM      5  C   UNL     1       8.712  -0.565  25.408  0.00  0.00    +0.000 A 
ATOM      6  C   UNL     1       8.146  -1.859  26.099  0.00  0.00    +0.000 A 
ENDROOT
BRANCH   1   7
ATOM      7  S   UNL     1       5.471  -2.475  25.961  0.00  0.00    +0.000 S 
ATOM      8  O   UNL     1       4.577  -3.045  26.891  0.00  0.00    +0.000 OA
ATOM      9  O   UNL     1       4.972  -1.452  25.091  0.00  0.00    +0.000 OA
BRANCH   7  13
ATOM     10  C   UNL     1       3.284  -4.935  23.584  0.00  0.00    +0.000 A 
ATOM     11  N   UNL     1       4.050  -4.000  24.429  0.00  0.00    +0.000 NA
ATOM     12  C   UNL     1       5.226  -3.896  23.961  0.00  0.00    +0.000 A 
ATOM     13  N   UNL     1       6.049  -3.677  24.979  0.00  0.00    +0.000 N 
ATOM     14  H   UNL     1       6.134  -4.479  25.521  0.00  0.00    +0.000 HD
ATOM     15  C   UNL     1       6.040  -4.731  23.129  0.00  0.00    +0.000 A 
ATOM     16  C   UNL     1       5.543  -5.857  22.413  0.00  0.00    +0.000 A 
ATOM     17  C   UNL     1       4.125  -5.912  22.972  0.00  0.00    +0.000 A 
ENDBRANCH   7  13
ENDBRANCH   1   7
BRANCH   4  18
ATOM     18  C   UNL     1       7.029   1.324  24.483  0.00  0.00    +0.000 C 
BRANCH  18  19
ATOM     19  C   UNL     1       7.515   2.751  24.402  0.00  0.00    +0.000 C 
ATOM     20  O   UNL     1       7.422   3.466  25.404  0.00  0.00    +0.000 OA
ATOM     21  N   UNL     1       8.400   3.066  23.467  0.00  0.00    +0.000 N 
ATOM     22  C   UNL     1       9.730   3.569  23.805  0.00  0.00    +0.000 C 
ATOM     23  C   UNL     1      10.746   2.458  23.628  0.00  0.00    +0.000 C 
ATOM     24  O   UNL     1      10.207   1.357  23.057  0.00  0.00    +0.000 OA
ATOM     25  C   UNL     1       9.451   1.609  21.911  0.00  0.00    +0.000 C 
ATOM     26  C   UNL     1       8.310   2.428  22.111  0.00  0.00    +0.000 C 
BRANCH  25  27
ATOM     27  C   UNL     1       9.311   0.288  21.176  0.00  0.00    +0.000 A 
ATOM     28  C   UNL     1       8.042   0.319  20.391  0.00  0.00    +0.000 A 
ATOM     29  C   UNL     1       6.893  -0.575  20.576  0.00  0.00    +0.000 A 
ATOM     30  C   UNL     1       7.130  -1.646  21.619  0.00  0.00    +0.000 A 
ATOM     31  F   UNL     1       6.152  -1.305  22.609  0.00  0.00    +0.000 F 
ATOM     32  C   UNL     1       8.421  -1.973  22.233  0.00  0.00    +0.000 A 
ATOM     33  C   UNL     1       9.578  -0.986  21.848  0.00  0.00    +0.000 A 
ENDBRANCH  25  27
ENDBRANCH  18  19
ENDBRANCH   4  18
TORSDOF 5
ENDMDL
MODEL 8
REMARK VINA RESULT:      -8.1      2.069      3.314
REMARK  Name = 
REMARK  5 active torsions:
REMARK  status: ('A' for Active; 'I' for Inactive)
REMARK    1  A    between atoms: N_5  and  S_7
REMARK    2  A    between atoms: S_7  and  C_10
REMARK    3  A    between atoms: C_15  and  C_16
REMARK    4  A    between atoms: C_16  and  C_19
REMARK    5  A    between atoms: C_29  and  C_31
REMARK                            x       y       z     vdW  Elec       q    Type
REMARK                         _______ _______ _______ _____ _____    ______ ____
ROOT
ATOM      1  C   UNL     1       9.392   0.291  21.412  0.00  0.00    +0.000 A 
ATOM      2  C   UNL     1       8.045   0.220  20.772  0.00  0.00    +0.000 A 
ATOM      3  C   UNL     1       7.082  -0.872  20.775  0.00  0.00    +0.000 A 
ATOM      4  C   UNL     1       7.471  -1.875  21.941  0.00  0.00    +0.000 A 
ATOM      5  C   UNL     1       8.886  -2.181  22.277  0.00  0.00    +0.000 A 
ATOM      6  C   UNL     1       9.851  -0.978  21.969  0.00  0.00    +0.000 A 
ENDROOT
BRANCH   1   7
ATOM      7  S   UNL     1       9.141   1.598  22.613  0.00  0.00    +0.000 S 
ATOM      8  O   UNL     1       7.964   2.293  22.263  0.00  0.00    +0.000 OA
ATOM      9  O   UNL     1       9.242   1.074  23.942  0.00  0.00    +0.000 OA
BRANCH   7  13
ATOM     10  C   UNL     1       9.652   5.234  24.349  0.00  0.00    +0.000 A 
ATOM     11  N   UNL     1       9.452   3.894  23.766  0.00  0.00    +0.000 NA
ATOM     12  C   UNL     1      10.586   3.399  23.482  0.00  0.00    +0.000 A 
ATOM     13  N   UNL     1      10.433   2.618  22.420  0.00  0.00    +0.000 N 
ATOM     14  H   UNL     1      10.262   3.156  21.629  0.00  0.00    +0.000 HD
ATOM     15  C   UNL     1      11.877   3.961  23.221  0.00  0.00    +0.000 A 
ATOM     16  C   UNL     1      12.213   5.320  23.478  0.00  0.00    +0.000 A 
ATOM     17  C   UNL     1      10.836   5.858  23.855  0.00  0.00    +0.000 A 
ENDBRANCH   7  13
ENDBRANCH   1   7
BRANCH   4  18
ATOM     18  C   UNL     1       6.332  -1.718  23.001  0.00  0.00    +0.000 C 
BRANCH  18  19
ATOM     19  C   UNL     1       6.839  -0.780  24.070  0.00  0.00    +0.000 C 
ATOM     20  O   UNL     1       6.518   0.411  24.013  0.00  0.00    +0.000 OA
ATOM     21  N   UNL     1       7.213  -1.290  25.234  0.00  0.00    +0.000 N 
ATOM     22  C   UNL     1       6.546  -0.929  26.483  0.00  0.00    +0.000 C 
ATOM     23  C   UNL     1       5.621  -2.053  26.902  0.00  0.00    +0.000 C 
ATOM     24  O   UNL     1       5.765  -3.151  26.125  0.00  0.00    +0.000 OA
ATOM     25  C   UNL     1       7.087  -3.558  25.935  0.00  0.00    +0.000 C 
ATOM     26  C   UNL     1       7.917  -2.616  25.274  0.00  0.00    +0.000 C 
BRANCH  25  27
ATOM     27  C   UNL     1       7.040  -4.995  25.446  0.00  0.00    +0.000 A 
ATOM     28  C   UNL     1       7.790  -5.077  24.158  0.00  0.00    +0.000 A 
ATOM     29  C   UNL     1       7.226  -5.456  22.857  0.00  0.00    +0.000 A 
ATOM     30  C   UNL     1       5.770  -5.861  22.930  0.00  0.00    +0.000 A 
ATOM     31  F   UNL     1       5.148  -4.846  22.134  0.00  0.00    +0.000 F 
ATOM     32  C   UNL     1       5.012  -6.116  24.160  0.00  0.00    +0.000 A 
ATOM     33  C   UNL     1       5.794  -5.765  25.474  0.00  0.00    +0.000 A 
ENDBRANCH  25  27
ENDBRANCH  18  19
ENDBRANCH   4  18
TORSDOF 5
ENDMDL
MODEL 9
REMARK VINA RESULT:      -8.1      2.647      7.635
REMARK  Name = 
REMARK  5 active torsions:
REMARK  status: ('A' for Active; 'I' for Inactive)
REMARK    1  A    between atoms: N_5  and  S_7
REMARK    2  A    between atoms: S_7  and  C_10
REMARK    3  A    between atoms: C_15  and  C_16
REMARK    4  A    between atoms: C_16  and  C_19
REMARK    5  A    between atoms: C_29  and  C_31
REMARK                            x       y       z     vdW  Elec       q    Type
REMARK                         _______ _______ _______ _____ _____    ______ ____
ROOT
ATOM      1  C   UNL     1       8.960  -3.160  25.705  0.00  0.00    +0.000 A 
ATOM      2  C   UNL     1       8.536  -2.094  26.661  0.00  0.00    +0.000 A 
ATOM      3  C   UNL     1       8.608  -0.647  26.516  0.00  0.00    +0.000 A 
ATOM      4  C   UNL     1       8.819  -0.311  24.980  0.00  0.00    +0.000 A 
ATOM      5  C   UNL     1       9.671  -1.152  24.100  0.00  0.00    +0.000 A 
ATOM      6  C   UNL     1       9.696  -2.659  24.547  0.00  0.00    +0.000 A 
ENDROOT
BRANCH   1   7
ATOM      7  S   UNL     1       7.389  -3.936  25.325  0.00  0.00    +0.000 S 
ATOM      8  O   UNL     1       7.153  -4.939  26.289  0.00  0.00    +0.000 OA
ATOM      9  O   UNL     1       6.380  -2.940  25.131  0.00  0.00    +0.000 OA
BRANCH   7  13
ATOM     10  C   UNL     1       4.526  -5.618  22.988  0.00  0.00    +0.000 A 
ATOM     11  N   UNL     1       5.534  -4.965  23.843  0.00  0.00    +0.000 NA
ATOM     12  C   UNL     1       6.507  -4.594  23.117  0.00  0.00    +0.000 A 
ATOM     13  N   UNL     1       7.611  -4.663  23.852  0.00  0.00    +0.000 N 
ATOM     14  H   UNL     1       7.846  -5.591  24.019  0.00  0.00    +0.000 HD
ATOM     15  C   UNL     1       7.007  -5.007  21.840  0.00  0.00    +0.000 A 
ATOM     16  C   UNL     1       6.291  -5.857  20.949  0.00  0.00    +0.000 A 
ATOM     17  C   UNL     1       5.117  -6.238  21.846  0.00  0.00    +0.000 A 
ENDBRANCH   7  13
ENDBRANCH   1   7
BRANCH   4  18
ATOM     18  C   UNL     1       7.478   0.353  24.528  0.00  0.00    +0.000 C 
BRANCH  18  19
ATOM     19  C   UNL     1       7.728   1.838  24.414  0.00  0.00    +0.000 C 
ATOM     20  O   UNL     1       7.983   2.476  25.440  0.00  0.00    +0.000 OA
ATOM     21  N   UNL     1       8.103   2.328  23.242  0.00  0.00    +0.000 N 
ATOM     22  C   UNL     1       9.390   2.998  23.064  0.00  0.00    +0.000 C 
ATOM     23  C   UNL     1      10.354   2.058  22.369  0.00  0.00    +0.000 C 
ATOM     24  O   UNL     1       9.750   0.923  21.949  0.00  0.00    +0.000 OA
ATOM     25  C   UNL     1       8.562   1.126  21.243  0.00  0.00    +0.000 C 
ATOM     26  C   UNL     1       7.527   1.760  21.977  0.00  0.00    +0.000 C 
BRANCH  25  27
ATOM     27  C   UNL     1       8.273  -0.160  20.489  0.00  0.00    +0.000 A 
ATOM     28  C   UNL     1       7.946   0.189  19.075  0.00  0.00    +0.000 A 
ATOM     29  C   UNL     1       6.668  -0.067  18.400  0.00  0.00    +0.000 A 
ATOM     30  C   UNL     1       5.680  -0.826  19.257  0.00  0.00    +0.000 A 
ATOM     31  F   UNL     1       4.626   0.134  19.402  0.00  0.00    +0.000 F 
ATOM     32  C   UNL     1       5.980  -1.487  20.531  0.00  0.00    +0.000 A 
ATOM     33  C   UNL     1       7.428  -1.206  21.069  0.00  0.00    +0.000 A 
ENDBRANCH  25  27
ENDBRANCH  18  19
ENDBRANCH   4  18
TORSDOF 5
ENDMDL
