MODEL 1
REMARK VINA RESULT:      -8.7      0.000      0.000
REMARK  Name = 
REMARK  9 active torsions:
REMARK  status: ('A' for Active; 'I' for Inactive)
REMARK    1  A    between atoms: N_5  and  S_6
REMARK    2  A    between atoms: S_6  and  C_9
REMARK    3  A    between atoms: C_12  and  C_13
REMARK    4  A    between atoms: C_21  and  S_22
REMARK    5  A    between atoms: S_22  and  C_25
REMARK    6  A    between atoms: C_30  and  C_31
REMARK    7  A    between atoms: C_31  and  N_34
REMARK    8  A    between atoms: C_36  and  C_38
REMARK    9  A    between atoms: C_53  and  C_55
REMARK                            x       y       z     vdW  Elec       q    Type
REMARK                         _______ _______ _______ _____ _____    ______ ____
ROOT
ATOM      1  C   UNL     1       9.382  -0.491  24.226  0.00  0.00    +0.000 A 
ATOM      2  C   UNL     1      10.499   0.621  24.085  0.00  0.00    +0.000 A 
ATOM      3  C   UNL     1      10.257   1.991  24.209  0.00  0.00    +0.000 A 
ATOM      4  C   UNL     1      10.884   3.011  23.634  0.00  0.00    +0.000 C 
ATOM      5  C   UNL     1       8.782   2.245  24.298  0.00  0.00    +0.000 A 
ATOM      6  C   UNL     1       7.670   1.478  24.601  0.00  0.00    +0.000 A 
ATOM      7  C   UNL     1       8.109   0.001  24.660  0.00  0.00    +0.000 A 
ENDROOT
BRANCH   1   8
ATOM      8  S   UNL     1       9.543  -1.378  22.684  0.00  0.00    +0.000 S 
ATOM      9  O   UNL     1      10.536  -0.319  21.932  0.00  0.00    +0.000 OA
ATOM     10  O   UNL     1      10.526  -2.476  23.026  0.00  0.00    +0.000 OA
BRANCH   8  13
ATOM     11  C   UNL     1       7.929   0.283  20.942  0.00  0.00    +0.000 C 
ATOM     12  C   UNL     1       8.805  -0.512  20.926  0.00  0.00    +0.000 C 
ATOM     13  N   UNL     1       8.719  -1.738  21.782  0.00  0.00    +0.000 N 
ATOM     14  C   UNL     1       7.446  -1.964  21.551  0.00  0.00    +0.000 C 
ATOM     15  C   UNL     1       6.626  -1.092  20.996  0.00  0.00    +0.000 C 
ATOM     16  N   UNL     1       6.612   0.023  20.342  0.00  0.00    +0.000 N 
ATOM     17  C   UNL     1       6.951   0.564  19.132  0.00  0.00    +0.000 C 
ATOM     18  O   UNL     1       7.904  -0.092  18.661  0.00  0.00    +0.000 OA
BRANCH  17  19
ATOM     19  C   UNL     1       5.692   0.624  18.270  0.00  0.00    +0.000 C 
ATOM     20 CL   UNL     1       4.478   1.606  19.085  0.00  0.00    +0.000 Cl
ENDBRANCH  17  19
ENDBRANCH   8  13
ENDBRANCH   1   8
BRANCH   7  21
ATOM     21  S   UNL     1       7.839  -0.461  26.380  0.00  0.00    +0.000 S 
ATOM     22  O   UNL     1       9.087  -0.619  27.044  0.00  0.00    +0.000 OA
ATOM     23  O   UNL     1       7.087   0.688  26.932  0.00  0.00    +0.000 OA
BRANCH  21  24
ATOM     24  C   UNL     1       6.810  -1.837  26.500  0.00  0.00    +0.000 A 
ATOM     25  C   UNL     1       7.824  -2.918  26.175  0.00  0.00    +0.000 A 
ATOM     26  C   UNL     1       7.801  -3.870  25.086  0.00  0.00    +0.000 A 
ATOM     27  C   UNL     1       6.363  -3.949  24.457  0.00  0.00    +0.000 A 
ATOM     28  C   UNL     1       5.376  -2.886  24.487  0.00  0.00    +0.000 A 
ATOM     29  C   UNL     1       5.596  -1.892  25.729  0.00  0.00    +0.000 A 
BRANCH  27  30
ATOM     30  C   UNL     1       5.937  -5.459  24.625  0.00  0.00    +0.000 C 
BRANCH  30  31
ATOM     31  N   UNL     1       5.880  -6.106  23.347  0.00  0.00    +0.000 N 
ATOM     32  H   UNL     1       5.650  -7.036  23.266  0.00  0.00    +0.000 HD
ATOM     33  C   UNL     1       6.772  -5.805  22.367  0.00  0.00    +0.000 C 
ATOM     34  O   UNL     1       7.927  -6.205  22.474  0.00  0.00    +0.000 OA
ATOM     35  C   UNL     1       6.179  -5.595  20.989  0.00  0.00    +0.000 C 
ENDBRANCH  30  31
ENDBRANCH  27  30
ENDBRANCH  21  24
ENDBRANCH   7  21
TORSDOF 7
ENDMDL
MODEL 2
REMARK VINA RESULT:      -8.5      1.448      1.975
REMARK  Name = 
REMARK  9 active torsions:
REMARK  status: ('A' for Active; 'I' for Inactive)
REMARK    1  A    between atoms: N_5  and  S_6
REMARK    2  A    between atoms: S_6  and  C_9
REMARK    3  A    between atoms: C_12  and  C_13
REMARK    4  A    between atoms: C_21  and  S_22
REMARK    5  A    between atoms: S_22  and  C_25
REMARK    6  A    between atoms: C_30  and  C_31
REMARK    7  A    between atoms: C_31  and  N_34
REMARK    8  A    between atoms: C_36  and  C_38
REMARK    9  A    between atoms: C_53  and  C_55
REMARK                            x       y       z     vdW  Elec       q    Type
REMARK                         _______ _______ _______ _____ _____    ______ ____
ROOT
ATOM      1  C   UNL     1       9.342  -0.625  24.316  0.00  0.00    +0.000 A 
ATOM      2  C   UNL     1      10.407   0.526  24.103  0.00  0.00    +0.000 A 
ATOM      3  C   UNL     1      10.113   1.887  24.192  0.00  0.00    +0.000 A 
ATOM      4  C   UNL     1      10.680   2.913  23.566  0.00  0.00    +0.000 C 
ATOM      5  C   UNL     1       8.633   2.085  24.321  0.00  0.00    +0.000 A 
ATOM      6  C   UNL     1       7.563   1.285  24.684  0.00  0.00    +0.000 A 
ATOM      7  C   UNL     1       8.064  -0.170  24.775  0.00  0.00    +0.000 A 
ENDROOT
BRANCH   1   8
ATOM      8  S   UNL     1       9.490  -1.555  22.797  0.00  0.00    +0.000 S 
ATOM      9  O   UNL     1      10.570  -0.578  22.054  0.00  0.00    +0.000 OA
ATOM     10  O   UNL     1      10.391  -2.705  23.191  0.00  0.00    +0.000 OA
BRANCH   8  13
ATOM     11  C   UNL     1       7.980   0.169  21.023  0.00  0.00    +0.000 C 
ATOM     12  C   UNL     1       8.824  -0.660  21.025  0.00  0.00    +0.000 C 
ATOM     13  N   UNL     1       8.671  -1.882  21.878  0.00  0.00    +0.000 N 
ATOM     14  C   UNL     1       7.396  -2.058  21.621  0.00  0.00    +0.000 C 
ATOM     15  C   UNL     1       6.622  -1.154  21.050  0.00  0.00    +0.000 C 
ATOM     16  N   UNL     1       6.666  -0.039  20.397  0.00  0.00    +0.000 N 
ATOM     17  C   UNL     1       7.051   0.488  19.194  0.00  0.00    +0.000 C 
ATOM     18  O   UNL     1       7.986  -0.206  18.742  0.00  0.00    +0.000 OA
BRANCH  17  19
ATOM     19  C   UNL     1       5.812   0.597  18.307  0.00  0.00    +0.000 C 
ATOM     20 CL   UNL     1       4.589   1.556  19.135  0.00  0.00    +0.000 Cl
ENDBRANCH  17  19
ENDBRANCH   8  13
ENDBRANCH   1   8
BRANCH   7  21
ATOM     21  S   UNL     1       7.867  -0.587  26.516  0.00  0.00    +0.000 S 
ATOM     22  O   UNL     1       9.142  -0.726  27.132  0.00  0.00    +0.000 OA
ATOM     23  O   UNL     1       7.135   0.575  27.069  0.00  0.00    +0.000 OA
BRANCH  21  24
ATOM     24  C   UNL     1       6.848  -1.961  26.715  0.00  0.00    +0.000 A 
ATOM     25  C   UNL     1       7.857  -3.050  26.404  0.00  0.00    +0.000 A 
ATOM     26  C   UNL     1       7.808  -4.042  25.351  0.00  0.00    +0.000 A 
ATOM     27  C   UNL     1       6.354  -4.149  24.766  0.00  0.00    +0.000 A 
ATOM     28  C   UNL     1       5.363  -3.089  24.783  0.00  0.00    +0.000 A 
ATOM     29  C   UNL     1       5.614  -2.048  25.982  0.00  0.00    +0.000 A 
BRANCH  27  30
ATOM     30  C   UNL     1       5.939  -5.653  25.002  0.00  0.00    +0.000 C 
BRANCH  30  31
ATOM     31  N   UNL     1       6.229  -6.045  26.350  0.00  0.00    +0.000 N 
ATOM     32  H   UNL     1       6.800  -6.794  26.542  0.00  0.00    +0.000 HD
ATOM     33  C   UNL     1       5.280  -5.978  27.320  0.00  0.00    +0.000 C 
ATOM     34  O   UNL     1       4.371  -6.802  27.318  0.00  0.00    +0.000 OA
ATOM     35  C   UNL     1       5.731  -5.368  28.632  0.00  0.00    +0.000 C 
ENDBRANCH  30  31
ENDBRANCH  27  30
ENDBRANCH  21  24
ENDBRANCH   7  21
TORSDOF 7
ENDMDL
MODEL 3
REMARK VINA RESULT:      -8.2      3.616      8.056
REMARK  Name = 
REMARK  9 active torsions:
REMARK  status: ('A' for Active; 'I' for Inactive)
REMARK    1  A    between atoms: N_5  and  S_6
REMARK    2  A    between atoms: S_6  and  C_9
REMARK    3  A    between atoms: C_12  and  C_13
REMARK    4  A    between atoms: C_21  and  S_22
REMARK    5  A    between atoms: S_22  and  C_25
REMARK    6  A    between atoms: C_30  and  C_31
REMARK    7  A    between atoms: C_31  and  N_34
REMARK    8  A    between atoms: C_36  and  C_38
REMARK    9  A    between atoms: C_53  and  C_55
REMARK                            x       y       z     vdW  Elec       q    Type
REMARK                         _______ _______ _______ _____ _____    ______ ____
ROOT
ATOM      1  C   UNL     1       8.154  -3.224  23.044  0.00  0.00    +0.000 A 
ATOM      2  C   UNL     1       7.473  -4.543  22.494  0.00  0.00    +0.000 A 
ATOM      3  C   UNL     1       6.107  -4.664  22.231  0.00  0.00    +0.000 A 
ATOM      4  C   UNL     1       5.333  -5.741  22.288  0.00  0.00    +0.000 C 
ATOM      5  C   UNL     1       5.380  -3.450  22.723  0.00  0.00    +0.000 A 
ATOM      6  C   UNL     1       5.744  -2.158  23.063  0.00  0.00    +0.000 A 
ATOM      7  C   UNL     1       7.283  -2.089  23.101  0.00  0.00    +0.000 A 
ENDROOT
BRANCH   1   8
ATOM      8  S   UNL     1       8.981  -3.817  24.512  0.00  0.00    +0.000 S 
ATOM      9  O   UNL     1       8.858  -5.416  24.195  0.00  0.00    +0.000 OA
ATOM     10  O   UNL     1      10.443  -3.589  24.194  0.00  0.00    +0.000 OA
BRANCH   8  13
ATOM     11  C   UNL     1       6.827  -5.010  26.041  0.00  0.00    +0.000 C 
ATOM     12  C   UNL     1       8.004  -5.013  25.927  0.00  0.00    +0.000 C 
ATOM     13  N   UNL     1       8.744  -3.721  25.760  0.00  0.00    +0.000 N 
ATOM     14  C   UNL     1       8.040  -3.056  26.647  0.00  0.00    +0.000 C 
ATOM     15  C   UNL     1       6.896  -3.477  27.154  0.00  0.00    +0.000 C 
ATOM     16  N   UNL     1       6.148  -4.527  27.253  0.00  0.00    +0.000 N 
ATOM     17  C   UNL     1       6.104  -5.764  27.835  0.00  0.00    +0.000 C 
ATOM     18  O   UNL     1       7.276  -6.168  27.990  0.00  0.00    +0.000 OA
BRANCH  17  19
ATOM     19  C   UNL     1       5.261  -5.660  29.104  0.00  0.00    +0.000 C 
ATOM     20 CL   UNL     1       3.766  -6.564  28.882  0.00  0.00    +0.000 Cl
ENDBRANCH  17  19
ENDBRANCH   8  13
ENDBRANCH   1   8
BRANCH   7  21
ATOM     21  S   UNL     1       7.697  -0.945  21.773  0.00  0.00    +0.000 S 
ATOM     22  O   UNL     1       8.913  -1.342  21.149  0.00  0.00    +0.000 OA
ATOM     23  O   UNL     1       6.557  -1.072  20.839  0.00  0.00    +0.000 OA
BRANCH  21  24
ATOM     24  C   UNL     1       7.706   0.683  22.334  0.00  0.00    +0.000 A 
ATOM     25  C   UNL     1       8.877   1.206  21.524  0.00  0.00    +0.000 A 
ATOM     26  C   UNL     1      10.119   1.771  22.006  0.00  0.00    +0.000 A 
ATOM     27  C   UNL     1       9.984   2.180  23.517  0.00  0.00    +0.000 A 
ATOM     28  C   UNL     1       9.064   1.584  24.468  0.00  0.00    +0.000 A 
ATOM     29  C   UNL     1       7.776   0.952  23.746  0.00  0.00    +0.000 A 
BRANCH  27  30
ATOM     30  C   UNL     1      10.288   3.728  23.540  0.00  0.00    +0.000 C 
BRANCH  30  31
ATOM     31  N   UNL     1      11.679   3.967  23.283  0.00  0.00    +0.000 N 
ATOM     32  H   UNL     1      12.360   3.390  23.642  0.00  0.00    +0.000 HD
ATOM     33  C   UNL     1      12.177   5.230  23.235  0.00  0.00    +0.000 C 
ATOM     34  O   UNL     1      12.303   5.858  24.281  0.00  0.00    +0.000 OA
ATOM     35  C   UNL     1      13.108   5.518  22.075  0.00  0.00    +0.000 C 
ENDBRANCH  30  31
ENDBRANCH  27  30
ENDBRANCH  21  24
ENDBRANCH   7  21
TORSDOF 7
ENDMDL
MODEL 4
REMARK VINA RESULT:      -7.9      3.590      7.790
REMARK  Name = 
REMARK  9 active torsions:
REMARK  status: ('A' for Active; 'I' for Inactive)
REMARK    1  A    between atoms: N_5  and  S_6
REMARK    2  A    between atoms: S_6  and  C_9
REMARK    3  A    between atoms: C_12  and  C_13
REMARK    4  A    between atoms: C_21  and  S_22
REMARK    5  A    between atoms: S_22  and  C_25
REMARK    6  A    between atoms: C_30  and  C_31
REMARK    7  A    between atoms: C_31  and  N_34
REMARK    8  A    between atoms: C_36  and  C_38
REMARK    9  A    between atoms: C_53  and  C_55
REMARK                            x       y       z     vdW  Elec       q    Type
REMARK                         _______ _______ _______ _____ _____    ______ ____
ROOT
ATOM      1  C   UNL     1       8.145  -3.263  22.987  0.00  0.00    +0.000 A 
ATOM      2  C   UNL     1       7.654  -4.631  22.360  0.00  0.00    +0.000 A 
ATOM      3  C   UNL     1       6.335  -4.888  21.985  0.00  0.00    +0.000 A 
ATOM      4  C   UNL     1       5.677  -6.042  21.961  0.00  0.00    +0.000 C 
ATOM      5  C   UNL     1       5.445  -3.770  22.438  0.00  0.00    +0.000 A 
ATOM      6  C   UNL     1       5.641  -2.456  22.828  0.00  0.00    +0.000 A 
ATOM      7  C   UNL     1       7.157  -2.227  22.992  0.00  0.00    +0.000 A 
ENDROOT
BRANCH   1   8
ATOM      8  S   UNL     1       8.913  -3.803  24.506  0.00  0.00    +0.000 S 
ATOM      9  O   UNL     1       8.834  -5.412  24.225  0.00  0.00    +0.000 OA
ATOM     10  O   UNL     1      10.383  -3.555  24.251  0.00  0.00    +0.000 OA
BRANCH   8  13
ATOM     11  C   UNL     1       6.717  -5.008  25.964  0.00  0.00    +0.000 C 
ATOM     12  C   UNL     1       7.898  -4.986  25.906  0.00  0.00    +0.000 C 
ATOM     13  N   UNL     1       8.615  -3.681  25.739  0.00  0.00    +0.000 N 
ATOM     14  C   UNL     1       7.856  -3.011  26.575  0.00  0.00    +0.000 C 
ATOM     15  C   UNL     1       6.699  -3.447  27.038  0.00  0.00    +0.000 C 
ATOM     16  N   UNL     1       5.972  -4.512  27.131  0.00  0.00    +0.000 N 
ATOM     17  C   UNL     1       5.929  -5.735  27.743  0.00  0.00    +0.000 C 
ATOM     18  O   UNL     1       7.101  -6.106  27.962  0.00  0.00    +0.000 OA
BRANCH  17  19
ATOM     19  C   UNL     1       5.025  -5.619  28.968  0.00  0.00    +0.000 C 
ATOM     20 CL   UNL     1       5.942  -6.057  30.407  0.00  0.00    +0.000 Cl
ENDBRANCH  17  19
ENDBRANCH   8  13
ENDBRANCH   1   8
BRANCH   7  21
ATOM     21  S   UNL     1       7.550  -1.012  21.722  0.00  0.00    +0.000 S 
ATOM     22  O   UNL     1       8.760  -1.369  21.064  0.00  0.00    +0.000 OA
ATOM     23  O   UNL     1       6.398  -1.096  20.796  0.00  0.00    +0.000 OA
BRANCH  21  24
ATOM     24  C   UNL     1       7.557   0.584  22.369  0.00  0.00    +0.000 A 
ATOM     25  C   UNL     1       8.720   1.154  21.578  0.00  0.00    +0.000 A 
ATOM     26  C   UNL     1       9.963   1.698  22.079  0.00  0.00    +0.000 A 
ATOM     27  C   UNL     1       9.840   2.025  23.612  0.00  0.00    +0.000 A 
ATOM     28  C   UNL     1       8.930   1.376  24.537  0.00  0.00    +0.000 A 
ATOM     29  C   UNL     1       7.637   0.778  23.792  0.00  0.00    +0.000 A 
BRANCH  27  30
ATOM     30  C   UNL     1      10.138   3.571  23.714  0.00  0.00    +0.000 C 
BRANCH  30  31
ATOM     31  N   UNL     1       9.189   4.315  22.938  0.00  0.00    +0.000 N 
ATOM     32  H   UNL     1       9.460   5.064  22.399  0.00  0.00    +0.000 HD
ATOM     33  C   UNL     1       7.938   4.563  23.408  0.00  0.00    +0.000 C 
ATOM     34  O   UNL     1       7.795   5.389  24.303  0.00  0.00    +0.000 OA
ATOM     35  C   UNL     1       6.814   4.329  22.420  0.00  0.00    +0.000 C 
ENDBRANCH  30  31
ENDBRANCH  27  30
ENDBRANCH  21  24
ENDBRANCH   7  21
TORSDOF 7
ENDMDL
MODEL 5
REMARK VINA RESULT:      -7.3      3.493      7.898
REMARK  Name = 
REMARK  9 active torsions:
REMARK  status: ('A' for Active; 'I' for Inactive)
REMARK    1  A    between atoms: N_5  and  S_6
REMARK    2  A    between atoms: S_6  and  C_9
REMARK    3  A    between atoms: C_12  and  C_13
REMARK    4  A    between atoms: C_21  and  S_22
REMARK    5  A    between atoms: S_22  and  C_25
REMARK    6  A    between atoms: C_30  and  C_31
REMARK    7  A    between atoms: C_31  and  N_34
REMARK    8  A    between atoms: C_36  and  C_38
REMARK    9  A    between atoms: C_53  and  C_55
REMARK                            x       y       z     vdW  Elec       q    Type
REMARK                         _______ _______ _______ _____ _____    ______ ____
ROOT
ATOM      1  C   UNL     1       7.781  -4.111  24.215  0.00  0.00    +0.000 A 
ATOM      2  C   UNL     1       7.561  -5.359  23.266  0.00  0.00    +0.000 A 
ATOM      3  C   UNL     1       6.943  -5.289  22.016  0.00  0.00    +0.000 A 
ATOM      4  C   UNL     1       6.236  -6.212  21.375  0.00  0.00    +0.000 C 
ATOM      5  C   UNL     1       6.363  -3.923  21.806  0.00  0.00    +0.000 A 
ATOM      6  C   UNL     1       6.557  -2.676  22.375  0.00  0.00    +0.000 A 
ATOM      7  C   UNL     1       7.444  -2.852  23.623  0.00  0.00    +0.000 A 
ENDROOT
BRANCH   1   8
ATOM      8  S   UNL     1       6.999  -4.651  25.727  0.00  0.00    +0.000 S 
ATOM      9  O   UNL     1       8.292  -4.474  26.712  0.00  0.00    +0.000 OA
ATOM     10  O   UNL     1       6.180  -3.446  26.135  0.00  0.00    +0.000 OA
BRANCH   8  13
ATOM     11  C   UNL     1       4.248  -5.510  25.417  0.00  0.00    +0.000 C 
ATOM     12  C   UNL     1       5.353  -5.781  25.093  0.00  0.00    +0.000 C 
ATOM     13  N   UNL     1       6.460  -5.743  26.102  0.00  0.00    +0.000 N 
ATOM     14  C   UNL     1       5.766  -6.293  27.072  0.00  0.00    +0.000 C 
ATOM     15  C   UNL     1       4.455  -6.442  27.054  0.00  0.00    +0.000 C 
ATOM     16  N   UNL     1       3.432  -6.391  26.265  0.00  0.00    +0.000 N 
ATOM     17  C   UNL     1       2.859  -7.039  25.205  0.00  0.00    +0.000 C 
ATOM     18  O   UNL     1       3.765  -7.597  24.550  0.00  0.00    +0.000 OA
BRANCH  17  19
ATOM     19  C   UNL     1       1.764  -7.956  25.745  0.00  0.00    +0.000 C 
ATOM     20 CL   UNL     1       1.505  -9.279  24.611  0.00  0.00    +0.000 Cl
ENDBRANCH  17  19
ENDBRANCH   8  13
ENDBRANCH   1   8
BRANCH   7  21
ATOM     21  S   UNL     1       8.952  -1.957  23.212  0.00  0.00    +0.000 S 
ATOM     22  O   UNL     1      10.091  -2.703  23.626  0.00  0.00    +0.000 OA
ATOM     23  O   UNL     1       8.897  -1.847  21.737  0.00  0.00    +0.000 OA
BRANCH  21  24
ATOM     24  C   UNL     1       8.912  -0.351  23.835  0.00  0.00    +0.000 A 
ATOM     25  C   UNL     1       8.977   0.412  22.526  0.00  0.00    +0.000 A 
ATOM     26  C   UNL     1       9.983   1.356  22.089  0.00  0.00    +0.000 A 
ATOM     27  C   UNL     1      10.843   1.845  23.310  0.00  0.00    +0.000 A 
ATOM     28  C   UNL     1      11.061   1.098  24.534  0.00  0.00    +0.000 A 
ATOM     29  C   UNL     1       9.874   0.055  24.825  0.00  0.00    +0.000 A 
BRANCH  27  30
ATOM     30  C   UNL     1      10.642   3.411  23.337  0.00  0.00    +0.000 C 
BRANCH  30  31
ATOM     31  N   UNL     1       9.245   3.733  23.368  0.00  0.00    +0.000 N 
ATOM     32  H   UNL     1       8.872   4.400  22.783  0.00  0.00    +0.000 HD
ATOM     33  C   UNL     1       8.559   3.768  24.541  0.00  0.00    +0.000 C 
ATOM     34  O   UNL     1       8.752   4.702  25.312  0.00  0.00    +0.000 OA
ATOM     35  C   UNL     1       7.210   3.078  24.526  0.00  0.00    +0.000 C 
ENDBRANCH  30  31
ENDBRANCH  27  30
ENDBRANCH  21  24
ENDBRANCH   7  21
TORSDOF 7
ENDMDL
MODEL 6
REMARK VINA RESULT:      -7.2      3.847      8.338
REMARK  Name = 
REMARK  9 active torsions:
REMARK  status: ('A' for Active; 'I' for Inactive)
REMARK    1  A    between atoms: N_5  and  S_6
REMARK    2  A    between atoms: S_6  and  C_9
REMARK    3  A    between atoms: C_12  and  C_13
REMARK    4  A    between atoms: C_21  and  S_22
REMARK    5  A    between atoms: S_22  and  C_25
REMARK    6  A    between atoms: C_30  and  C_31
REMARK    7  A    between atoms: C_31  and  N_34
REMARK    8  A    between atoms: C_36  and  C_38
REMARK    9  A    between atoms: C_53  and  C_55
REMARK                            x       y       z     vdW  Elec       q    Type
REMARK                         _______ _______ _______ _____ _____    ______ ____
ROOT
ATOM      1  C   UNL     1       7.797  -4.020  24.143  0.00  0.00    +0.000 A 
ATOM      2  C   UNL     1       7.603  -5.296  23.227  0.00  0.00    +0.000 A 
ATOM      3  C   UNL     1       6.967  -5.275  21.984  0.00  0.00    +0.000 A 
ATOM      4  C   UNL     1       6.281  -6.235  21.374  0.00  0.00    +0.000 C 
ATOM      5  C   UNL     1       6.340  -3.933  21.752  0.00  0.00    +0.000 A 
ATOM      6  C   UNL     1       6.502  -2.668  22.288  0.00  0.00    +0.000 A 
ATOM      7  C   UNL     1       7.411  -2.786  23.528  0.00  0.00    +0.000 A 
ENDROOT
BRANCH   1   8
ATOM      8  S   UNL     1       7.052  -4.550  25.679  0.00  0.00    +0.000 S 
ATOM      9  O   UNL     1       8.094  -5.764  26.014  0.00  0.00    +0.000 OA
ATOM     10  O   UNL     1       7.527  -3.504  26.664  0.00  0.00    +0.000 OA
BRANCH   8  13
ATOM     11  C   UNL     1       6.168  -5.612  28.226  0.00  0.00    +0.000 C 
ATOM     12  C   UNL     1       5.968  -4.732  27.462  0.00  0.00    +0.000 C 
ATOM     13  N   UNL     1       5.908  -5.016  25.991  0.00  0.00    +0.000 N 
ATOM     14  C   UNL     1       5.224  -6.131  26.105  0.00  0.00    +0.000 C 
ATOM     15  C   UNL     1       5.045  -6.779  27.241  0.00  0.00    +0.000 C 
ATOM     16  N   UNL     1       5.167  -6.648  28.521  0.00  0.00    +0.000 N 
ATOM     17  C   UNL     1       4.642  -5.970  29.588  0.00  0.00    +0.000 C 
ATOM     18  O   UNL     1       4.193  -4.879  29.178  0.00  0.00    +0.000 OA
BRANCH  17  19
ATOM     19  C   UNL     1       3.637  -6.886  30.283  0.00  0.00    +0.000 C 
ATOM     20 CL   UNL     1       2.097  -6.045  30.436  0.00  0.00    +0.000 Cl
ENDBRANCH  17  19
ENDBRANCH   8  13
ENDBRANCH   1   8
BRANCH   7  21
ATOM     21  S   UNL     1       8.884  -1.854  23.075  0.00  0.00    +0.000 S 
ATOM     22  O   UNL     1      10.052  -2.589  23.419  0.00  0.00    +0.000 OA
ATOM     23  O   UNL     1       8.762  -1.708  21.607  0.00  0.00    +0.000 OA
BRANCH  21  24
ATOM     24  C   UNL     1       8.843  -0.266  23.741  0.00  0.00    +0.000 A 
ATOM     25  C   UNL     1       8.986   0.532  22.458  0.00  0.00    +0.000 A 
ATOM     26  C   UNL     1      10.028   1.467  22.096  0.00  0.00    +0.000 A 
ATOM     27  C   UNL     1      10.837   1.906  23.370  0.00  0.00    +0.000 A 
ATOM     28  C   UNL     1      10.983   1.122  24.582  0.00  0.00    +0.000 A 
ATOM     29  C   UNL     1       9.764   0.094  24.786  0.00  0.00    +0.000 A 
BRANCH  27  30
ATOM     30  C   UNL     1      10.665   3.474  23.432  0.00  0.00    +0.000 C 
BRANCH  30  31
ATOM     31  N   UNL     1       9.274   3.823  23.407  0.00  0.00    +0.000 N 
ATOM     32  H   UNL     1       8.942   4.513  22.826  0.00  0.00    +0.000 HD
ATOM     33  C   UNL     1       8.533   3.837  24.546  0.00  0.00    +0.000 C 
ATOM     34  O   UNL     1       8.707   4.743  25.355  0.00  0.00    +0.000 OA
ATOM     35  C   UNL     1       7.175   3.175  24.447  0.00  0.00    +0.000 C 
ENDBRANCH  30  31
ENDBRANCH  27  30
ENDBRANCH  21  24
ENDBRANCH   7  21
TORSDOF 7
ENDMDL
MODEL 7
REMARK VINA RESULT:      -7.1      3.233      5.334
REMARK  Name = 
REMARK  9 active torsions:
REMARK  status: ('A' for Active; 'I' for Inactive)
REMARK    1  A    between atoms: N_5  and  S_6
REMARK    2  A    between atoms: S_6  and  C_9
REMARK    3  A    between atoms: C_12  and  C_13
REMARK    4  A    between atoms: C_21  and  S_22
REMARK    5  A    between atoms: S_22  and  C_25
REMARK    6  A    between atoms: C_30  and  C_31
REMARK    7  A    between atoms: C_31  and  N_34
REMARK    8  A    between atoms: C_36  and  C_38
REMARK    9  A    between atoms: C_53  and  C_55
REMARK                            x       y       z     vdW  Elec       q    Type
REMARK                         _______ _______ _______ _____ _____    ______ ____
ROOT
ATOM      1  C   UNL     1       8.334   0.339  23.537  0.00  0.00    +0.000 A 
ATOM      2  C   UNL     1       7.444   0.594  22.253  0.00  0.00    +0.000 A 
ATOM      3  C   UNL     1       7.746   0.096  20.984  0.00  0.00    +0.000 A 
ATOM      4  C   UNL     1       7.459   0.606  19.791  0.00  0.00    +0.000 C 
ATOM      5  C   UNL     1       9.106  -0.533  20.989  0.00  0.00    +0.000 A 
ATOM      6  C   UNL     1       9.963  -1.011  21.966  0.00  0.00    +0.000 A 
ATOM      7  C   UNL     1       9.404  -0.592  23.340  0.00  0.00    +0.000 A 
ENDROOT
BRANCH   1   8
ATOM      8  S   UNL     1       8.660   2.003  24.100  0.00  0.00    +0.000 S 
ATOM      9  O   UNL     1      10.288   1.960  23.959  0.00  0.00    +0.000 OA
ATOM     10  O   UNL     1       8.305   2.845  22.895  0.00  0.00    +0.000 OA
BRANCH   8  13
ATOM     11  C   UNL     1       6.382   1.808  25.882  0.00  0.00    +0.000 C 
ATOM     12  C   UNL     1       7.547   1.611  25.832  0.00  0.00    +0.000 C 
ATOM     13  N   UNL     1       8.451   2.622  25.194  0.00  0.00    +0.000 N 
ATOM     14  C   UNL     1       7.852   3.671  25.709  0.00  0.00    +0.000 C 
ATOM     15  C   UNL     1       6.667   3.637  26.291  0.00  0.00    +0.000 C 
ATOM     16  N   UNL     1       5.787   2.819  26.769  0.00  0.00    +0.000 N 
ATOM     17  C   UNL     1       5.585   1.937  27.795  0.00  0.00    +0.000 C 
ATOM     18  O   UNL     1       6.694   1.486  28.150  0.00  0.00    +0.000 OA
BRANCH  17  19
ATOM     19  C   UNL     1       4.777   2.648  28.879  0.00  0.00    +0.000 C 
ATOM     20 CL   UNL     1       3.112   2.828  28.335  0.00  0.00    +0.000 Cl
ENDBRANCH  17  19
ENDBRANCH   8  13
ENDBRANCH   1   8
BRANCH   7  21
ATOM     21  S   UNL     1       8.997  -2.155  24.136  0.00  0.00    +0.000 S 
ATOM     22  O   UNL     1      10.065  -3.081  23.967  0.00  0.00    +0.000 OA
ATOM     23  O   UNL     1       8.835  -1.786  25.560  0.00  0.00    +0.000 OA
BRANCH  21  24
ATOM     24  C   UNL     1       7.473  -2.750  23.596  0.00  0.00    +0.000 A 
ATOM     25  C   UNL     1       7.085  -3.553  24.823  0.00  0.00    +0.000 A 
ATOM     26  C   UNL     1       6.816  -4.972  24.917  0.00  0.00    +0.000 A 
ATOM     27  C   UNL     1       6.566  -5.577  23.488  0.00  0.00    +0.000 A 
ATOM     28  C   UNL     1       7.087  -5.039  22.246  0.00  0.00    +0.000 A 
ATOM     29  C   UNL     1       7.385  -3.463  22.350  0.00  0.00    +0.000 A 
BRANCH  27  30
ATOM     30  C   UNL     1       5.113  -6.188  23.564  0.00  0.00    +0.000 C 
BRANCH  30  31
ATOM     31  N   UNL     1       4.876  -6.752  24.860  0.00  0.00    +0.000 N 
ATOM     32  H   UNL     1       5.543  -7.286  25.304  0.00  0.00    +0.000 HD
ATOM     33  C   UNL     1       3.653  -7.234  25.204  0.00  0.00    +0.000 C 
ATOM     34  O   UNL     1       3.275  -8.295  24.717  0.00  0.00    +0.000 OA
ATOM     35  C   UNL     1       3.152  -6.821  26.573  0.00  0.00    +0.000 C 
ENDBRANCH  30  31
ENDBRANCH  27  30
ENDBRANCH  21  24
ENDBRANCH   7  21
TORSDOF 7
ENDMDL
MODEL 8
REMARK VINA RESULT:      -7.1      3.787      5.740
REMARK  Name = 
REMARK  9 active torsions:
REMARK  status: ('A' for Active; 'I' for Inactive)
REMARK    1  A    between atoms: N_5  and  S_6
REMARK    2  A    between atoms: S_6  and  C_9
REMARK    3  A    between atoms: C_12  and  C_13
REMARK    4  A    between atoms: C_21  and  S_22
REMARK    5  A    between atoms: S_22  and  C_25
REMARK    6  A    between atoms: C_30  and  C_31
REMARK    7  A    between atoms: C_31  and  N_34
REMARK    8  A    between atoms: C_36  and  C_38
REMARK    9  A    between atoms: C_53  and  C_55
REMARK                            x       y       z     vdW  Elec       q    Type
REMARK                         _______ _______ _______ _____ _____    ______ ____
ROOT
ATOM      1  C   UNL     1       7.920   2.129  23.521  0.00  0.00    +0.000 A 
ATOM      2  C   UNL     1       6.802   1.764  22.461  0.00  0.00    +0.000 A 
ATOM      3  C   UNL     1       7.052   1.090  21.265  0.00  0.00    +0.000 A 
ATOM      4  C   UNL     1       6.412   1.171  20.104  0.00  0.00    +0.000 C 
ATOM      5  C   UNL     1       8.529   0.944  21.056  0.00  0.00    +0.000 A 
ATOM      6  C   UNL     1       9.648   1.018  21.869  0.00  0.00    +0.000 A 
ATOM      7  C   UNL     1       9.206   1.565  23.241  0.00  0.00    +0.000 A 
ENDROOT
BRANCH   1   8
ATOM      8  S   UNL     1       7.712   3.895  23.689  0.00  0.00    +0.000 S 
ATOM      9  O   UNL     1       9.282   4.272  23.940  0.00  0.00    +0.000 OA
ATOM     10  O   UNL     1       7.547   4.355  22.258  0.00  0.00    +0.000 OA
BRANCH   8  13
ATOM     11  C   UNL     1       7.115   3.410  26.484  0.00  0.00    +0.000 C 
ATOM     12  C   UNL     1       7.709   4.142  25.769  0.00  0.00    +0.000 C 
ATOM     13  N   UNL     1       7.072   4.635  24.506  0.00  0.00    +0.000 N 
ATOM     14  C   UNL     1       5.886   4.838  25.032  0.00  0.00    +0.000 C 
ATOM     15  C   UNL     1       5.508   4.378  26.210  0.00  0.00    +0.000 C 
ATOM     16  N   UNL     1       5.970   3.850  27.296  0.00  0.00    +0.000 N 
ATOM     17  C   UNL     1       6.738   4.141  28.391  0.00  0.00    +0.000 C 
ATOM     18  O   UNL     1       7.555   5.031  28.072  0.00  0.00    +0.000 OA
BRANCH  17  19
ATOM     19  C   UNL     1       5.802   4.479  29.549  0.00  0.00    +0.000 C 
ATOM     20 CL   UNL     1       4.691   3.137  29.806  0.00  0.00    +0.000 Cl
ENDBRANCH  17  19
ENDBRANCH   8  13
ENDBRANCH   1   8
BRANCH   7  21
ATOM     21  S   UNL     1       9.526   0.201  24.373  0.00  0.00    +0.000 S 
ATOM     22  O   UNL     1      10.888   0.218  24.785  0.00  0.00    +0.000 OA
ATOM     23  O   UNL     1       8.623   0.479  25.513  0.00  0.00    +0.000 OA
BRANCH  21  24
ATOM     24  C   UNL     1       9.026  -1.301  23.694  0.00  0.00    +0.000 A 
ATOM     25  C   UNL     1       7.678  -1.433  24.376  0.00  0.00    +0.000 A 
ATOM     26  C   UNL     1       7.220  -2.481  25.262  0.00  0.00    +0.000 A 
ATOM     27  C   UNL     1       8.150  -3.743  25.142  0.00  0.00    +0.000 A 
ATOM     28  C   UNL     1       9.541  -3.724  24.731  0.00  0.00    +0.000 A 
ATOM     29  C   UNL     1       9.879  -2.454  23.805  0.00  0.00    +0.000 A 
BRANCH  27  30
ATOM     30  C   UNL     1       7.184  -4.908  24.692  0.00  0.00    +0.000 C 
BRANCH  30  31
ATOM     31  N   UNL     1       7.499  -5.328  23.357  0.00  0.00    +0.000 N 
ATOM     32  H   UNL     1       8.410  -5.460  23.076  0.00  0.00    +0.000 HD
ATOM     33  C   UNL     1       6.790  -4.872  22.292  0.00  0.00    +0.000 C 
ATOM     34  O   UNL     1       6.953  -3.714  21.923  0.00  0.00    +0.000 OA
ATOM     35  C   UNL     1       6.382  -5.926  21.283  0.00  0.00    +0.000 C 
ENDBRANCH  30  31
ENDBRANCH  27  30
ENDBRANCH  21  24
ENDBRANCH   7  21
TORSDOF 7
ENDMDL
MODEL 9
REMARK VINA RESULT:      -7.0      3.059      7.248
REMARK  Name = 
REMARK  9 active torsions:
REMARK  status: ('A' for Active; 'I' for Inactive)
REMARK    1  A    between atoms: N_5  and  S_6
REMARK    2  A    between atoms: S_6  and  C_9
REMARK    3  A    between atoms: C_12  and  C_13
REMARK    4  A    between atoms: C_21  and  S_22
REMARK    5  A    between atoms: S_22  and  C_25
REMARK    6  A    between atoms: C_30  and  C_31
REMARK    7  A    between atoms: C_31  and  N_34
REMARK    8  A    between atoms: C_36  and  C_38
REMARK    9  A    between atoms: C_53  and  C_55
REMARK                            x       y       z     vdW  Elec       q    Type
REMARK                         _______ _______ _______ _____ _____    ______ ____
ROOT
ATOM      1  C   UNL     1       7.484  -3.059  23.796  0.00  0.00    +0.000 A 
ATOM      2  C   UNL     1       7.666  -4.559  23.323  0.00  0.00    +0.000 A 
ATOM      3  C   UNL     1       7.076  -5.091  22.176  0.00  0.00    +0.000 A 
ATOM      4  C   UNL     1       6.691  -6.338  21.930  0.00  0.00    +0.000 C 
ATOM      5  C   UNL     1       6.113  -4.104  21.588  0.00  0.00    +0.000 A 
ATOM      6  C   UNL     1       5.913  -2.739  21.705  0.00  0.00    +0.000 A 
ATOM      7  C   UNL     1       6.792  -2.224  22.862  0.00  0.00    +0.000 A 
ENDROOT
BRANCH   1   8
ATOM      8  S   UNL     1       6.878  -3.266  25.464  0.00  0.00    +0.000 S 
ATOM      9  O   UNL     1       5.350  -3.706  25.082  0.00  0.00    +0.000 OA
ATOM     10  O   UNL     1       7.453  -4.605  25.870  0.00  0.00    +0.000 OA
BRANCH   8  13
ATOM     11  C   UNL     1       5.284  -0.854  25.664  0.00  0.00    +0.000 C 
ATOM     12  C   UNL     1       5.389  -1.943  26.113  0.00  0.00    +0.000 C 
ATOM     13  N   UNL     1       6.744  -2.482  26.459  0.00  0.00    +0.000 N 
ATOM     14  C   UNL     1       7.194  -1.366  26.985  0.00  0.00    +0.000 C 
ATOM     15  C   UNL     1       6.607  -0.192  26.848  0.00  0.00    +0.000 C 
ATOM     16  N   UNL     1       5.502   0.359  26.466  0.00  0.00    +0.000 N 
ATOM     17  C   UNL     1       4.184   0.480  26.814  0.00  0.00    +0.000 C 
ATOM     18  O   UNL     1       3.851  -0.543  27.450  0.00  0.00    +0.000 OA
BRANCH  17  19
ATOM     19  C   UNL     1       4.008   1.808  27.547  0.00  0.00    +0.000 C 
ATOM     20 CL   UNL     1       4.891   3.066  26.687  0.00  0.00    +0.000 Cl
ENDBRANCH  17  19
ENDBRANCH   8  13
ENDBRANCH   1   8
BRANCH   7  21
ATOM     21  S   UNL     1       7.964  -1.121  22.055  0.00  0.00    +0.000 S 
ATOM     22  O   UNL     1       9.194  -1.800  21.825  0.00  0.00    +0.000 OA
ATOM     23  O   UNL     1       7.299  -0.783  20.777  0.00  0.00    +0.000 OA
BRANCH  21  24
ATOM     24  C   UNL     1       8.139   0.351  22.933  0.00  0.00    +0.000 A 
ATOM     25  C   UNL     1       8.756   1.205  21.842  0.00  0.00    +0.000 A 
ATOM     26  C   UNL     1      10.041   1.869  21.842  0.00  0.00    +0.000 A 
ATOM     27  C   UNL     1      10.612   1.957  23.304  0.00  0.00    +0.000 A 
ATOM     28  C   UNL     1      10.287   1.048  24.387  0.00  0.00    +0.000 A 
ATOM     29  C   UNL     1       8.850   0.357  24.184  0.00  0.00    +0.000 A 
BRANCH  27  30
ATOM     30  C   UNL     1      10.797   3.502  23.567  0.00  0.00    +0.000 C 
BRANCH  30  31
ATOM     31  N   UNL     1       9.555   4.192  23.375  0.00  0.00    +0.000 N 
ATOM     32  H   UNL     1       9.508   5.009  22.869  0.00  0.00    +0.000 HD
ATOM     33  C   UNL     1       8.627   4.258  24.367  0.00  0.00    +0.000 C 
ATOM     34  O   UNL     1       8.840   4.987  25.329  0.00  0.00    +0.000 OA
ATOM     35  C   UNL     1       7.200   3.977  23.943  0.00  0.00    +0.000 C 
ENDBRANCH  30  31
ENDBRANCH  27  30
ENDBRANCH  21  24
ENDBRANCH   7  21
TORSDOF 7
ENDMDL
