MODEL 1
REMARK VINA RESULT:      -8.6      0.000      0.000
REMARK  Name = 
REMARK  3 active torsions:
REMARK  status: ('A' for Active; 'I' for Inactive)
REMARK    1  A    between atoms: C_10  and  C_11
REMARK    2  A    between atoms: C_11  and  C_14
REMARK    3  A    between atoms: C_30  and  C_32
REMARK                            x       y       z     vdW  Elec       q    Type
REMARK                         _______ _______ _______ _____ _____    ______ ____
ROOT
ATOM      1  C   UNL     1       8.451  -3.170  23.313  0.00  0.00    +0.000 C 
ATOM      2  O   UNL     1       7.810  -3.624  22.340  0.00  0.00    +0.000 OA
ATOM      3  N   UNL     1       9.287  -2.133  23.159  0.00  0.00    +0.000 N 
ATOM      4  C   UNL     1       9.485  -1.158  24.225  0.00  0.00    +0.000 C 
ATOM      5  C   UNL     1      10.192   0.045  23.870  0.00  0.00    +0.000 A 
ATOM      6  C   UNL     1       9.676   1.068  24.894  0.00  0.00    +0.000 A 
ATOM      7  C   UNL     1       9.141   2.427  24.659  0.00  0.00    +0.000 A 
ATOM      8  C   UNL     1       9.328   2.668  23.194  0.00  0.00    +0.000 A 
ATOM      9  C   UNL     1       9.815   2.000  22.059  0.00  0.00    +0.000 A 
ATOM     10  C   UNL     1      10.057   0.558  22.493  0.00  0.00    +0.000 A 
ATOM     11  C   UNL     1       9.157  -0.363  21.607  0.00  0.00    +0.000 C 
ATOM     12  C   UNL     1       9.683  -1.733  21.827  0.00  0.00    +0.000 C 
ENDROOT
BRANCH  11  13
ATOM     13  C   UNL     1       7.805   0.016  21.679  0.00  0.00    +0.000 A 
ATOM     14  C   UNL     1       7.004  -0.753  20.651  0.00  0.00    +0.000 A 
ATOM     15  C   UNL     1       6.013  -0.236  19.717  0.00  0.00    +0.000 A 
ATOM     16  C   UNL     1       5.883   1.249  20.032  0.00  0.00    +0.000 A 
ATOM     17  C   UNL     1       6.456   2.204  20.857  0.00  0.00    +0.000 A 
ATOM     18  C   UNL     1       7.254   1.366  21.937  0.00  0.00    +0.000 A 
ENDBRANCH  11  13
BRANCH   1  19
ATOM     19  C   UNL     1       8.798  -4.153  24.417  0.00  0.00    +0.000 C 
BRANCH  19  26
ATOM     20  C   UNL     1       4.390  -5.922  26.740  0.00  0.00    +0.000 A 
ATOM     21  N   UNL     1       5.740  -6.530  26.663  0.00  0.00    +0.000 NA
ATOM     22  C   UNL     1       6.538  -5.674  26.182  0.00  0.00    +0.000 A 
ATOM     23  C   UNL     1       6.555  -4.338  25.395  0.00  0.00    +0.000 A 
ATOM     24  C   UNL     1       5.305  -3.601  25.574  0.00  0.00    +0.000 A 
ATOM     25  C   UNL     1       4.363  -4.525  26.426  0.00  0.00    +0.000 A 
ATOM     26  C   UNL     1       7.988  -3.750  25.634  0.00  0.00    +0.000 C 
ATOM     27  C   UNL     1       8.470  -4.563  26.826  0.00  0.00    +0.000 C 
ATOM     28  N   UNL     1       7.680  -5.686  27.015  0.00  0.00    +0.000 N 
ATOM     29  H   UNL     1       7.336  -5.638  27.913  0.00  0.00    +0.000 HD
ENDBRANCH  19  26
ENDBRANCH   1  19
TORSDOF 3
ENDMDL
MODEL 2
REMARK VINA RESULT:      -8.2      1.760      2.808
REMARK  Name = 
REMARK  3 active torsions:
REMARK  status: ('A' for Active; 'I' for Inactive)
REMARK    1  A    between atoms: C_10  and  C_11
REMARK    2  A    between atoms: C_11  and  C_14
REMARK    3  A    between atoms: C_30  and  C_32
REMARK                            x       y       z     vdW  Elec       q    Type
REMARK                         _______ _______ _______ _____ _____    ______ ____
ROOT
ATOM      1  C   UNL     1       9.339  -1.323  22.834  0.00  0.00    +0.000 C 
ATOM      2  O   UNL     1       9.688  -1.746  21.709  0.00  0.00    +0.000 OA
ATOM      3  N   UNL     1       9.100  -0.019  23.032  0.00  0.00    +0.000 N 
ATOM      4  C   UNL     1       8.085   0.426  23.979  0.00  0.00    +0.000 C 
ATOM      5  C   UNL     1       7.728   1.820  23.928  0.00  0.00    +0.000 A 
ATOM      6  C   UNL     1       6.295   1.834  24.483  0.00  0.00    +0.000 A 
ATOM      7  C   UNL     1       5.085   2.465  23.912  0.00  0.00    +0.000 A 
ATOM      8  C   UNL     1       5.571   3.221  22.715  0.00  0.00    +0.000 A 
ATOM      9  C   UNL     1       6.768   3.461  22.023  0.00  0.00    +0.000 A 
ATOM     10  C   UNL     1       7.800   2.515  22.628  0.00  0.00    +0.000 A 
ATOM     11  C   UNL     1       8.314   1.579  21.487  0.00  0.00    +0.000 C 
ATOM     12  C   UNL     1       9.534   0.940  22.041  0.00  0.00    +0.000 C 
ENDROOT
BRANCH  11  13
ATOM     13  C   UNL     1       7.253   0.907  20.856  0.00  0.00    +0.000 A 
ATOM     14  C   UNL     1       7.795   0.013  19.761  0.00  0.00    +0.000 A 
ATOM     15  C   UNL     1       7.312  -0.125  18.394  0.00  0.00    +0.000 A 
ATOM     16  C   UNL     1       6.084   0.772  18.298  0.00  0.00    +0.000 A 
ATOM     17  C   UNL     1       5.380   1.680  19.074  0.00  0.00    +0.000 A 
ATOM     18  C   UNL     1       5.904   1.431  20.547  0.00  0.00    +0.000 A 
ENDBRANCH  11  13
BRANCH   1  19
ATOM     19  C   UNL     1       9.836  -2.105  24.037  0.00  0.00    +0.000 C 
BRANCH  19  26
ATOM     20  C   UNL     1       6.571  -4.491  27.444  0.00  0.00    +0.000 A 
ATOM     21  N   UNL     1       6.363  -3.287  26.605  0.00  0.00    +0.000 NA
ATOM     22  C   UNL     1       7.334  -3.188  25.798  0.00  0.00    +0.000 A 
ATOM     23  C   UNL     1       8.778  -3.705  25.568  0.00  0.00    +0.000 A 
ATOM     24  C   UNL     1       8.993  -4.989  26.233  0.00  0.00    +0.000 A 
ATOM     25  C   UNL     1       7.680  -5.300  27.036  0.00  0.00    +0.000 A 
ATOM     26  C   UNL     1       9.071  -3.414  24.056  0.00  0.00    +0.000 C 
ATOM     27  C   UNL     1       7.676  -3.166  23.504  0.00  0.00    +0.000 C 
ATOM     28  N   UNL     1       6.768  -2.939  24.527  0.00  0.00    +0.000 N 
ATOM     29  H   UNL     1       6.069  -3.594  24.431  0.00  0.00    +0.000 HD
ENDBRANCH  19  26
ENDBRANCH   1  19
TORSDOF 3
ENDMDL
MODEL 3
REMARK VINA RESULT:      -8.1      1.993      3.077
REMARK  Name = 
REMARK  3 active torsions:
REMARK  status: ('A' for Active; 'I' for Inactive)
REMARK    1  A    between atoms: C_10  and  C_11
REMARK    2  A    between atoms: C_11  and  C_14
REMARK    3  A    between atoms: C_30  and  C_32
REMARK                            x       y       z     vdW  Elec       q    Type
REMARK                         _______ _______ _______ _____ _____    ______ ____
ROOT
ATOM      1  C   UNL     1       5.154  -3.860  23.635  0.00  0.00    +0.000 C 
ATOM      2  O   UNL     1       4.657  -3.967  22.492  0.00  0.00    +0.000 OA
ATOM      3  N   UNL     1       6.480  -3.750  23.797  0.00  0.00    +0.000 N 
ATOM      4  C   UNL     1       7.043  -2.959  24.885  0.00  0.00    +0.000 C 
ATOM      5  C   UNL     1       8.457  -2.693  24.818  0.00  0.00    +0.000 A 
ATOM      6  C   UNL     1       8.605  -1.391  25.621  0.00  0.00    +0.000 A 
ATOM      7  C   UNL     1       9.300  -0.141  25.243  0.00  0.00    +0.000 A 
ATOM      8  C   UNL     1       9.963  -0.448  23.936  0.00  0.00    +0.000 A 
ATOM      9  C   UNL     1      10.080  -1.511  23.026  0.00  0.00    +0.000 A 
ATOM     10  C   UNL     1       9.086  -2.571  23.489  0.00  0.00    +0.000 A 
ATOM     11  C   UNL     1       8.064  -2.802  22.330  0.00  0.00    +0.000 C 
ATOM     12  C   UNL     1       7.358  -4.057  22.691  0.00  0.00    +0.000 C 
ENDROOT
BRANCH  11  13
ATOM     13  C   UNL     1       7.448  -1.601  21.940  0.00  0.00    +0.000 A 
ATOM     14  C   UNL     1       6.286  -1.899  21.017  0.00  0.00    +0.000 A 
ATOM     15  C   UNL     1       5.958  -1.256  19.752  0.00  0.00    +0.000 A 
ATOM     16  C   UNL     1       6.992  -0.152  19.569  0.00  0.00    +0.000 A 
ATOM     17  C   UNL     1       8.129   0.339  20.192  0.00  0.00    +0.000 A 
ATOM     18  C   UNL     1       8.096  -0.305  21.638  0.00  0.00    +0.000 A 
ENDBRANCH  11  13
BRANCH   1  19
ATOM     19  C   UNL     1       4.391  -4.517  24.772  0.00  0.00    +0.000 C 
BRANCH  19  26
ATOM     20  C   UNL     1       5.123  -6.851  29.459  0.00  0.00    +0.000 A 
ATOM     21  N   UNL     1       3.958  -6.891  28.543  0.00  0.00    +0.000 NA
ATOM     22  C   UNL     1       4.291  -6.350  27.448  0.00  0.00    +0.000 A 
ATOM     23  C   UNL     1       5.370  -5.424  26.831  0.00  0.00    +0.000 A 
ATOM     24  C   UNL     1       6.614  -5.475  27.597  0.00  0.00    +0.000 A 
ATOM     25  C   UNL     1       6.330  -6.386  28.845  0.00  0.00    +0.000 A 
ATOM     26  C   UNL     1       5.256  -5.651  25.284  0.00  0.00    +0.000 C 
ATOM     27  C   UNL     1       4.454  -6.941  25.211  0.00  0.00    +0.000 C 
ATOM     28  N   UNL     1       3.849  -7.221  26.426  0.00  0.00    +0.000 N 
ATOM     29  H   UNL     1       4.152  -8.095  26.694  0.00  0.00    +0.000 HD
ENDBRANCH  19  26
ENDBRANCH   1  19
TORSDOF 3
ENDMDL
MODEL 4
REMARK VINA RESULT:      -8.0      1.798      2.322
REMARK  Name = 
REMARK  3 active torsions:
REMARK  status: ('A' for Active; 'I' for Inactive)
REMARK    1  A    between atoms: C_10  and  C_11
REMARK    2  A    between atoms: C_11  and  C_14
REMARK    3  A    between atoms: C_30  and  C_32
REMARK                            x       y       z     vdW  Elec       q    Type
REMARK                         _______ _______ _______ _____ _____    ______ ____
ROOT
ATOM      1  C   UNL     1       7.845  -3.876  24.036  0.00  0.00    +0.000 C 
ATOM      2  O   UNL     1       7.949  -4.148  22.819  0.00  0.00    +0.000 OA
ATOM      3  N   UNL     1       8.568  -2.888  24.581  0.00  0.00    +0.000 N 
ATOM      4  C   UNL     1       8.041  -2.085  25.677  0.00  0.00    +0.000 C 
ATOM      5  C   UNL     1       8.780  -0.895  26.013  0.00  0.00    +0.000 A 
ATOM      6  C   UNL     1       7.714   0.011  26.649  0.00  0.00    +0.000 A 
ATOM      7  C   UNL     1       7.395   1.422  26.344  0.00  0.00    +0.000 A 
ATOM      8  C   UNL     1       8.434   1.849  25.354  0.00  0.00    +0.000 A 
ATOM      9  C   UNL     1       9.534   1.310  24.668  0.00  0.00    +0.000 A 
ATOM     10  C   UNL     1       9.502  -0.190  24.936  0.00  0.00    +0.000 A 
ATOM     11  C   UNL     1       9.362  -0.917  23.560  0.00  0.00    +0.000 C 
ATOM     12  C   UNL     1       9.684  -2.338  23.846  0.00  0.00    +0.000 C 
ENDROOT
BRANCH  11  13
ATOM     13  C   UNL     1       8.240  -0.460  22.849  0.00  0.00    +0.000 A 
ATOM     14  C   UNL     1       8.246  -1.046  21.453  0.00  0.00    +0.000 A 
ATOM     15  C   UNL     1       8.019  -0.356  20.190  0.00  0.00    +0.000 A 
ATOM     16  C   UNL     1       7.695   1.086  20.559  0.00  0.00    +0.000 A 
ATOM     17  C   UNL     1       7.628   1.896  21.682  0.00  0.00    +0.000 A 
ATOM     18  C   UNL     1       7.619   0.883  22.899  0.00  0.00    +0.000 A 
ENDBRANCH  11  13
BRANCH   1  19
ATOM     19  C   UNL     1       7.471  -5.023  24.959  0.00  0.00    +0.000 C 
BRANCH  19  26
ATOM     20  C   UNL     1       2.724  -7.086  23.880  0.00  0.00    +0.000 A 
ATOM     21  N   UNL     1       3.873  -7.666  24.616  0.00  0.00    +0.000 NA
ATOM     22  C   UNL     1       4.730  -6.753  24.805  0.00  0.00    +0.000 A 
ATOM     23  C   UNL     1       5.127  -5.340  24.305  0.00  0.00    +0.000 A 
ATOM     24  C   UNL     1       3.983  -4.643  23.721  0.00  0.00    +0.000 A 
ATOM     25  C   UNL     1       2.790  -5.665  23.725  0.00  0.00    +0.000 A 
ATOM     26  C   UNL     1       6.054  -4.763  25.430  0.00  0.00    +0.000 C 
ATOM     27  C   UNL     1       5.755  -5.693  26.596  0.00  0.00    +0.000 C 
ATOM     28  N   UNL     1       5.107  -6.841  26.164  0.00  0.00    +0.000 N 
ATOM     29  H   UNL     1       4.278  -6.893  26.652  0.00  0.00    +0.000 HD
ENDBRANCH  19  26
ENDBRANCH   1  19
TORSDOF 3
ENDMDL
MODEL 5
REMARK VINA RESULT:      -7.9      1.379      2.088
REMARK  Name = 
REMARK  3 active torsions:
REMARK  status: ('A' for Active; 'I' for Inactive)
REMARK    1  A    between atoms: C_10  and  C_11
REMARK    2  A    between atoms: C_11  and  C_14
REMARK    3  A    between atoms: C_30  and  C_32
REMARK                            x       y       z     vdW  Elec       q    Type
REMARK                         _______ _______ _______ _____ _____    ______ ____
ROOT
ATOM      1  C   UNL     1       6.894  -2.755  23.649  0.00  0.00    +0.000 C 
ATOM      2  O   UNL     1       5.700  -2.630  23.298  0.00  0.00    +0.000 OA
ATOM      3  N   UNL     1       7.876  -2.151  22.966  0.00  0.00    +0.000 N 
ATOM      4  C   UNL     1       9.075  -1.665  23.638  0.00  0.00    +0.000 C 
ATOM      5  C   UNL     1       9.940  -0.809  22.868  0.00  0.00    +0.000 A 
ATOM      6  C   UNL     1      10.656   0.022  23.944  0.00  0.00    +0.000 A 
ATOM      7  C   UNL     1      10.825   1.489  24.023  0.00  0.00    +0.000 A 
ATOM      8  C   UNL     1      10.255   2.014  22.742  0.00  0.00    +0.000 A 
ATOM      9  C   UNL     1       9.630   1.534  21.581  0.00  0.00    +0.000 A 
ATOM     10  C   UNL     1       9.333   0.061  21.842  0.00  0.00    +0.000 A 
ATOM     11  C   UNL     1       7.787  -0.138  21.740  0.00  0.00    +0.000 C 
ATOM     12  C   UNL     1       7.598  -1.608  21.655  0.00  0.00    +0.000 C 
ENDROOT
BRANCH  11  13
ATOM     13  C   UNL     1       7.099   0.726  22.609  0.00  0.00    +0.000 A 
ATOM     14  C   UNL     1       6.709   1.988  21.870  0.00  0.00    +0.000 A 
ATOM     15  C   UNL     1       6.864   3.368  22.310  0.00  0.00    +0.000 A 
ATOM     16  C   UNL     1       7.440   3.291  23.718  0.00  0.00    +0.000 A 
ATOM     17  C   UNL     1       7.896   2.341  24.618  0.00  0.00    +0.000 A 
ATOM     18  C   UNL     1       7.361   0.965  24.046  0.00  0.00    +0.000 A 
ENDBRANCH  11  13
BRANCH   1  19
ATOM     19  C   UNL     1       7.263  -4.049  24.352  0.00  0.00    +0.000 C 
BRANCH  19  26
ATOM     20  C   UNL     1       5.022  -5.931  28.756  0.00  0.00    +0.000 A 
ATOM     21  N   UNL     1       6.020  -6.551  27.852  0.00  0.00    +0.000 NA
ATOM     22  C   UNL     1       6.421  -5.671  27.035  0.00  0.00    +0.000 A 
ATOM     23  C   UNL     1       6.043  -4.277  26.469  0.00  0.00    +0.000 A 
ATOM     24  C   UNL     1       5.193  -3.539  27.402  0.00  0.00    +0.000 A 
ATOM     25  C   UNL     1       4.894  -4.514  28.597  0.00  0.00    +0.000 A 
ATOM     26  C   UNL     1       7.366  -3.731  25.831  0.00  0.00    +0.000 C 
ATOM     27  C   UNL     1       8.416  -4.642  26.449  0.00  0.00    +0.000 C 
ATOM     28  N   UNL     1       7.831  -5.765  27.013  0.00  0.00    +0.000 N 
ATOM     29  H   UNL     1       8.095  -5.783  27.939  0.00  0.00    +0.000 HD
ENDBRANCH  19  26
ENDBRANCH   1  19
TORSDOF 3
ENDMDL
MODEL 6
REMARK VINA RESULT:      -7.9      2.093      7.317
REMARK  Name = 
REMARK  3 active torsions:
REMARK  status: ('A' for Active; 'I' for Inactive)
REMARK    1  A    between atoms: C_10  and  C_11
REMARK    2  A    between atoms: C_11  and  C_14
REMARK    3  A    between atoms: C_30  and  C_32
REMARK                            x       y       z     vdW  Elec       q    Type
REMARK                         _______ _______ _______ _____ _____    ______ ____
ROOT
ATOM      1  C   UNL     1       6.557  -2.430  22.419  0.00  0.00    +0.000 C 
ATOM      2  O   UNL     1       5.551  -2.629  21.703  0.00  0.00    +0.000 OA
ATOM      3  N   UNL     1       6.458  -2.432  23.755  0.00  0.00    +0.000 N 
ATOM      4  C   UNL     1       7.553  -2.906  24.593  0.00  0.00    +0.000 C 
ATOM      5  C   UNL     1       7.253  -3.110  25.986  0.00  0.00    +0.000 A 
ATOM      6  C   UNL     1       8.282  -4.168  26.414  0.00  0.00    +0.000 A 
ATOM      7  C   UNL     1       8.061  -5.436  27.142  0.00  0.00    +0.000 A 
ATOM      8  C   UNL     1       6.610  -5.424  27.508  0.00  0.00    +0.000 A 
ATOM      9  C   UNL     1       5.478  -4.610  27.342  0.00  0.00    +0.000 A 
ATOM     10  C   UNL     1       5.885  -3.520  26.356  0.00  0.00    +0.000 A 
ATOM     11  C   UNL     1       4.945  -3.629  25.112  0.00  0.00    +0.000 C 
ATOM     12  C   UNL     1       5.151  -2.360  24.370  0.00  0.00    +0.000 C 
ENDROOT
BRANCH  11  13
ATOM     13  C   UNL     1       4.978  -4.918  24.554  0.00  0.00    +0.000 A 
ATOM     14  C   UNL     1       4.025  -4.990  23.381  0.00  0.00    +0.000 A 
ATOM     15  C   UNL     1       3.044  -6.025  23.085  0.00  0.00    +0.000 A 
ATOM     16  C   UNL     1       3.218  -7.081  24.170  0.00  0.00    +0.000 A 
ATOM     17  C   UNL     1       3.951  -7.290  25.328  0.00  0.00    +0.000 A 
ATOM     18  C   UNL     1       5.107  -6.211  25.263  0.00  0.00    +0.000 A 
ENDBRANCH  11  13
BRANCH   1  19
ATOM     19  C   UNL     1       7.649  -1.556  21.828  0.00  0.00    +0.000 C 
BRANCH  19  26
ATOM     20  C   UNL     1      10.469   2.619  23.430  0.00  0.00    +0.000 A 
ATOM     21  N   UNL     1      10.401   1.966  22.101  0.00  0.00    +0.000 NA
ATOM     22  C   UNL     1       9.453   1.127  22.116  0.00  0.00    +0.000 A 
ATOM     23  C   UNL     1       8.536   0.349  23.095  0.00  0.00    +0.000 A 
ATOM     24  C   UNL     1       8.422   1.041  24.378  0.00  0.00    +0.000 A 
ATOM     25  C   UNL     1       9.387   2.278  24.303  0.00  0.00    +0.000 A 
ATOM     26  C   UNL     1       7.326  -0.127  22.219  0.00  0.00    +0.000 C 
ATOM     27  C   UNL     1       7.461   0.753  20.987  0.00  0.00    +0.000 C 
ATOM     28  N   UNL     1       8.715   1.343  20.930  0.00  0.00    +0.000 N 
ATOM     29  H   UNL     1       8.574   2.295  20.893  0.00  0.00    +0.000 HD
ENDBRANCH  19  26
ENDBRANCH   1  19
TORSDOF 3
ENDMDL
MODEL 7
REMARK VINA RESULT:      -7.6      2.701      7.597
REMARK  Name = 
REMARK  3 active torsions:
REMARK  status: ('A' for Active; 'I' for Inactive)
REMARK    1  A    between atoms: C_10  and  C_11
REMARK    2  A    between atoms: C_11  and  C_14
REMARK    3  A    between atoms: C_30  and  C_32
REMARK                            x       y       z     vdW  Elec       q    Type
REMARK                         _______ _______ _______ _____ _____    ______ ____
ROOT
ATOM      1  C   UNL     1       7.702  -0.047  23.848  0.00  0.00    +0.000 C 
ATOM      2  O   UNL     1       6.935   0.300  22.923  0.00  0.00    +0.000 OA
ATOM      3  N   UNL     1       7.266  -0.838  24.838  0.00  0.00    +0.000 N 
ATOM      4  C   UNL     1       8.152  -1.802  25.480  0.00  0.00    +0.000 C 
ATOM      5  C   UNL     1       7.528  -2.772  26.341  0.00  0.00    +0.000 A 
ATOM      6  C   UNL     1       8.510  -3.953  26.306  0.00  0.00    +0.000 A 
ATOM      7  C   UNL     1       8.232  -5.383  26.050  0.00  0.00    +0.000 A 
ATOM      8  C   UNL     1       6.741  -5.477  25.958  0.00  0.00    +0.000 A 
ATOM      9  C   UNL     1       5.617  -4.639  26.021  0.00  0.00    +0.000 A 
ATOM     10  C   UNL     1       6.156  -3.213  26.024  0.00  0.00    +0.000 A 
ATOM     11  C   UNL     1       5.579  -2.483  24.768  0.00  0.00    +0.000 C 
ATOM     12  C   UNL     1       5.846  -1.043  25.009  0.00  0.00    +0.000 C 
ENDROOT
BRANCH  11  13
ATOM     13  C   UNL     1       5.876  -3.183  23.586  0.00  0.00    +0.000 A 
ATOM     14  C   UNL     1       4.714  -4.082  23.219  0.00  0.00    +0.000 A 
ATOM     15  C   UNL     1       4.755  -5.481  22.816  0.00  0.00    +0.000 A 
ATOM     16  C   UNL     1       6.232  -5.853  22.763  0.00  0.00    +0.000 A 
ATOM     17  C   UNL     1       7.469  -5.292  23.040  0.00  0.00    +0.000 A 
ATOM     18  C   UNL     1       7.180  -3.740  23.164  0.00  0.00    +0.000 A 
ENDBRANCH  11  13
BRANCH   1  19
ATOM     19  C   UNL     1       8.820   0.918  24.201  0.00  0.00    +0.000 C 
BRANCH  19  26
ATOM     20  C   UNL     1      11.321   5.544  23.652  0.00  0.00    +0.000 A 
ATOM     21  N   UNL     1      11.746   4.176  23.269  0.00  0.00    +0.000 NA
ATOM     22  C   UNL     1      10.758   3.396  23.406  0.00  0.00    +0.000 A 
ATOM     23  C   UNL     1       9.368   3.307  24.086  0.00  0.00    +0.000 A 
ATOM     24  C   UNL     1       8.812   4.636  24.332  0.00  0.00    +0.000 A 
ATOM     25  C   UNL     1       9.917   5.667  23.903  0.00  0.00    +0.000 A 
ATOM     26  C   UNL     1       8.628   2.147  23.335  0.00  0.00    +0.000 C 
ATOM     27  C   UNL     1       9.474   1.991  22.081  0.00  0.00    +0.000 C 
ATOM     28  N   UNL     1      10.700   2.622  22.224  0.00  0.00    +0.000 N 
ATOM     29  H   UNL     1      10.773   3.258  21.504  0.00  0.00    +0.000 HD
ENDBRANCH  19  26
ENDBRANCH   1  19
TORSDOF 3
ENDMDL
MODEL 8
REMARK VINA RESULT:      -7.6      2.266      3.057
REMARK  Name = 
REMARK  3 active torsions:
REMARK  status: ('A' for Active; 'I' for Inactive)
REMARK    1  A    between atoms: C_10  and  C_11
REMARK    2  A    between atoms: C_11  and  C_14
REMARK    3  A    between atoms: C_30  and  C_32
REMARK                            x       y       z     vdW  Elec       q    Type
REMARK                         _______ _______ _______ _____ _____    ______ ____
ROOT
ATOM      1  C   UNL     1       6.911  -2.283  21.645  0.00  0.00    +0.000 C 
ATOM      2  O   UNL     1       5.834  -1.865  21.166  0.00  0.00    +0.000 OA
ATOM      3  N   UNL     1       8.037  -1.566  21.526  0.00  0.00    +0.000 N 
ATOM      4  C   UNL     1       9.058  -1.587  22.566  0.00  0.00    +0.000 C 
ATOM      5  C   UNL     1      10.097  -0.595  22.465  0.00  0.00    +0.000 A 
ATOM      6  C   UNL     1      10.563  -0.428  23.920  0.00  0.00    +0.000 A 
ATOM      7  C   UNL     1      10.741   0.816  24.701  0.00  0.00    +0.000 A 
ATOM      8  C   UNL     1      10.495   1.923  23.725  0.00  0.00    +0.000 A 
ATOM      9  C   UNL     1      10.145   2.095  22.376  0.00  0.00    +0.000 A 
ATOM     10  C   UNL     1       9.764   0.710  21.862  0.00  0.00    +0.000 A 
ATOM     11  C   UNL     1       8.279   0.775  21.380  0.00  0.00    +0.000 C 
ATOM     12  C   UNL     1       8.083  -0.467  20.589  0.00  0.00    +0.000 C 
ENDROOT
BRANCH  11  13
ATOM     13  C   UNL     1       7.427   1.239  22.397  0.00  0.00    +0.000 A 
ATOM     14  C   UNL     1       7.228   2.733  22.252  0.00  0.00    +0.000 A 
ATOM     15  C   UNL     1       7.301   3.752  23.290  0.00  0.00    +0.000 A 
ATOM     16  C   UNL     1       7.550   2.999  24.592  0.00  0.00    +0.000 A 
ATOM     17  C   UNL     1       7.783   1.705  25.031  0.00  0.00    +0.000 A 
ATOM     18  C   UNL     1       7.369   0.792  23.806  0.00  0.00    +0.000 A 
ENDBRANCH  11  13
BRANCH   1  19
ATOM     19  C   UNL     1       7.079  -3.790  21.726  0.00  0.00    +0.000 C 
BRANCH  19  26
ATOM     20  C   UNL     1       2.475  -4.907  24.073  0.00  0.00    +0.000 A 
ATOM     21  N   UNL     1       3.236  -5.667  23.053  0.00  0.00    +0.000 NA
ATOM     22  C   UNL     1       4.375  -5.129  22.921  0.00  0.00    +0.000 A 
ATOM     23  C   UNL     1       5.141  -3.818  23.232  0.00  0.00    +0.000 A 
ATOM     24  C   UNL     1       4.536  -3.104  24.355  0.00  0.00    +0.000 A 
ATOM     25  C   UNL     1       3.245  -3.907  24.748  0.00  0.00    +0.000 A 
ATOM     26  C   UNL     1       6.657  -4.204  23.122  0.00  0.00    +0.000 C 
ATOM     27  C   UNL     1       6.602  -5.723  23.180  0.00  0.00    +0.000 C 
ATOM     28  N   UNL     1       5.315  -6.185  22.952  0.00  0.00    +0.000 N 
ATOM     29  H   UNL     1       5.070  -6.717  23.716  0.00  0.00    +0.000 HD
ENDBRANCH  19  26
ENDBRANCH   1  19
TORSDOF 3
ENDMDL
MODEL 9
REMARK VINA RESULT:      -7.4      1.762      2.801
REMARK  Name = 
REMARK  3 active torsions:
REMARK  status: ('A' for Active; 'I' for Inactive)
REMARK    1  A    between atoms: C_10  and  C_11
REMARK    2  A    between atoms: C_11  and  C_14
REMARK    3  A    between atoms: C_30  and  C_32
REMARK                            x       y       z     vdW  Elec       q    Type
REMARK                         _______ _______ _______ _____ _____    ______ ____
ROOT
ATOM      1  C   UNL     1       5.543  -3.056  22.667  0.00  0.00    +0.000 C 
ATOM      2  O   UNL     1       5.438  -3.658  21.576  0.00  0.00    +0.000 OA
ATOM      3  N   UNL     1       6.531  -2.174  22.871  0.00  0.00    +0.000 N 
ATOM      4  C   UNL     1       6.335  -1.003  23.717  0.00  0.00    +0.000 C 
ATOM      5  C   UNL     1       7.360   0.007  23.662  0.00  0.00    +0.000 A 
ATOM      6  C   UNL     1       6.612   1.287  24.064  0.00  0.00    +0.000 A 
ATOM      7  C   UNL     1       6.589   2.600  23.384  0.00  0.00    +0.000 A 
ATOM      8  C   UNL     1       7.573   2.473  22.264  0.00  0.00    +0.000 A 
ATOM      9  C   UNL     1       8.433   1.513  21.707  0.00  0.00    +0.000 A 
ATOM     10  C   UNL     1       8.091   0.195  22.394  0.00  0.00    +0.000 A 
ATOM     11  C   UNL     1       7.628  -0.810  21.291  0.00  0.00    +0.000 C 
ATOM     12  C   UNL     1       7.649  -2.138  21.955  0.00  0.00    +0.000 C 
ENDROOT
BRANCH  11  13
ATOM     13  C   UNL     1       6.564  -0.290  20.536  0.00  0.00    +0.000 A 
ATOM     14  C   UNL     1       6.015  -1.364  19.621  0.00  0.00    +0.000 A 
ATOM     15  C   UNL     1       5.694  -1.257  18.204  0.00  0.00    +0.000 A 
ATOM     16  C   UNL     1       5.955   0.196  17.830  0.00  0.00    +0.000 A 
ATOM     17  C   UNL     1       6.448   1.359  18.403  0.00  0.00    +0.000 A 
ATOM     18  C   UNL     1       6.438   1.067  19.959  0.00  0.00    +0.000 A 
ENDBRANCH  11  13
BRANCH   1  19
ATOM     19  C   UNL     1       5.030  -3.785  23.897  0.00  0.00    +0.000 C 
BRANCH  19  26
ATOM     20  C   UNL     1       9.282  -5.016  26.788  0.00  0.00    +0.000 A 
ATOM     21  N   UNL     1       7.879  -4.780  27.205  0.00  0.00    +0.000 NA
ATOM     22  C   UNL     1       7.159  -4.708  26.165  0.00  0.00    +0.000 A 
ATOM     23  C   UNL     1       7.259  -4.499  24.632  0.00  0.00    +0.000 A 
ATOM     24  C   UNL     1       8.577  -4.885  24.130  0.00  0.00    +0.000 A 
ATOM     25  C   UNL     1       9.439  -5.264  25.387  0.00  0.00    +0.000 A 
ATOM     26  C   UNL     1       5.893  -5.020  24.067  0.00  0.00    +0.000 C 
ATOM     27  C   UNL     1       5.353  -5.828  25.237  0.00  0.00    +0.000 C 
ATOM     28  N   UNL     1       6.034  -5.529  26.407  0.00  0.00    +0.000 N 
ATOM     29  H   UNL     1       6.395  -6.357  26.740  0.00  0.00    +0.000 HD
ENDBRANCH  19  26
ENDBRANCH   1  19
TORSDOF 3
ENDMDL
