MODEL 1
REMARK VINA RESULT:      -8.6      0.000      0.000
REMARK  Name = 
REMARK  4 active torsions:
REMARK  status: ('A' for Active; 'I' for Inactive)
REMARK    1  A    between atoms: C_6  and  N_7
REMARK    2  A    between atoms: N_22  and  C_23
REMARK    3  A    between atoms: C_23  and  C_26
REMARK    4  A    between atoms: C_33  and  C_34
REMARK                            x       y       z     vdW  Elec       q    Type
REMARK                         _______ _______ _______ _____ _____    ______ ____
ROOT
ATOM      1  N   UNL     1       8.424   1.273  20.939  0.00  0.00    +0.000 N 
ATOM      2  H   UNL     1       8.649   2.163  20.632  0.00  0.00    +0.000 HD
ATOM      3  C   UNL     1       8.639   1.170  22.253  0.00  0.00    +0.000 C 
ATOM      4  O   UNL     1       7.880   1.614  23.106  0.00  0.00    +0.000 OA
ATOM      5  N   UNL     1       9.973   1.386  22.473  0.00  0.00    +0.000 N 
ATOM      6  H   UNL     1      10.062   2.336  22.676  0.00  0.00    +0.000 HD
ATOM      7  C   UNL     1      10.404   0.682  23.505  0.00  0.00    +0.000 C 
ATOM      8  O   UNL     1      11.208   1.104  24.306  0.00  0.00    +0.000 OA
ATOM      9  N   UNL     1       9.798  -0.503  23.660  0.00  0.00    +0.000 N 
ATOM     10  C   UNL     1       9.599  -1.000  25.022  0.00  0.00    +0.000 C 
ATOM     11  C   UNL     1       8.792  -2.328  24.922  0.00  0.00    +0.000 C 
ATOM     12  N   UNL     1       7.885  -2.239  23.910  0.00  0.00    +0.000 NA
ATOM     13  C   UNL     1       8.302  -2.100  22.621  0.00  0.00    +0.000 C 
ATOM     14  C   UNL     1       9.700  -1.449  22.571  0.00  0.00    +0.000 C 
ENDROOT
BRANCH   1  18
ATOM     15  C   UNL     1       5.586   0.422  18.019  0.00  0.00    +0.000 A 
ATOM     16  N   UNL     1       6.907  -0.250  18.147  0.00  0.00    +0.000 NA
ATOM     17  C   UNL     1       7.224  -0.145  19.423  0.00  0.00    +0.000 A 
ATOM     18  C   UNL     1       7.181   0.936  20.511  0.00  0.00    +0.000 A 
ATOM     19  C   UNL     1       5.989   1.774  20.373  0.00  0.00    +0.000 A 
ATOM     20  C   UNL     1       5.392   1.471  18.973  0.00  0.00    +0.000 A 
ENDBRANCH   1  18
BRANCH  12  21
ATOM     21  C   UNL     1       6.597  -2.839  24.123  0.00  0.00    +0.000 C 
BRANCH  21  22
ATOM     22  C   UNL     1       6.812  -4.259  24.071  0.00  0.00    +0.000 A 
ATOM     23  C   UNL     1       5.653  -4.993  24.704  0.00  0.00    +0.000 A 
ATOM     24  C   UNL     1       5.033  -6.271  24.234  0.00  0.00    +0.000 A 
ATOM     25  C   UNL     1       5.798  -6.656  23.005  0.00  0.00    +0.000 A 
ATOM     26  C   UNL     1       6.806  -6.149  22.182  0.00  0.00    +0.000 A 
ATOM     27  C   UNL     1       6.193  -5.469  20.934  0.00  0.00    +0.000 C 
ATOM     28  C   UNL     1       7.507  -5.039  23.060  0.00  0.00    +0.000 A 
ENDBRANCH  21  22
ENDBRANCH  12  21
TORSDOF 3
ENDMDL
MODEL 2
REMARK VINA RESULT:      -8.5      1.105      1.757
REMARK  Name = 
REMARK  4 active torsions:
REMARK  status: ('A' for Active; 'I' for Inactive)
REMARK    1  A    between atoms: C_6  and  N_7
REMARK    2  A    between atoms: N_22  and  C_23
REMARK    3  A    between atoms: C_23  and  C_26
REMARK    4  A    between atoms: C_33  and  C_34
REMARK                            x       y       z     vdW  Elec       q    Type
REMARK                         _______ _______ _______ _____ _____    ______ ____
ROOT
ATOM      1  N   UNL     1       8.188   1.550  21.277  0.00  0.00    +0.000 N 
ATOM      2  H   UNL     1       8.186   2.518  21.255  0.00  0.00    +0.000 HD
ATOM      3  C   UNL     1       8.414   1.116  22.520  0.00  0.00    +0.000 C 
ATOM      4  O   UNL     1       7.562   1.095  23.400  0.00  0.00    +0.000 OA
ATOM      5  N   UNL     1       9.650   1.566  22.898  0.00  0.00    +0.000 N 
ATOM      6  H   UNL     1       9.499   2.406  23.370  0.00  0.00    +0.000 HD
ATOM      7  C   UNL     1      10.237   0.710  23.716  0.00  0.00    +0.000 C 
ATOM      8  O   UNL     1      10.905   1.054  24.666  0.00  0.00    +0.000 OA
ATOM      9  N   UNL     1       9.945  -0.575  23.478  0.00  0.00    +0.000 N 
ATOM     10  C   UNL     1       9.868  -1.486  24.620  0.00  0.00    +0.000 C 
ATOM     11  C   UNL     1       9.418  -2.876  24.081  0.00  0.00    +0.000 C 
ATOM     12  N   UNL     1       8.524  -2.707  23.068  0.00  0.00    +0.000 NA
ATOM     13  C   UNL     1       8.901  -2.098  21.910  0.00  0.00    +0.000 C 
ATOM     14  C   UNL     1      10.093  -1.151  22.159  0.00  0.00    +0.000 C 
ENDROOT
BRANCH   1  18
ATOM     15  C   UNL     1       5.849   0.606  17.970  0.00  0.00    +0.000 A 
ATOM     16  N   UNL     1       7.246   0.144  18.187  0.00  0.00    +0.000 NA
ATOM     17  C   UNL     1       7.410   0.147  19.495  0.00  0.00    +0.000 A 
ATOM     18  C   UNL     1       7.072   1.072  20.672  0.00  0.00    +0.000 A 
ATOM     19  C   UNL     1       5.773   1.718  20.477  0.00  0.00    +0.000 A 
ATOM     20  C   UNL     1       5.381   1.491  18.992  0.00  0.00    +0.000 A 
ENDBRANCH   1  18
BRANCH  12  21
ATOM     21  C   UNL     1       7.425  -3.631  22.997  0.00  0.00    +0.000 C 
BRANCH  21  22
ATOM     22  C   UNL     1       6.863  -3.675  24.319  0.00  0.00    +0.000 A 
ATOM     23  C   UNL     1       5.740  -2.674  24.450  0.00  0.00    +0.000 A 
ATOM     24  C   UNL     1       4.451  -2.860  25.188  0.00  0.00    +0.000 A 
ATOM     25  C   UNL     1       4.513  -4.245  25.754  0.00  0.00    +0.000 A 
ATOM     26  C   UNL     1       5.343  -5.368  25.720  0.00  0.00    +0.000 A 
ATOM     27  C   UNL     1       4.822  -6.394  24.684  0.00  0.00    +0.000 C 
ATOM     28  C   UNL     1       6.732  -4.812  25.216  0.00  0.00    +0.000 A 
ENDBRANCH  21  22
ENDBRANCH  12  21
TORSDOF 3
ENDMDL
MODEL 3
REMARK VINA RESULT:      -8.2      1.762      2.381
REMARK  Name = 
REMARK  4 active torsions:
REMARK  status: ('A' for Active; 'I' for Inactive)
REMARK    1  A    between atoms: C_6  and  N_7
REMARK    2  A    between atoms: N_22  and  C_23
REMARK    3  A    between atoms: C_23  and  C_26
REMARK    4  A    between atoms: C_33  and  C_34
REMARK                            x       y       z     vdW  Elec       q    Type
REMARK                         _______ _______ _______ _____ _____    ______ ____
ROOT
ATOM      1  N   UNL     1       7.722   0.420  22.135  0.00  0.00    +0.000 N 
ATOM      2  H   UNL     1       7.329   1.276  21.912  0.00  0.00    +0.000 HD
ATOM      3  C   UNL     1       7.345   0.045  23.361  0.00  0.00    +0.000 C 
ATOM      4  O   UNL     1       6.248  -0.434  23.621  0.00  0.00    +0.000 OA
ATOM      5  N   UNL     1       7.809   0.984  24.242  0.00  0.00    +0.000 N 
ATOM      6  H   UNL     1       7.080   1.620  24.367  0.00  0.00    +0.000 HD
ATOM      7  C   UNL     1       8.107   0.435  25.407  0.00  0.00    +0.000 C 
ATOM      8  O   UNL     1       7.886   0.973  26.470  0.00  0.00    +0.000 OA
ATOM      9  N   UNL     1       8.574  -0.818  25.327  0.00  0.00    +0.000 N 
ATOM     10  C   UNL     1       8.241  -1.746  26.408  0.00  0.00    +0.000 C 
ATOM     11  C   UNL     1       8.815  -3.141  26.019  0.00  0.00    +0.000 C 
ATOM     12  N   UNL     1       8.700  -3.327  24.676  0.00  0.00    +0.000 NA
ATOM     13  C   UNL     1       9.378  -2.525  23.809  0.00  0.00    +0.000 C 
ATOM     14  C   UNL     1       9.678  -1.157  24.456  0.00  0.00    +0.000 C 
ENDROOT
BRANCH   1  18
ATOM     15  C   UNL     1       6.239  -0.717  18.419  0.00  0.00    +0.000 A 
ATOM     16  N   UNL     1       7.167   0.420  18.656  0.00  0.00    +0.000 NA
ATOM     17  C   UNL     1       7.818   0.109  19.760  0.00  0.00    +0.000 A 
ATOM     18  C   UNL     1       7.484  -0.471  21.140  0.00  0.00    +0.000 A 
ATOM     19  C   UNL     1       6.444  -1.496  21.043  0.00  0.00    +0.000 A 
ATOM     20  C   UNL     1       5.825  -1.369  19.624  0.00  0.00    +0.000 A 
ENDBRANCH   1  18
BRANCH  12  21
ATOM     21  C   UNL     1       8.353  -4.644  24.218  0.00  0.00    +0.000 C 
BRANCH  21  22
ATOM     22  C   UNL     1       7.136  -4.492  23.468  0.00  0.00    +0.000 A 
ATOM     23  C   UNL     1       7.243  -5.198  22.137  0.00  0.00    +0.000 A 
ATOM     24  C   UNL     1       6.170  -5.977  21.443  0.00  0.00    +0.000 A 
ATOM     25  C   UNL     1       4.981  -5.912  22.352  0.00  0.00    +0.000 A 
ATOM     26  C   UNL     1       4.640  -5.432  23.618  0.00  0.00    +0.000 A 
ATOM     27  C   UNL     1       4.701  -6.573  24.663  0.00  0.00    +0.000 C 
ATOM     28  C   UNL     1       5.771  -4.384  23.957  0.00  0.00    +0.000 A 
ENDBRANCH  21  22
ENDBRANCH  12  21
TORSDOF 3
ENDMDL
MODEL 4
REMARK VINA RESULT:      -8.0      2.744      6.117
REMARK  Name = 
REMARK  4 active torsions:
REMARK  status: ('A' for Active; 'I' for Inactive)
REMARK    1  A    between atoms: C_6  and  N_7
REMARK    2  A    between atoms: N_22  and  C_23
REMARK    3  A    between atoms: C_23  and  C_26
REMARK    4  A    between atoms: C_33  and  C_34
REMARK                            x       y       z     vdW  Elec       q    Type
REMARK                         _______ _______ _______ _____ _____    ______ ____
ROOT
ATOM      1  N   UNL     1       6.032  -5.117  24.638  0.00  0.00    +0.000 N 
ATOM      2  H   UNL     1       5.991  -6.083  24.665  0.00  0.00    +0.000 HD
ATOM      3  C   UNL     1       7.166  -4.718  24.055  0.00  0.00    +0.000 C 
ATOM      4  O   UNL     1       7.348  -4.722  22.843  0.00  0.00    +0.000 OA
ATOM      5  N   UNL     1       8.207  -5.181  24.814  0.00  0.00    +0.000 N 
ATOM      6  H   UNL     1       8.470  -6.034  24.420  0.00  0.00    +0.000 HD
ATOM      7  C   UNL     1       9.234  -4.349  24.768  0.00  0.00    +0.000 C 
ATOM      8  O   UNL     1      10.386  -4.720  24.727  0.00  0.00    +0.000 OA
ATOM      9  N   UNL     1       8.896  -3.057  24.660  0.00  0.00    +0.000 N 
ATOM     10  C   UNL     1       9.778  -2.180  23.889  0.00  0.00    +0.000 C 
ATOM     11  C   UNL     1       9.109  -0.774  23.836  0.00  0.00    +0.000 C 
ATOM     12  N   UNL     1       7.758  -0.913  23.745  0.00  0.00    +0.000 NA
ATOM     13  C   UNL     1       7.054  -1.489  24.758  0.00  0.00    +0.000 C 
ATOM     14  C   UNL     1       7.954  -2.444  25.569  0.00  0.00    +0.000 C 
ENDROOT
BRANCH   1  18
ATOM     15  C   UNL     1       1.979  -4.186  24.731  0.00  0.00    +0.000 A 
ATOM     16  N   UNL     1       2.976  -3.761  25.750  0.00  0.00    +0.000 NA
ATOM     17  C   UNL     1       4.130  -3.736  25.112  0.00  0.00    +0.000 A 
ATOM     18  C   UNL     1       4.885  -4.620  24.111  0.00  0.00    +0.000 A 
ATOM     19  C   UNL     1       3.965  -5.231  23.151  0.00  0.00    +0.000 A 
ATOM     20  C   UNL     1       2.533  -5.030  23.717  0.00  0.00    +0.000 A 
ENDBRANCH   1  18
BRANCH  12  21
ATOM     21  C   UNL     1       7.055   0.013  22.900  0.00  0.00    +0.000 C 
BRANCH  21  22
ATOM     22  C   UNL     1       7.271  -0.441  21.553  0.00  0.00    +0.000 A 
ATOM     23  C   UNL     1       6.469  -1.692  21.283  0.00  0.00    +0.000 A 
ATOM     24  C   UNL     1       5.750  -2.044  20.017  0.00  0.00    +0.000 A 
ATOM     25  C   UNL     1       5.990  -0.892  19.091  0.00  0.00    +0.000 A 
ATOM     26  C   UNL     1       6.585   0.371  19.102  0.00  0.00    +0.000 A 
ATOM     27  C   UNL     1       5.518   1.470  19.326  0.00  0.00    +0.000 C 
ATOM     28  C   UNL     1       7.541   0.342  20.359  0.00  0.00    +0.000 A 
ENDBRANCH  21  22
ENDBRANCH  12  21
TORSDOF 3
ENDMDL
MODEL 5
REMARK VINA RESULT:      -7.9      1.928      2.773
REMARK  Name = 
REMARK  4 active torsions:
REMARK  status: ('A' for Active; 'I' for Inactive)
REMARK    1  A    between atoms: C_6  and  N_7
REMARK    2  A    between atoms: N_22  and  C_23
REMARK    3  A    between atoms: C_23  and  C_26
REMARK    4  A    between atoms: C_33  and  C_34
REMARK                            x       y       z     vdW  Elec       q    Type
REMARK                         _______ _______ _______ _____ _____    ______ ____
ROOT
ATOM      1  N   UNL     1       8.627   1.405  20.845  0.00  0.00    +0.000 N 
ATOM      2  H   UNL     1       8.627   2.023  20.100  0.00  0.00    +0.000 HD
ATOM      3  C   UNL     1       8.007   1.949  21.897  0.00  0.00    +0.000 C 
ATOM      4  O   UNL     1       6.789   2.021  22.007  0.00  0.00    +0.000 OA
ATOM      5  N   UNL     1       8.705   3.070  22.255  0.00  0.00    +0.000 N 
ATOM      6  H   UNL     1       8.275   3.815  21.795  0.00  0.00    +0.000 HD
ATOM      7  C   UNL     1       8.640   3.272  23.560  0.00  0.00    +0.000 C 
ATOM      8  O   UNL     1       8.537   4.372  24.056  0.00  0.00    +0.000 OA
ATOM      9  N   UNL     1       8.586   2.152  24.293  0.00  0.00    +0.000 N 
ATOM     10  C   UNL     1       7.804   2.178  25.530  0.00  0.00    +0.000 C 
ATOM     11  C   UNL     1       7.824   0.739  26.125  0.00  0.00    +0.000 C 
ATOM     12  N   UNL     1       7.787  -0.175  25.117  0.00  0.00    +0.000 NA
ATOM     13  C   UNL     1       8.812  -0.258  24.225  0.00  0.00    +0.000 C 
ATOM     14  C   UNL     1       9.554   1.091  24.123  0.00  0.00    +0.000 C 
ENDROOT
BRANCH   1  18
ATOM     15  C   UNL     1       5.759  -1.156  19.258  0.00  0.00    +0.000 A 
ATOM     16  N   UNL     1       6.245   0.089  18.607  0.00  0.00    +0.000 NA
ATOM     17  C   UNL     1       7.462   0.273  19.082  0.00  0.00    +0.000 A 
ATOM     18  C   UNL     1       8.166   0.194  20.443  0.00  0.00    +0.000 A 
ATOM     19  C   UNL     1       7.637  -0.910  21.245  0.00  0.00    +0.000 A 
ATOM     20  C   UNL     1       6.325  -1.373  20.554  0.00  0.00    +0.000 A 
ENDBRANCH   1  18
BRANCH  12  21
ATOM     21  C   UNL     1       7.002  -1.361  25.328  0.00  0.00    +0.000 C 
BRANCH  21  22
ATOM     22  C   UNL     1       7.874  -2.466  25.039  0.00  0.00    +0.000 A 
ATOM     23  C   UNL     1       8.443  -3.038  26.317  0.00  0.00    +0.000 A 
ATOM     24  C   UNL     1       8.673  -4.483  26.631  0.00  0.00    +0.000 A 
ATOM     25  C   UNL     1       8.212  -5.232  25.419  0.00  0.00    +0.000 A 
ATOM     26  C   UNL     1       7.592  -4.984  24.193  0.00  0.00    +0.000 A 
ATOM     27  C   UNL     1       6.074  -5.273  24.287  0.00  0.00    +0.000 C 
ATOM     28  C   UNL     1       7.791  -3.435  23.959  0.00  0.00    +0.000 A 
ENDBRANCH  21  22
ENDBRANCH  12  21
TORSDOF 3
ENDMDL
MODEL 6
REMARK VINA RESULT:      -7.8      3.022      5.557
REMARK  Name = 
REMARK  4 active torsions:
REMARK  status: ('A' for Active; 'I' for Inactive)
REMARK    1  A    between atoms: C_6  and  N_7
REMARK    2  A    between atoms: N_22  and  C_23
REMARK    3  A    between atoms: C_23  and  C_26
REMARK    4  A    between atoms: C_33  and  C_34
REMARK                            x       y       z     vdW  Elec       q    Type
REMARK                         _______ _______ _______ _____ _____    ______ ____
ROOT
ATOM      1  N   UNL     1       8.234   2.277  25.690  0.00  0.00    +0.000 N 
ATOM      2  H   UNL     1       7.844   2.550  26.533  0.00  0.00    +0.000 HD
ATOM      3  C   UNL     1       7.939   0.999  25.436  0.00  0.00    +0.000 C 
ATOM      4  O   UNL     1       6.853   0.622  25.011  0.00  0.00    +0.000 OA
ATOM      5  N   UNL     1       8.483   0.241  26.437  0.00  0.00    +0.000 N 
ATOM      6  H   UNL     1       7.778   0.125  27.101  0.00  0.00    +0.000 HD
ATOM      7  C   UNL     1       8.852  -0.945  25.986  0.00  0.00    +0.000 C 
ATOM      8  O   UNL     1       8.719  -1.967  26.623  0.00  0.00    +0.000 OA
ATOM      9  N   UNL     1       9.287  -0.947  24.719  0.00  0.00    +0.000 N 
ATOM     10  C   UNL     1       9.013  -2.128  23.900  0.00  0.00    +0.000 C 
ATOM     11  C   UNL     1       9.529  -1.829  22.461  0.00  0.00    +0.000 C 
ATOM     12  N   UNL     1       9.314  -0.519  22.160  0.00  0.00    +0.000 NA
ATOM     13  C   UNL     1       9.945   0.462  22.862  0.00  0.00    +0.000 C 
ATOM     14  C   UNL     1      10.319  -0.036  24.274  0.00  0.00    +0.000 C 
ENDROOT
BRANCH   1  18
ATOM     15  C   UNL     1       8.658   5.859  23.618  0.00  0.00    +0.000 A 
ATOM     16  N   UNL     1       9.752   4.885  23.870  0.00  0.00    +0.000 NA
ATOM     17  C   UNL     1       9.150   3.719  24.007  0.00  0.00    +0.000 A 
ATOM     18  C   UNL     1       7.908   3.168  24.720  0.00  0.00    +0.000 A 
ATOM     19  C   UNL     1       6.807   4.132  24.678  0.00  0.00    +0.000 A 
ATOM     20  C   UNL     1       7.418   5.486  24.228  0.00  0.00    +0.000 A 
ENDBRANCH   1  18
BRANCH  12  21
ATOM     21  C   UNL     1       8.909  -0.208  20.817  0.00  0.00    +0.000 C 
BRANCH  21  22
ATOM     22  C   UNL     1       7.485  -0.014  20.871  0.00  0.00    +0.000 A 
ATOM     23  C   UNL     1       7.156   1.288  21.563  0.00  0.00    +0.000 A 
ATOM     24  C   UNL     1       6.075   2.254  21.194  0.00  0.00    +0.000 A 
ATOM     25  C   UNL     1       5.402   1.660  19.995  0.00  0.00    +0.000 A 
ATOM     26  C   UNL     1       5.544   0.572  19.132  0.00  0.00    +0.000 A 
ATOM     27  C   UNL     1       6.278   1.001  17.838  0.00  0.00    +0.000 C 
ATOM     28  C   UNL     1       6.471  -0.435  19.920  0.00  0.00    +0.000 A 
ENDBRANCH  21  22
ENDBRANCH  12  21
TORSDOF 3
ENDMDL
MODEL 7
REMARK VINA RESULT:      -7.2      3.214      6.941
REMARK  Name = 
REMARK  4 active torsions:
REMARK  status: ('A' for Active; 'I' for Inactive)
REMARK    1  A    between atoms: C_6  and  N_7
REMARK    2  A    between atoms: N_22  and  C_23
REMARK    3  A    between atoms: C_23  and  C_26
REMARK    4  A    between atoms: C_33  and  C_34
REMARK                            x       y       z     vdW  Elec       q    Type
REMARK                         _______ _______ _______ _____ _____    ______ ____
ROOT
ATOM      1  N   UNL     1       6.287  -5.414  26.636  0.00  0.00    +0.000 N 
ATOM      2  H   UNL     1       6.248  -6.350  26.879  0.00  0.00    +0.000 HD
ATOM      3  C   UNL     1       7.179  -5.226  25.660  0.00  0.00    +0.000 C 
ATOM      4  O   UNL     1       6.963  -5.483  24.481  0.00  0.00    +0.000 OA
ATOM      5  N   UNL     1       8.403  -5.607  26.138  0.00  0.00    +0.000 N 
ATOM      6  H   UNL     1       8.520  -6.538  25.872  0.00  0.00    +0.000 HD
ATOM      7  C   UNL     1       9.369  -4.881  25.601  0.00  0.00    +0.000 C 
ATOM      8  O   UNL     1      10.444  -5.339  25.284  0.00  0.00    +0.000 OA
ATOM      9  N   UNL     1       9.026  -3.614  25.331  0.00  0.00    +0.000 N 
ATOM     10  C   UNL     1       9.623  -2.976  24.158  0.00  0.00    +0.000 C 
ATOM     11  C   UNL     1       8.984  -1.562  24.019  0.00  0.00    +0.000 C 
ATOM     12  N   UNL     1       7.673  -1.613  24.383  0.00  0.00    +0.000 NA
ATOM     13  C   UNL     1       7.325  -1.922  25.662  0.00  0.00    +0.000 C 
ATOM     14  C   UNL     1       8.428  -2.763  26.337  0.00  0.00    +0.000 C 
ENDROOT
BRANCH   1  18
ATOM     15  C   UNL     1       2.506  -4.118  27.789  0.00  0.00    +0.000 A 
ATOM     16  N   UNL     1       3.789  -3.568  28.301  0.00  0.00    +0.000 NA
ATOM     17  C   UNL     1       4.667  -3.794  27.342  0.00  0.00    +0.000 A 
ATOM     18  C   UNL     1       5.036  -4.946  26.399  0.00  0.00    +0.000 A 
ATOM     19  C   UNL     1       3.842  -5.671  25.962  0.00  0.00    +0.000 A 
ATOM     20  C   UNL     1       2.682  -5.216  26.889  0.00  0.00    +0.000 A 
ENDBRANCH   1  18
BRANCH  12  21
ATOM     21  C   UNL     1       6.746  -0.822  23.622  0.00  0.00    +0.000 C 
BRANCH  21  22
ATOM     22  C   UNL     1       7.182  -0.910  22.255  0.00  0.00    +0.000 A 
ATOM     23  C   UNL     1       6.351  -1.920  21.499  0.00  0.00    +0.000 A 
ATOM     24  C   UNL     1       5.866  -1.808  20.087  0.00  0.00    +0.000 A 
ATOM     25  C   UNL     1       6.372  -0.487  19.596  0.00  0.00    +0.000 A 
ATOM     26  C   UNL     1       7.053   0.633  20.078  0.00  0.00    +0.000 A 
ATOM     27  C   UNL     1       6.053   1.758  20.441  0.00  0.00    +0.000 C 
ATOM     28  C   UNL     1       7.741   0.130  21.408  0.00  0.00    +0.000 A 
ENDBRANCH  21  22
ENDBRANCH  12  21
TORSDOF 3
ENDMDL
MODEL 8
REMARK VINA RESULT:      -7.1      2.881      6.484
REMARK  Name = 
REMARK  4 active torsions:
REMARK  status: ('A' for Active; 'I' for Inactive)
REMARK    1  A    between atoms: C_6  and  N_7
REMARK    2  A    between atoms: N_22  and  C_23
REMARK    3  A    between atoms: C_23  and  C_26
REMARK    4  A    between atoms: C_33  and  C_34
REMARK                            x       y       z     vdW  Elec       q    Type
REMARK                         _______ _______ _______ _____ _____    ______ ____
ROOT
ATOM      1  N   UNL     1       6.138  -1.698  26.948  0.00  0.00    +0.000 N 
ATOM      2  H   UNL     1       5.427  -1.452  27.557  0.00  0.00    +0.000 HD
ATOM      3  C   UNL     1       5.629  -2.084  25.775  0.00  0.00    +0.000 C 
ATOM      4  O   UNL     1       5.219  -1.306  24.921  0.00  0.00    +0.000 OA
ATOM      5  N   UNL     1       4.847  -3.183  26.004  0.00  0.00    +0.000 N 
ATOM      6  H   UNL     1       3.939  -2.848  26.127  0.00  0.00    +0.000 HD
ATOM      7  C   UNL     1       4.867  -4.004  24.967  0.00  0.00    +0.000 C 
ATOM      8  O   UNL     1       3.891  -4.608  24.581  0.00  0.00    +0.000 OA
ATOM      9  N   UNL     1       6.032  -4.032  24.305  0.00  0.00    +0.000 N 
ATOM     10  C   UNL     1       5.993  -4.240  22.858  0.00  0.00    +0.000 C 
ATOM     11  C   UNL     1       7.455  -4.129  22.330  0.00  0.00    +0.000 C 
ATOM     12  N   UNL     1       8.124  -3.175  23.034  0.00  0.00    +0.000 NA
ATOM     13  C   UNL     1       8.349  -3.332  24.367  0.00  0.00    +0.000 C 
ATOM     14  C   UNL     1       7.285  -4.259  24.991  0.00  0.00    +0.000 C 
ENDROOT
BRANCH   1  18
ATOM     15  C   UNL     1       7.434   2.168  26.124  0.00  0.00    +0.000 A 
ATOM     16  N   UNL     1       6.265   1.823  26.975  0.00  0.00    +0.000 NA
ATOM     17  C   UNL     1       6.522   0.617  27.441  0.00  0.00    +0.000 A 
ATOM     18  C   UNL     1       7.067  -0.711  26.899  0.00  0.00    +0.000 A 
ATOM     19  C   UNL     1       8.124  -0.481  25.912  0.00  0.00    +0.000 A 
ATOM     20  C   UNL     1       8.059   1.024  25.533  0.00  0.00    +0.000 A 
ENDBRANCH   1  18
BRANCH  12  21
ATOM     21  C   UNL     1       9.041  -2.340  22.307  0.00  0.00    +0.000 C 
BRANCH  21  22
ATOM     22  C   UNL     1       8.551  -0.997  22.454  0.00  0.00    +0.000 A 
ATOM     23  C   UNL     1       9.702  -0.023  22.560  0.00  0.00    +0.000 A 
ATOM     24  C   UNL     1       9.782   1.343  21.955  0.00  0.00    +0.000 A 
ATOM     25  C   UNL     1       8.490   1.530  21.221  0.00  0.00    +0.000 A 
ATOM     26  C   UNL     1       7.343   0.804  20.894  0.00  0.00    +0.000 A 
ATOM     27  C   UNL     1       7.455   0.234  19.459  0.00  0.00    +0.000 C 
ATOM     28  C   UNL     1       7.341  -0.404  21.911  0.00  0.00    +0.000 A 
ENDBRANCH  21  22
ENDBRANCH  12  21
TORSDOF 3
ENDMDL
MODEL 9
REMARK VINA RESULT:      -7.0      2.691      4.667
REMARK  Name = 
REMARK  4 active torsions:
REMARK  status: ('A' for Active; 'I' for Inactive)
REMARK    1  A    between atoms: C_6  and  N_7
REMARK    2  A    between atoms: N_22  and  C_23
REMARK    3  A    between atoms: C_23  and  C_26
REMARK    4  A    between atoms: C_33  and  C_34
REMARK                            x       y       z     vdW  Elec       q    Type
REMARK                         _______ _______ _______ _____ _____    ______ ____
ROOT
ATOM      1  N   UNL     1       6.860   1.623  25.531  0.00  0.00    +0.000 N 
ATOM      2  H   UNL     1       6.921   2.300  26.220  0.00  0.00    +0.000 HD
ATOM      3  C   UNL     1       8.050   1.044  25.347  0.00  0.00    +0.000 C 
ATOM      4  O   UNL     1       8.515   0.190  26.093  0.00  0.00    +0.000 OA
ATOM      5  N   UNL     1       8.924   2.013  24.935  0.00  0.00    +0.000 N 
ATOM      6  H   UNL     1       9.366   2.340  25.741  0.00  0.00    +0.000 HD
ATOM      7  C   UNL     1       9.834   1.515  24.116  0.00  0.00    +0.000 C 
ATOM      8  O   UNL     1      10.996   1.855  24.130  0.00  0.00    +0.000 OA
ATOM      9  N   UNL     1       9.393   0.518  23.337  0.00  0.00    +0.000 N 
ATOM     10  C   UNL     1      10.331  -0.550  22.991  0.00  0.00    +0.000 C 
ATOM     11  C   UNL     1       9.544  -1.618  22.175  0.00  0.00    +0.000 C 
ATOM     12  N   UNL     1       8.277  -1.726  22.662  0.00  0.00    +0.000 NA
ATOM     13  C   UNL     1       7.419  -0.671  22.590  0.00  0.00    +0.000 C 
ATOM     14  C   UNL     1       8.198   0.660  22.534  0.00  0.00    +0.000 C 
ENDROOT
BRANCH   1  18
ATOM     15  C   UNL     1       4.817  -1.177  27.830  0.00  0.00    +0.000 A 
ATOM     16  N   UNL     1       5.291   0.145  28.318  0.00  0.00    +0.000 NA
ATOM     17  C   UNL     1       5.343   0.910  27.245  0.00  0.00    +0.000 A 
ATOM     18  C   UNL     1       5.825   0.786  25.794  0.00  0.00    +0.000 A 
ATOM     19  C   UNL     1       5.556  -0.551  25.262  0.00  0.00    +0.000 A 
ATOM     20  C   UNL     1       5.195  -1.448  26.477  0.00  0.00    +0.000 A 
ENDBRANCH   1  18
BRANCH  12  21
ATOM     21  C   UNL     1       7.699  -3.041  22.715  0.00  0.00    +0.000 C 
BRANCH  21  22
ATOM     22  C   UNL     1       7.401  -3.284  24.099  0.00  0.00    +0.000 A 
ATOM     23  C   UNL     1       6.350  -4.361  24.232  0.00  0.00    +0.000 A 
ATOM     24  C   UNL     1       6.298  -5.444  25.264  0.00  0.00    +0.000 A 
ATOM     25  C   UNL     1       7.507  -5.235  26.121  0.00  0.00    +0.000 A 
ATOM     26  C   UNL     1       8.640  -4.420  26.176  0.00  0.00    +0.000 A 
ATOM     27  C   UNL     1       9.861  -5.150  25.566  0.00  0.00    +0.000 C 
ATOM     28  C   UNL     1       8.282  -3.191  25.252  0.00  0.00    +0.000 A 
ENDBRANCH  21  22
ENDBRANCH  12  21
TORSDOF 3
ENDMDL
