MODEL 1
REMARK VINA RESULT:      -8.8      0.000      0.000
REMARK  Name = 
REMARK  6 active torsions:
REMARK  status: ('A' for Active; 'I' for Inactive)
REMARK    1  A    between atoms: C_7  and  C_8
REMARK    2  A    between atoms: C_8  and  N_11
REMARK    3  A    between atoms: N_11  and  C_13
REMARK    4  A    between atoms: C_27  and  C_28
REMARK    5  A    between atoms: C_28  and  C_31
REMARK    6  A    between atoms: C_40  and  C_42
REMARK                            x       y       z     vdW  Elec       q    Type
REMARK                         _______ _______ _______ _____ _____    ______ ____
ROOT
ATOM      1  C   UNL     1      11.902   4.652  23.457  0.00  0.00    +0.000 A 
ATOM      2  C   UNL     1      10.922   5.772  23.739  0.00  0.00    +0.000 A 
ATOM      3  C   UNL     1       9.539   5.641  24.107  0.00  0.00    +0.000 A 
ATOM      4  C   UNL     1       8.976   4.205  23.780  0.00  0.00    +0.000 A 
ATOM      5  C   UNL     1       9.800   3.039  23.677  0.00  0.00    +0.000 A 
ATOM      6  C   UNL     1      11.296   3.350  23.219  0.00  0.00    +0.000 A 
ENDROOT
BRANCH   4   7
ATOM      7  C   UNL     1       7.754   4.453  22.777  0.00  0.00    +0.000 C 
BRANCH   7   8
ATOM      8  N   UNL     1       6.730   3.537  22.829  0.00  0.00    +0.000 NA
ATOM      9  H   UNL     1       6.278   3.530  23.749  0.00  0.00    +0.000 HD
BRANCH   8  10
ATOM     10  C   UNL     1       6.564   2.645  21.991  0.00  0.00    +0.000 C 
ATOM     11  N   UNL     1       7.498   1.603  21.484  0.00  0.00    +0.000 NA
ATOM     12  C   UNL     1       6.674   0.625  20.853  0.00  0.00    +0.000 A 
ATOM     13  C   UNL     1       7.649   0.318  19.714  0.00  0.00    +0.000 A 
ATOM     14  C   UNL     1       7.371   0.372  18.283  0.00  0.00    +0.000 A 
ATOM     15  C   UNL     1       5.910   0.696  18.144  0.00  0.00    +0.000 A 
ATOM     16  C   UNL     1       4.859   1.162  19.006  0.00  0.00    +0.000 A 
ATOM     17  C   UNL     1       5.435   1.346  20.373  0.00  0.00    +0.000 A 
ATOM     18  N   UNL     1       5.474   2.661  20.916  0.00  0.00    +0.000 N 
ATOM     19  H   UNL     1       5.856   3.220  20.190  0.00  0.00    +0.000 HD
ENDBRANCH   8  10
ENDBRANCH   7   8
ENDBRANCH   4   7
BRANCH   5  20
ATOM     20  C   UNL     1       9.848   1.837  24.596  0.00  0.00    +0.000 C 
BRANCH  20  21
ATOM     21  C   UNL     1       8.544   1.227  24.934  0.00  0.00    +0.000 C 
ATOM     22  O   UNL     1       7.718   1.859  25.628  0.00  0.00    +0.000 OA
ATOM     23  N   UNL     1       8.441  -0.132  24.998  0.00  0.00    +0.000 N 
ATOM     24  C   UNL     1       7.314  -0.695  24.211  0.00  0.00    +0.000 C 
ATOM     25  C   UNL     1       7.665  -2.130  23.835  0.00  0.00    +0.000 C 
ATOM     26  C   UNL     1       8.832  -2.601  24.661  0.00  0.00    +0.000 C 
ATOM     27  C   UNL     1       8.580  -2.283  26.126  0.00  0.00    +0.000 C 
ATOM     28  C   UNL     1       8.626  -0.769  26.312  0.00  0.00    +0.000 C 
BRANCH  26  29
ATOM     29  C   UNL     1       9.023  -4.088  24.486  0.00  0.00    +0.000 C 
ATOM     30  O   UNL     1      10.101  -4.609  24.813  0.00  0.00    +0.000 OA
ATOM     31  N   UNL     1       7.907  -4.831  24.665  0.00  0.00    +0.000 N 
ATOM     32  C   UNL     1       7.201  -5.368  23.509  0.00  0.00    +0.000 C 
ATOM     33  C   UNL     1       5.754  -4.925  23.582  0.00  0.00    +0.000 C 
ATOM     34  C   UNL     1       5.340  -4.544  24.975  0.00  0.00    +0.000 C 
ATOM     35  C   UNL     1       5.994  -5.388  26.046  0.00  0.00    +0.000 C 
ATOM     36  C   UNL     1       7.508  -5.307  25.972  0.00  0.00    +0.000 C 
ENDBRANCH  26  29
ENDBRANCH  20  21
ENDBRANCH   5  20
TORSDOF 6
ENDMDL
MODEL 2
REMARK VINA RESULT:      -8.8      2.555      5.287
REMARK  Name = 
REMARK  6 active torsions:
REMARK  status: ('A' for Active; 'I' for Inactive)
REMARK    1  A    between atoms: C_7  and  C_8
REMARK    2  A    between atoms: C_8  and  N_11
REMARK    3  A    between atoms: N_11  and  C_13
REMARK    4  A    between atoms: C_27  and  C_28
REMARK    5  A    between atoms: C_28  and  C_31
REMARK    6  A    between atoms: C_40  and  C_42
REMARK                            x       y       z     vdW  Elec       q    Type
REMARK                         _______ _______ _______ _____ _____    ______ ____
ROOT
ATOM      1  C   UNL     1       9.973  -1.392  21.960  0.00  0.00    +0.000 A 
ATOM      2  C   UNL     1      10.161  -1.891  23.377  0.00  0.00    +0.000 A 
ATOM      3  C   UNL     1       9.173  -1.937  24.418  0.00  0.00    +0.000 A 
ATOM      4  C   UNL     1       7.938  -1.010  24.099  0.00  0.00    +0.000 A 
ATOM      5  C   UNL     1       7.559  -0.629  22.771  0.00  0.00    +0.000 A 
ATOM      6  C   UNL     1       8.779  -0.588  21.745  0.00  0.00    +0.000 A 
ENDROOT
BRANCH   4   7
ATOM      7  C   UNL     1       7.869   0.029  25.315  0.00  0.00    +0.000 C 
BRANCH   7   8
ATOM      8  N   UNL     1       8.995   0.787  25.530  0.00  0.00    +0.000 NA
ATOM      9  H   UNL     1       9.400   0.606  26.454  0.00  0.00    +0.000 HD
BRANCH   8  10
ATOM     10  C   UNL     1       9.310   1.759  24.836  0.00  0.00    +0.000 C 
ATOM     11  N   UNL     1      10.553   2.043  24.069  0.00  0.00    +0.000 NA
ATOM     12  C   UNL     1      10.212   3.084  23.158  0.00  0.00    +0.000 A 
ATOM     13  C   UNL     1      11.555   3.811  23.247  0.00  0.00    +0.000 A 
ATOM     14  C   UNL     1      11.773   5.213  23.584  0.00  0.00    +0.000 A 
ATOM     15  C   UNL     1      10.413   5.833  23.734  0.00  0.00    +0.000 A 
ATOM     16  C   UNL     1       9.060   5.362  23.850  0.00  0.00    +0.000 A 
ATOM     17  C   UNL     1       9.088   3.868  23.797  0.00  0.00    +0.000 A 
ATOM     18  N   UNL     1       8.670   3.145  24.949  0.00  0.00    +0.000 N 
ATOM     19  H   UNL     1       9.151   3.576  25.703  0.00  0.00    +0.000 HD
ENDBRANCH   8  10
ENDBRANCH   7   8
ENDBRANCH   4   7
BRANCH   5  20
ATOM     20  C   UNL     1       6.325  -1.032  21.994  0.00  0.00    +0.000 C 
BRANCH  20  21
ATOM     21  C   UNL     1       6.267  -2.442  21.554  0.00  0.00    +0.000 C 
ATOM     22  O   UNL     1       5.721  -2.737  20.468  0.00  0.00    +0.000 OA
ATOM     23  N   UNL     1       6.274  -3.433  22.491  0.00  0.00    +0.000 N 
ATOM     24  C   UNL     1       7.283  -4.496  22.246  0.00  0.00    +0.000 C 
ATOM     25  C   UNL     1       7.637  -5.135  23.584  0.00  0.00    +0.000 C 
ATOM     26  C   UNL     1       6.620  -4.740  24.621  0.00  0.00    +0.000 C 
ATOM     27  C   UNL     1       5.220  -4.956  24.070  0.00  0.00    +0.000 C 
ATOM     28  C   UNL     1       4.973  -3.944  22.955  0.00  0.00    +0.000 C 
BRANCH  26  29
ATOM     29  C   UNL     1       6.810  -5.563  25.871  0.00  0.00    +0.000 C 
ATOM     30  O   UNL     1       7.957  -5.799  26.281  0.00  0.00    +0.000 OA
ATOM     31  N   UNL     1       5.847  -5.406  26.809  0.00  0.00    +0.000 N 
ATOM     32  C   UNL     1       4.828  -6.432  26.979  0.00  0.00    +0.000 C 
ATOM     33  C   UNL     1       3.466  -5.780  26.857  0.00  0.00    +0.000 C 
ATOM     34  C   UNL     1       3.513  -4.301  27.114  0.00  0.00    +0.000 C 
ATOM     35  C   UNL     1       4.518  -3.908  28.175  0.00  0.00    +0.000 C 
ATOM     36  C   UNL     1       5.919  -4.362  27.809  0.00  0.00    +0.000 C 
ENDBRANCH  26  29
ENDBRANCH  20  21
ENDBRANCH   5  20
TORSDOF 6
ENDMDL
MODEL 3
REMARK VINA RESULT:      -8.4      1.792      5.052
REMARK  Name = 
REMARK  6 active torsions:
REMARK  status: ('A' for Active; 'I' for Inactive)
REMARK    1  A    between atoms: C_7  and  C_8
REMARK    2  A    between atoms: C_8  and  N_11
REMARK    3  A    between atoms: N_11  and  C_13
REMARK    4  A    between atoms: C_27  and  C_28
REMARK    5  A    between atoms: C_28  and  C_31
REMARK    6  A    between atoms: C_40  and  C_42
REMARK                            x       y       z     vdW  Elec       q    Type
REMARK                         _______ _______ _______ _____ _____    ______ ____
ROOT
ATOM      1  C   UNL     1       5.778  -1.785  19.241  0.00  0.00    +0.000 A 
ATOM      2  C   UNL     1       5.957  -0.528  18.415  0.00  0.00    +0.000 A 
ATOM      3  C   UNL     1       6.818   0.584  18.706  0.00  0.00    +0.000 A 
ATOM      4  C   UNL     1       7.274   0.598  20.216  0.00  0.00    +0.000 A 
ATOM      5  C   UNL     1       7.321  -0.575  21.036  0.00  0.00    +0.000 A 
ATOM      6  C   UNL     1       6.275  -1.699  20.606  0.00  0.00    +0.000 A 
ENDROOT
BRANCH   4   7
ATOM      7  C   UNL     1       6.762   2.000  20.795  0.00  0.00    +0.000 C 
BRANCH   7   8
ATOM      8  N   UNL     1       6.783   2.136  22.163  0.00  0.00    +0.000 NA
ATOM      9  H   UNL     1       5.852   2.001  22.569  0.00  0.00    +0.000 HD
BRANCH   8  10
ATOM     10  C   UNL     1       7.724   2.636  22.788  0.00  0.00    +0.000 C 
ATOM     11  N   UNL     1       7.757   3.770  23.750  0.00  0.00    +0.000 NA
ATOM     12  C   UNL     1       8.995   3.646  24.446  0.00  0.00    +0.000 A 
ATOM     13  C   UNL     1       9.265   5.148  24.544  0.00  0.00    +0.000 A 
ATOM     14  C   UNL     1      10.460   5.856  24.096  0.00  0.00    +0.000 A 
ATOM     15  C   UNL     1      11.418   4.807  23.605  0.00  0.00    +0.000 A 
ATOM     16  C   UNL     1      11.354   3.410  23.276  0.00  0.00    +0.000 A 
ATOM     17  C   UNL     1       9.952   2.947  23.508  0.00  0.00    +0.000 A 
ATOM     18  N   UNL     1       9.196   2.501  22.388  0.00  0.00    +0.000 N 
ATOM     19  H   UNL     1       9.327   3.206  21.701  0.00  0.00    +0.000 HD
ENDBRANCH   8  10
ENDBRANCH   7   8
ENDBRANCH   4   7
BRANCH   5  20
ATOM     20  C   UNL     1       8.536  -1.277  21.602  0.00  0.00    +0.000 C 
BRANCH  20  21
ATOM     21  C   UNL     1       8.754  -1.126  23.056  0.00  0.00    +0.000 C 
ATOM     22  O   UNL     1       9.650  -0.363  23.480  0.00  0.00    +0.000 OA
ATOM     23  N   UNL     1       8.422  -2.154  23.890  0.00  0.00    +0.000 N 
ATOM     24  C   UNL     1       7.570  -1.755  25.040  0.00  0.00    +0.000 C 
ATOM     25  C   UNL     1       6.769  -2.974  25.486  0.00  0.00    +0.000 C 
ATOM     26  C   UNL     1       7.353  -4.218  24.871  0.00  0.00    +0.000 C 
ATOM     27  C   UNL     1       8.859  -4.231  25.079  0.00  0.00    +0.000 C 
ATOM     28  C   UNL     1       9.478  -3.119  24.239  0.00  0.00    +0.000 C 
BRANCH  26  29
ATOM     29  C   UNL     1       6.739  -5.443  25.502  0.00  0.00    +0.000 C 
ATOM     30  O   UNL     1       7.212  -5.890  26.558  0.00  0.00    +0.000 OA
ATOM     31  N   UNL     1       5.401  -5.562  25.335  0.00  0.00    +0.000 N 
ATOM     32  C   UNL     1       4.875  -6.506  24.358  0.00  0.00    +0.000 C 
ATOM     33  C   UNL     1       3.955  -5.758  23.415  0.00  0.00    +0.000 C 
ATOM     34  C   UNL     1       3.447  -4.474  24.006  0.00  0.00    +0.000 C 
ATOM     35  C   UNL     1       3.201  -4.557  25.497  0.00  0.00    +0.000 C 
ATOM     36  C   UNL     1       4.461  -4.949  26.248  0.00  0.00    +0.000 C 
ENDBRANCH  26  29
ENDBRANCH  20  21
ENDBRANCH   5  20
TORSDOF 6
ENDMDL
MODEL 4
REMARK VINA RESULT:      -8.3      2.596      7.735
REMARK  Name = 
REMARK  6 active torsions:
REMARK  status: ('A' for Active; 'I' for Inactive)
REMARK    1  A    between atoms: C_7  and  C_8
REMARK    2  A    between atoms: C_8  and  N_11
REMARK    3  A    between atoms: N_11  and  C_13
REMARK    4  A    between atoms: C_27  and  C_28
REMARK    5  A    between atoms: C_28  and  C_31
REMARK    6  A    between atoms: C_40  and  C_42
REMARK                            x       y       z     vdW  Elec       q    Type
REMARK                         _______ _______ _______ _____ _____    ______ ____
ROOT
ATOM      1  C   UNL     1       8.544  -4.792  25.976  0.00  0.00    +0.000 A 
ATOM      2  C   UNL     1       9.187  -4.270  24.708  0.00  0.00    +0.000 A 
ATOM      3  C   UNL     1       8.546  -3.551  23.643  0.00  0.00    +0.000 A 
ATOM      4  C   UNL     1       6.977  -3.707  23.688  0.00  0.00    +0.000 A 
ATOM      5  C   UNL     1       6.249  -4.015  24.881  0.00  0.00    +0.000 A 
ATOM      6  C   UNL     1       7.089  -4.852  25.946  0.00  0.00    +0.000 A 
ENDROOT
BRANCH   4   7
ATOM      7  C   UNL     1       6.582  -4.355  22.279  0.00  0.00    +0.000 C 
BRANCH   7   8
ATOM      8  N   UNL     1       6.039  -5.618  22.323  0.00  0.00    +0.000 NA
ATOM      9  H   UNL     1       6.539  -6.264  21.704  0.00  0.00    +0.000 HD
BRANCH   8  10
ATOM     10  C   UNL     1       4.932  -5.872  22.809  0.00  0.00    +0.000 C 
ATOM     11  N   UNL     1       3.697  -5.047  22.896  0.00  0.00    +0.000 NA
ATOM     12  C   UNL     1       2.643  -5.964  23.180  0.00  0.00    +0.000 A 
ATOM     13  C   UNL     1       1.872  -5.026  24.111  0.00  0.00    +0.000 A 
ATOM     14  C   UNL     1       1.455  -5.299  25.482  0.00  0.00    +0.000 A 
ATOM     15  C   UNL     1       1.846  -6.720  25.773  0.00  0.00    +0.000 A 
ATOM     16  C   UNL     1       2.677  -7.719  25.159  0.00  0.00    +0.000 A 
ATOM     17  C   UNL     1       3.267  -7.126  23.919  0.00  0.00    +0.000 A 
ATOM     18  N   UNL     1       4.679  -6.956  23.860  0.00  0.00    +0.000 N 
ATOM     19  H   UNL     1       4.915  -6.522  24.720  0.00  0.00    +0.000 HD
ENDBRANCH   8  10
ENDBRANCH   7   8
ENDBRANCH   4   7
BRANCH   5  20
ATOM     20  C   UNL     1       5.291  -3.132  25.651  0.00  0.00    +0.000 C 
BRANCH  20  21
ATOM     21  C   UNL     1       5.907  -2.162  26.580  0.00  0.00    +0.000 C 
ATOM     22  O   UNL     1       5.309  -1.831  27.628  0.00  0.00    +0.000 OA
ATOM     23  N   UNL     1       6.784  -1.237  26.094  0.00  0.00    +0.000 N 
ATOM     24  C   UNL     1       8.070  -1.168  26.834  0.00  0.00    +0.000 C 
ATOM     25  C   UNL     1       9.139  -0.637  25.885  0.00  0.00    +0.000 C 
ATOM     26  C   UNL     1       8.486  -0.040  24.667  0.00  0.00    +0.000 C 
ATOM     27  C   UNL     1       7.373   0.903  25.096  0.00  0.00    +0.000 C 
ATOM     28  C   UNL     1       6.246   0.080  25.712  0.00  0.00    +0.000 C 
BRANCH  26  29
ATOM     29  C   UNL     1       9.507   0.712  23.849  0.00  0.00    +0.000 C 
ATOM     30  O   UNL     1      10.713   0.594  24.116  0.00  0.00    +0.000 OA
ATOM     31  N   UNL     1       9.184   0.878  22.546  0.00  0.00    +0.000 N 
ATOM     32  C   UNL     1       8.703   2.172  22.078  0.00  0.00    +0.000 C 
ATOM     33  C   UNL     1       7.371   1.966  21.386  0.00  0.00    +0.000 C 
ATOM     34  C   UNL     1       7.177   0.550  20.925  0.00  0.00    +0.000 C 
ATOM     35  C   UNL     1       8.455  -0.109  20.455  0.00  0.00    +0.000 C 
ATOM     36  C   UNL     1       9.511  -0.116  21.546  0.00  0.00    +0.000 C 
ENDBRANCH  26  29
ENDBRANCH  20  21
ENDBRANCH   5  20
TORSDOF 6
ENDMDL
MODEL 5
REMARK VINA RESULT:      -8.3      2.575      6.464
REMARK  Name = 
REMARK  6 active torsions:
REMARK  status: ('A' for Active; 'I' for Inactive)
REMARK    1  A    between atoms: C_7  and  C_8
REMARK    2  A    between atoms: C_8  and  N_11
REMARK    3  A    between atoms: N_11  and  C_13
REMARK    4  A    between atoms: C_27  and  C_28
REMARK    5  A    between atoms: C_28  and  C_31
REMARK    6  A    between atoms: C_40  and  C_42
REMARK                            x       y       z     vdW  Elec       q    Type
REMARK                         _______ _______ _______ _____ _____    ______ ____
ROOT
ATOM      1  C   UNL     1       8.737  -5.090  26.296  0.00  0.00    +0.000 A 
ATOM      2  C   UNL     1       8.900  -3.597  26.491  0.00  0.00    +0.000 A 
ATOM      3  C   UNL     1       8.641  -2.564  25.527  0.00  0.00    +0.000 A 
ATOM      4  C   UNL     1       8.570  -3.132  24.059  0.00  0.00    +0.000 A 
ATOM      5  C   UNL     1       8.237  -4.492  23.754  0.00  0.00    +0.000 A 
ATOM      6  C   UNL     1       8.626  -5.520  24.909  0.00  0.00    +0.000 A 
ENDROOT
BRANCH   4   7
ATOM      7  C   UNL     1       9.711  -2.352  23.252  0.00  0.00    +0.000 C 
BRANCH   7   8
ATOM      8  N   UNL     1       9.285  -1.551  22.219  0.00  0.00    +0.000 NA
ATOM      9  H   UNL     1       9.202  -2.078  21.344  0.00  0.00    +0.000 HD
BRANCH   8  10
ATOM     10  C   UNL     1       9.284  -0.317  22.264  0.00  0.00    +0.000 C 
ATOM     11  N   UNL     1      10.178   0.630  22.984  0.00  0.00    +0.000 NA
ATOM     12  C   UNL     1       9.971   1.897  22.366  0.00  0.00    +0.000 A 
ATOM     13  C   UNL     1      10.090   2.715  23.654  0.00  0.00    +0.000 A 
ATOM     14  C   UNL     1       9.117   3.665  24.182  0.00  0.00    +0.000 A 
ATOM     15  C   UNL     1       8.014   3.758  23.165  0.00  0.00    +0.000 A 
ATOM     16  C   UNL     1       7.603   3.018  22.004  0.00  0.00    +0.000 A 
ATOM     17  C   UNL     1       8.563   1.887  21.817  0.00  0.00    +0.000 A 
ATOM     18  N   UNL     1       8.070   0.558  21.942  0.00  0.00    +0.000 N 
ATOM     19  H   UNL     1       7.544   0.565  22.784  0.00  0.00    +0.000 HD
ENDBRANCH   8  10
ENDBRANCH   7   8
ENDBRANCH   4   7
BRANCH   5  20
ATOM     20  C   UNL     1       6.998  -5.025  23.069  0.00  0.00    +0.000 C 
BRANCH  20  21
ATOM     21  C   UNL     1       5.900  -5.457  23.959  0.00  0.00    +0.000 C 
ATOM     22  O   UNL     1       5.154  -6.402  23.619  0.00  0.00    +0.000 OA
ATOM     23  N   UNL     1       5.344  -4.555  24.817  0.00  0.00    +0.000 N 
ATOM     24  C   UNL     1       5.260  -5.024  26.224  0.00  0.00    +0.000 C 
ATOM     25  C   UNL     1       5.251  -3.802  27.135  0.00  0.00    +0.000 C 
ATOM     26  C   UNL     1       4.976  -2.565  26.323  0.00  0.00    +0.000 C 
ATOM     27  C   UNL     1       3.771  -2.801  25.427  0.00  0.00    +0.000 C 
ATOM     28  C   UNL     1       4.148  -3.825  24.361  0.00  0.00    +0.000 C 
BRANCH  26  29
ATOM     29  C   UNL     1       4.711  -1.394  27.238  0.00  0.00    +0.000 C 
ATOM     30  O   UNL     1       4.468  -1.598  28.438  0.00  0.00    +0.000 OA
ATOM     31  N   UNL     1       5.396  -0.268  26.937  0.00  0.00    +0.000 N 
ATOM     32  C   UNL     1       4.718   0.837  26.272  0.00  0.00    +0.000 C 
ATOM     33  C   UNL     1       5.487   1.185  25.014  0.00  0.00    +0.000 C 
ATOM     34  C   UNL     1       6.912   0.711  25.063  0.00  0.00    +0.000 C 
ATOM     35  C   UNL     1       7.522   0.789  26.445  0.00  0.00    +0.000 C 
ATOM     36  C   UNL     1       6.727  -0.024  27.451  0.00  0.00    +0.000 C 
ENDBRANCH  26  29
ENDBRANCH  20  21
ENDBRANCH   5  20
TORSDOF 6
ENDMDL
MODEL 6
REMARK VINA RESULT:      -8.3      2.288      4.096
REMARK  Name = 
REMARK  6 active torsions:
REMARK  status: ('A' for Active; 'I' for Inactive)
REMARK    1  A    between atoms: C_7  and  C_8
REMARK    2  A    between atoms: C_8  and  N_11
REMARK    3  A    between atoms: N_11  and  C_13
REMARK    4  A    between atoms: C_27  and  C_28
REMARK    5  A    between atoms: C_28  and  C_31
REMARK    6  A    between atoms: C_40  and  C_42
REMARK                            x       y       z     vdW  Elec       q    Type
REMARK                         _______ _______ _______ _____ _____    ______ ____
ROOT
ATOM      1  C   UNL     1      10.100  -0.824  24.486  0.00  0.00    +0.000 A 
ATOM      2  C   UNL     1       9.351   0.191  25.324  0.00  0.00    +0.000 A 
ATOM      3  C   UNL     1       8.640   1.347  24.855  0.00  0.00    +0.000 A 
ATOM      4  C   UNL     1       9.055   1.737  23.384  0.00  0.00    +0.000 A 
ATOM      5  C   UNL     1       9.600   0.804  22.444  0.00  0.00    +0.000 A 
ATOM      6  C   UNL     1      10.394  -0.399  23.125  0.00  0.00    +0.000 A 
ENDROOT
BRANCH   4   7
ATOM      7  C   UNL     1       9.610   3.235  23.490  0.00  0.00    +0.000 C 
BRANCH   7   8
ATOM      8  N   UNL     1       8.811   4.217  22.954  0.00  0.00    +0.000 NA
ATOM      9  H   UNL     1       9.369   4.979  22.555  0.00  0.00    +0.000 HD
BRANCH   8  10
ATOM     10  C   UNL     1       7.601   4.315  23.178  0.00  0.00    +0.000 C 
ATOM     11  N   UNL     1       6.861   4.494  24.457  0.00  0.00    +0.000 NA
ATOM     12  C   UNL     1       5.558   4.940  24.087  0.00  0.00    +0.000 A 
ATOM     13  C   UNL     1       4.817   4.167  25.179  0.00  0.00    +0.000 A 
ATOM     14  C   UNL     1       3.718   3.226  24.995  0.00  0.00    +0.000 A 
ATOM     15  C   UNL     1       3.389   3.234  23.529  0.00  0.00    +0.000 A 
ATOM     16  C   UNL     1       4.003   3.726  22.326  0.00  0.00    +0.000 A 
ATOM     17  C   UNL     1       5.288   4.390  22.705  0.00  0.00    +0.000 A 
ATOM     18  N   UNL     1       6.504   3.824  22.229  0.00  0.00    +0.000 N 
ATOM     19  H   UNL     1       6.424   2.855  22.430  0.00  0.00    +0.000 HD
ENDBRANCH   8  10
ENDBRANCH   7   8
ENDBRANCH   4   7
BRANCH   5  20
ATOM     20  C   UNL     1       8.970   0.274  21.175  0.00  0.00    +0.000 C 
BRANCH  20  21
ATOM     21  C   UNL     1       7.518   0.007  21.233  0.00  0.00    +0.000 C 
ATOM     22  O   UNL     1       6.705   0.959  21.212  0.00  0.00    +0.000 OA
ATOM     23  N   UNL     1       7.072  -1.127  21.847  0.00  0.00    +0.000 N 
ATOM     24  C   UNL     1       6.121  -1.927  21.033  0.00  0.00    +0.000 C 
ATOM     25  C   UNL     1       6.205  -3.378  21.490  0.00  0.00    +0.000 C 
ATOM     26  C   UNL     1       6.929  -3.455  22.808  0.00  0.00    +0.000 C 
ATOM     27  C   UNL     1       6.347  -2.431  23.769  0.00  0.00    +0.000 C 
ATOM     28  C   UNL     1       6.705  -1.034  23.270  0.00  0.00    +0.000 C 
BRANCH  26  29
ATOM     29  C   UNL     1       6.794  -4.839  23.393  0.00  0.00    +0.000 C 
ATOM     30  O   UNL     1       6.751  -5.822  22.636  0.00  0.00    +0.000 OA
ATOM     31  N   UNL     1       7.403  -5.015  24.588  0.00  0.00    +0.000 N 
ATOM     32  C   UNL     1       6.607  -5.047  25.808  0.00  0.00    +0.000 C 
ATOM     33  C   UNL     1       7.158  -4.011  26.767  0.00  0.00    +0.000 C 
ATOM     34  C   UNL     1       8.580  -3.640  26.455  0.00  0.00    +0.000 C 
ATOM     35  C   UNL     1       9.403  -4.801  25.940  0.00  0.00    +0.000 C 
ATOM     36  C   UNL     1       8.794  -5.401  24.686  0.00  0.00    +0.000 C 
ENDBRANCH  26  29
ENDBRANCH  20  21
ENDBRANCH   5  20
TORSDOF 6
ENDMDL
MODEL 7
REMARK VINA RESULT:      -8.3      2.615      5.747
REMARK  Name = 
REMARK  6 active torsions:
REMARK  status: ('A' for Active; 'I' for Inactive)
REMARK    1  A    between atoms: C_7  and  C_8
REMARK    2  A    between atoms: C_8  and  N_11
REMARK    3  A    between atoms: N_11  and  C_13
REMARK    4  A    between atoms: C_27  and  C_28
REMARK    5  A    between atoms: C_28  and  C_31
REMARK    6  A    between atoms: C_40  and  C_42
REMARK                            x       y       z     vdW  Elec       q    Type
REMARK                         _______ _______ _______ _____ _____    ______ ____
ROOT
ATOM      1  C   UNL     1       7.992   0.000  21.169  0.00  0.00    +0.000 A 
ATOM      2  C   UNL     1       9.458  -0.294  21.414  0.00  0.00    +0.000 A 
ATOM      3  C   UNL     1      10.017  -1.091  22.469  0.00  0.00    +0.000 A 
ATOM      4  C   UNL     1       8.993  -1.309  23.649  0.00  0.00    +0.000 A 
ATOM      5  C   UNL     1       7.573  -1.239  23.484  0.00  0.00    +0.000 A 
ATOM      6  C   UNL     1       7.113  -0.280  22.295  0.00  0.00    +0.000 A 
ENDROOT
BRANCH   4   7
ATOM      7  C   UNL     1       9.713  -0.703  24.944  0.00  0.00    +0.000 C 
BRANCH   7   8
ATOM      8  N   UNL     1       9.309   0.553  25.331  0.00  0.00    +0.000 NA
ATOM      9  H   UNL     1       8.594   0.509  26.065  0.00  0.00    +0.000 HD
BRANCH   8  10
ATOM     10  C   UNL     1       9.553   1.580  24.690  0.00  0.00    +0.000 C 
ATOM     11  N   UNL     1      10.792   2.019  23.994  0.00  0.00    +0.000 NA
ATOM     12  C   UNL     1      10.386   3.059  23.108  0.00  0.00    +0.000 A 
ATOM     13  C   UNL     1      11.642   3.912  23.288  0.00  0.00    +0.000 A 
ATOM     14  C   UNL     1      11.701   5.314  23.688  0.00  0.00    +0.000 A 
ATOM     15  C   UNL     1      10.278   5.787  23.795  0.00  0.00    +0.000 A 
ATOM     16  C   UNL     1       8.977   5.178  23.829  0.00  0.00    +0.000 A 
ATOM     17  C   UNL     1       9.161   3.698  23.721  0.00  0.00    +0.000 A 
ATOM     18  N   UNL     1       8.769   2.888  24.824  0.00  0.00    +0.000 N 
ATOM     19  H   UNL     1       9.170   3.333  25.615  0.00  0.00    +0.000 HD
ENDBRANCH   8  10
ENDBRANCH   7   8
ENDBRANCH   4   7
BRANCH   5  20
ATOM     20  C   UNL     1       6.559  -2.358  23.583  0.00  0.00    +0.000 C 
BRANCH  20  21
ATOM     21  C   UNL     1       7.110  -3.727  23.657  0.00  0.00    +0.000 C 
ATOM     22  O   UNL     1       7.425  -4.333  22.609  0.00  0.00    +0.000 OA
ATOM     23  N   UNL     1       6.774  -4.524  24.712  0.00  0.00    +0.000 N 
ATOM     24  C   UNL     1       7.935  -5.150  25.397  0.00  0.00    +0.000 C 
ATOM     25  C   UNL     1       7.537  -5.445  26.838  0.00  0.00    +0.000 C 
ATOM     26  C   UNL     1       6.043  -5.341  26.984  0.00  0.00    +0.000 C 
ATOM     27  C   UNL     1       5.366  -6.132  25.876  0.00  0.00    +0.000 C 
ATOM     28  C   UNL     1       5.623  -5.428  24.547  0.00  0.00    +0.000 C 
BRANCH  26  29
ATOM     29  C   UNL     1       5.616  -5.878  28.328  0.00  0.00    +0.000 C 
ATOM     30  O   UNL     1       6.472  -6.097  29.200  0.00  0.00    +0.000 OA
ATOM     31  N   UNL     1       4.406  -5.449  28.756  0.00  0.00    +0.000 N 
ATOM     32  C   UNL     1       3.254  -6.337  28.679  0.00  0.00    +0.000 C 
ATOM     33  C   UNL     1       2.157  -5.634  27.906  0.00  0.00    +0.000 C 
ATOM     34  C   UNL     1       2.329  -4.141  27.896  0.00  0.00    +0.000 C 
ATOM     35  C   UNL     1       2.904  -3.595  29.185  0.00  0.00    +0.000 C 
ATOM     36  C   UNL     1       4.252  -4.216  29.499  0.00  0.00    +0.000 C 
ENDBRANCH  26  29
ENDBRANCH  20  21
ENDBRANCH   5  20
TORSDOF 6
ENDMDL
MODEL 8
REMARK VINA RESULT:      -8.2      2.357      4.953
REMARK  Name = 
REMARK  6 active torsions:
REMARK  status: ('A' for Active; 'I' for Inactive)
REMARK    1  A    between atoms: C_7  and  C_8
REMARK    2  A    between atoms: C_8  and  N_11
REMARK    3  A    between atoms: N_11  and  C_13
REMARK    4  A    between atoms: C_27  and  C_28
REMARK    5  A    between atoms: C_28  and  C_31
REMARK    6  A    between atoms: C_40  and  C_42
REMARK                            x       y       z     vdW  Elec       q    Type
REMARK                         _______ _______ _______ _____ _____    ______ ____
ROOT
ATOM      1  C   UNL     1       5.965  -0.885  19.337  0.00  0.00    +0.000 A 
ATOM      2  C   UNL     1       5.172   0.335  18.920  0.00  0.00    +0.000 A 
ATOM      3  C   UNL     1       5.401   1.696  19.320  0.00  0.00    +0.000 A 
ATOM      4  C   UNL     1       6.313   1.787  20.603  0.00  0.00    +0.000 A 
ATOM      5  C   UNL     1       7.239   0.765  20.987  0.00  0.00    +0.000 A 
ATOM      6  C   UNL     1       6.820  -0.695  20.500  0.00  0.00    +0.000 A 
ENDROOT
BRANCH   4   7
ATOM      7  C   UNL     1       5.429   2.561  21.690  0.00  0.00    +0.000 C 
BRANCH   7   8
ATOM      8  N   UNL     1       6.098   3.020  22.801  0.00  0.00    +0.000 NA
ATOM      9  H   UNL     1       6.934   3.553  22.543  0.00  0.00    +0.000 HD
BRANCH   8  10
ATOM     10  C   UNL     1       5.890   2.606  23.946  0.00  0.00    +0.000 C 
ATOM     11  N   UNL     1       6.358   3.116  25.263  0.00  0.00    +0.000 NA
ATOM     12  C   UNL     1       5.506   2.512  26.233  0.00  0.00    +0.000 A 
ATOM     13  C   UNL     1       6.592   2.321  27.293  0.00  0.00    +0.000 A 
ATOM     14  C   UNL     1       6.962   1.075  27.955  0.00  0.00    +0.000 A 
ATOM     15  C   UNL     1       6.002   0.029  27.463  0.00  0.00    +0.000 A 
ATOM     16  C   UNL     1       5.037  -0.085  26.405  0.00  0.00    +0.000 A 
ATOM     17  C   UNL     1       5.038   1.201  25.643  0.00  0.00    +0.000 A 
ATOM     18  N   UNL     1       5.455   1.177  24.282  0.00  0.00    +0.000 N 
ATOM     19  H   UNL     1       6.302   0.660  24.289  0.00  0.00    +0.000 HD
ENDBRANCH   8  10
ENDBRANCH   7   8
ENDBRANCH   4   7
BRANCH   5  20
ATOM     20  C   UNL     1       8.751   0.823  20.998  0.00  0.00    +0.000 C 
BRANCH  20  21
ATOM     21  C   UNL     1       9.392   0.788  22.330  0.00  0.00    +0.000 C 
ATOM     22  O   UNL     1      10.382   1.514  22.568  0.00  0.00    +0.000 OA
ATOM     23  N   UNL     1       9.310  -0.350  23.078  0.00  0.00    +0.000 N 
ATOM     24  C   UNL     1       8.842  -0.131  24.471  0.00  0.00    +0.000 C 
ATOM     25  C   UNL     1       8.196  -1.420  24.966  0.00  0.00    +0.000 C 
ATOM     26  C   UNL     1       8.557  -2.555  24.045  0.00  0.00    +0.000 C 
ATOM     27  C   UNL     1      10.057  -2.552  23.796  0.00  0.00    +0.000 C 
ATOM     28  C   UNL     1      10.412  -1.321  22.967  0.00  0.00    +0.000 C 
BRANCH  26  29
ATOM     29  C   UNL     1       8.143  -3.870  24.659  0.00  0.00    +0.000 C 
ATOM     30  O   UNL     1       8.121  -3.989  25.894  0.00  0.00    +0.000 OA
ATOM     31  N   UNL     1       7.207  -4.555  23.963  0.00  0.00    +0.000 N 
ATOM     32  C   UNL     1       7.599  -5.709  23.165  0.00  0.00    +0.000 C 
ATOM     33  C   UNL     1       7.112  -5.497  21.745  0.00  0.00    +0.000 C 
ATOM     34  C   UNL     1       5.987  -4.505  21.667  0.00  0.00    +0.000 C 
ATOM     35  C   UNL     1       5.051  -4.564  22.855  0.00  0.00    +0.000 C 
ATOM     36  C   UNL     1       5.792  -4.326  24.158  0.00  0.00    +0.000 C 
ENDBRANCH  26  29
ENDBRANCH  20  21
ENDBRANCH   5  20
TORSDOF 6
ENDMDL
MODEL 9
REMARK VINA RESULT:      -8.2      2.447      6.239
REMARK  Name = 
REMARK  6 active torsions:
REMARK  status: ('A' for Active; 'I' for Inactive)
REMARK    1  A    between atoms: C_7  and  C_8
REMARK    2  A    between atoms: C_8  and  N_11
REMARK    3  A    between atoms: N_11  and  C_13
REMARK    4  A    between atoms: C_27  and  C_28
REMARK    5  A    between atoms: C_28  and  C_31
REMARK    6  A    between atoms: C_40  and  C_42
REMARK                            x       y       z     vdW  Elec       q    Type
REMARK                         _______ _______ _______ _____ _____    ______ ____
ROOT
ATOM      1  C   UNL     1       8.249  -4.888  25.790  0.00  0.00    +0.000 A 
ATOM      2  C   UNL     1       8.954  -4.160  24.665  0.00  0.00    +0.000 A 
ATOM      3  C   UNL     1       8.347  -3.383  23.621  0.00  0.00    +0.000 A 
ATOM      4  C   UNL     1       6.808  -3.692  23.475  0.00  0.00    +0.000 A 
ATOM      5  C   UNL     1       6.003  -4.208  24.541  0.00  0.00    +0.000 A 
ATOM      6  C   UNL     1       6.819  -5.083  25.595  0.00  0.00    +0.000 A 
ENDROOT
BRANCH   4   7
ATOM      7  C   UNL     1       6.624  -4.203  21.969  0.00  0.00    +0.000 C 
BRANCH   7   8
ATOM      8  N   UNL     1       5.725  -3.506  21.197  0.00  0.00    +0.000 NA
ATOM      9  H   UNL     1       4.939  -4.097  20.910  0.00  0.00    +0.000 HD
BRANCH   8  10
ATOM     10  C   UNL     1       5.969  -2.412  20.679  0.00  0.00    +0.000 C 
ATOM     11  N   UNL     1       6.405  -1.125  21.286  0.00  0.00    +0.000 NA
ATOM     12  C   UNL     1       6.912  -0.345  20.207  0.00  0.00    +0.000 A 
ATOM     13  C   UNL     1       6.384   0.994  20.725  0.00  0.00    +0.000 A 
ATOM     14  C   UNL     1       5.534   1.938  20.008  0.00  0.00    +0.000 A 
ATOM     15  C   UNL     1       5.356   1.385  18.622  0.00  0.00    +0.000 A 
ATOM     16  C   UNL     1       5.603   0.135  17.959  0.00  0.00    +0.000 A 
ATOM     17  C   UNL     1       6.191  -0.807  18.961  0.00  0.00    +0.000 A 
ATOM     18  N   UNL     1       5.448  -1.970  19.309  0.00  0.00    +0.000 N 
ATOM     19  H   UNL     1       4.532  -1.636  19.492  0.00  0.00    +0.000 HD
ENDBRANCH   8  10
ENDBRANCH   7   8
ENDBRANCH   4   7
BRANCH   5  20
ATOM     20  C   UNL     1       4.885  -3.518  25.292  0.00  0.00    +0.000 C 
BRANCH  20  21
ATOM     21  C   UNL     1       5.300  -2.584  26.360  0.00  0.00    +0.000 C 
ATOM     22  O   UNL     1       4.743  -2.625  27.479  0.00  0.00    +0.000 OA
ATOM     23  N   UNL     1       5.834  -1.376  26.019  0.00  0.00    +0.000 N 
ATOM     24  C   UNL     1       7.119  -1.065  26.695  0.00  0.00    +0.000 C 
ATOM     25  C   UNL     1       7.898  -0.093  25.816  0.00  0.00    +0.000 C 
ATOM     26  C   UNL     1       6.986   0.488  24.768  0.00  0.00    +0.000 C 
ATOM     27  C   UNL     1       5.706   0.980  25.424  0.00  0.00    +0.000 C 
ATOM     28  C   UNL     1       4.917  -0.227  25.924  0.00  0.00    +0.000 C 
BRANCH  26  29
ATOM     29  C   UNL     1       7.671   1.632  24.063  0.00  0.00    +0.000 C 
ATOM     30  O   UNL     1       7.380   2.800  24.365  0.00  0.00    +0.000 OA
ATOM     31  N   UNL     1       8.955   1.396  23.706  0.00  0.00    +0.000 N 
ATOM     32  C   UNL     1       9.277   1.101  22.316  0.00  0.00    +0.000 C 
ATOM     33  C   UNL     1      10.034  -0.210  22.267  0.00  0.00    +0.000 C 
ATOM     34  C   UNL     1      10.670  -0.555  23.584  0.00  0.00    +0.000 C 
ATOM     35  C   UNL     1      11.173   0.654  24.342  0.00  0.00    +0.000 C 
ATOM     36  C   UNL     1      10.056   1.646  24.610  0.00  0.00    +0.000 C 
ENDBRANCH  26  29
ENDBRANCH  20  21
ENDBRANCH   5  20
TORSDOF 6
ENDMDL
