MODEL 1
REMARK VINA RESULT:      -8.8      0.000      0.000
REMARK  Name = 
REMARK  3 active torsions:
REMARK  status: ('A' for Active; 'I' for Inactive)
REMARK    1  A    between atoms: C_4  and  C_6
REMARK    2  A    between atoms: C_21  and  C_23
REMARK    3  A    between atoms: N_39  and  C_40
REMARK                            x       y       z     vdW  Elec       q    Type
REMARK                         _______ _______ _______ _____ _____    ______ ____
ROOT
ATOM      1  C   UNL     1       6.781  -1.950  21.470  0.00  0.00    +0.000 C 
ATOM      2  C   UNL     1       7.525  -0.752  21.767  0.00  0.00    +0.000 C 
ATOM      3  C   UNL     1       8.512   0.107  20.952  0.00  0.00    +0.000 C 
ATOM      4  C   UNL     1       9.512   0.510  21.905  0.00  0.00    +0.000 C 
ATOM      5  N   UNL     1       8.961   1.291  22.991  0.00  0.00    +0.000 N 
ATOM      6  C   UNL     1       9.407   2.521  23.270  0.00  0.00    +0.000 C 
ATOM      7  O   UNL     1       8.938   3.483  22.660  0.00  0.00    +0.000 OA
ATOM      8  C   UNL     1       7.979   0.628  23.865  0.00  0.00    +0.000 C 
ATOM      9  C   UNL     1       7.016  -0.145  23.095  0.00  0.00    +0.000 C 
ATOM     10  C   UNL     1       6.339  -1.341  23.784  0.00  0.00    +0.000 C 
ATOM     11  C   UNL     1       6.285  -2.483  22.829  0.00  0.00    +0.000 C 
ATOM     12  C   UNL     1       7.393  -3.556  23.189  0.00  0.00    +0.000 C 
ATOM     13  N   UNL     1       6.648  -4.407  24.156  0.00  0.00    +0.000 N 
ATOM     14  C   UNL     1       5.222  -4.274  24.062  0.00  0.00    +0.000 C 
ATOM     15  C   UNL     1       5.030  -3.286  22.819  0.00  0.00    +0.000 C 
ENDROOT
BRANCH   3  16
ATOM     16  C   UNL     1       7.747   0.682  19.973  0.00  0.00    +0.000 A 
ATOM     17  C   UNL     1       6.663   1.590  20.503  0.00  0.00    +0.000 A 
ATOM     18  C   UNL     1       5.253   1.723  20.037  0.00  0.00    +0.000 A 
ATOM     19  C   UNL     1       5.128   0.759  18.898  0.00  0.00    +0.000 A 
ATOM     20  C   UNL     1       5.882  -0.196  18.208  0.00  0.00    +0.000 A 
ATOM     21  C   UNL     1       7.368   0.106  18.659  0.00  0.00    +0.000 A 
ENDBRANCH   3  16
BRANCH  13  22
ATOM     22  C   UNL     1       7.371  -5.360  24.764  0.00  0.00    +0.000 A 
ATOM     23  N   UNL     1       7.100  -4.991  26.169  0.00  0.00    +0.000 NA
ATOM     24  C   UNL     1       8.319  -4.971  26.772  0.00  0.00    +0.000 A 
ATOM     25  C   UNL     1       9.562  -4.837  26.411  0.00  0.00    +0.000 A 
ATOM     26  N   UNL     1       9.926  -5.118  25.266  0.00  0.00    +0.000 NA
ATOM     27  C   UNL     1       8.826  -5.518  24.542  0.00  0.00    +0.000 A 
ENDBRANCH  13  22
BRANCH   6  28
ATOM     28  C   UNL     1      10.794   2.629  23.861  0.00  0.00    +0.000 C 
ATOM     29 CL   UNL     1      11.559   4.156  23.379  0.00  0.00    +0.000 Cl
ENDBRANCH   6  28
TORSDOF 3
ENDMDL
MODEL 2
REMARK VINA RESULT:      -7.8      2.788      4.710
REMARK  Name = 
REMARK  3 active torsions:
REMARK  status: ('A' for Active; 'I' for Inactive)
REMARK    1  A    between atoms: C_4  and  C_6
REMARK    2  A    between atoms: C_21  and  C_23
REMARK    3  A    between atoms: N_39  and  C_40
REMARK                            x       y       z     vdW  Elec       q    Type
REMARK                         _______ _______ _______ _____ _____    ______ ____
ROOT
ATOM      1  C   UNL     1       8.237  -1.774  25.648  0.00  0.00    +0.000 C 
ATOM      2  C   UNL     1       7.984  -1.294  24.313  0.00  0.00    +0.000 C 
ATOM      3  C   UNL     1       7.701   0.104  23.729  0.00  0.00    +0.000 C 
ATOM      4  C   UNL     1       6.720  -0.125  22.702  0.00  0.00    +0.000 C 
ATOM      5  N   UNL     1       7.202  -1.005  21.660  0.00  0.00    +0.000 N 
ATOM      6  C   UNL     1       7.227  -0.628  20.376  0.00  0.00    +0.000 C 
ATOM      7  O   UNL     1       8.195   0.007  19.955  0.00  0.00    +0.000 OA
ATOM      8  C   UNL     1       7.542  -2.384  22.048  0.00  0.00    +0.000 C 
ATOM      9  C   UNL     1       8.291  -2.417  23.296  0.00  0.00    +0.000 C 
ATOM     10  C   UNL     1       8.205  -3.691  24.151  0.00  0.00    +0.000 C 
ATOM     11  C   UNL     1       8.067  -3.304  25.584  0.00  0.00    +0.000 C 
ATOM     12  C   UNL     1       6.569  -3.493  26.064  0.00  0.00    +0.000 C 
ATOM     13  N   UNL     1       6.601  -4.912  26.513  0.00  0.00    +0.000 N 
ATOM     14  C   UNL     1       7.923  -5.402  26.783  0.00  0.00    +0.000 C 
ATOM     15  C   UNL     1       8.841  -4.109  26.570  0.00  0.00    +0.000 C 
ENDROOT
BRANCH   3  16
ATOM     16  C   UNL     1       8.876   0.789  23.880  0.00  0.00    +0.000 A 
ATOM     17  C   UNL     1       8.737   2.069  24.668  0.00  0.00    +0.000 A 
ATOM     18  C   UNL     1       9.369   3.395  24.406  0.00  0.00    +0.000 A 
ATOM     19  C   UNL     1      10.203   3.191  23.179  0.00  0.00    +0.000 A 
ATOM     20  C   UNL     1      10.517   2.200  22.243  0.00  0.00    +0.000 A 
ATOM     21  C   UNL     1      10.013   0.867  22.928  0.00  0.00    +0.000 A 
ENDBRANCH   3  16
BRANCH  13  22
ATOM     22  C   UNL     1       5.416  -5.432  26.867  0.00  0.00    +0.000 A 
ATOM     23  N   UNL     1       5.050  -4.467  27.925  0.00  0.00    +0.000 NA
ATOM     24  C   UNL     1       4.665  -5.230  28.983  0.00  0.00    +0.000 A 
ATOM     25  C   UNL     1       4.860  -6.445  29.408  0.00  0.00    +0.000 A 
ATOM     26  N   UNL     1       5.163  -7.351  28.627  0.00  0.00    +0.000 NA
ATOM     27  C   UNL     1       5.272  -6.820  27.361  0.00  0.00    +0.000 A 
ENDBRANCH  13  22
BRANCH   6  28
ATOM     28  C   UNL     1       5.894  -0.489  19.677  0.00  0.00    +0.000 C 
ATOM     29 CL   UNL     1       6.044   0.561  18.254  0.00  0.00    +0.000 Cl
ENDBRANCH   6  28
TORSDOF 3
ENDMDL
MODEL 3
REMARK VINA RESULT:      -7.4      4.662      7.850
REMARK  Name = 
REMARK  3 active torsions:
REMARK  status: ('A' for Active; 'I' for Inactive)
REMARK    1  A    between atoms: C_4  and  C_6
REMARK    2  A    between atoms: C_21  and  C_23
REMARK    3  A    between atoms: N_39  and  C_40
REMARK                            x       y       z     vdW  Elec       q    Type
REMARK                         _______ _______ _______ _____ _____    ______ ____
ROOT
ATOM      1  C   UNL     1       6.707  -3.226  23.781  0.00  0.00    +0.000 C 
ATOM      2  C   UNL     1       6.323  -4.027  24.917  0.00  0.00    +0.000 C 
ATOM      3  C   UNL     1       4.962  -4.472  25.484  0.00  0.00    +0.000 C 
ATOM      4  C   UNL     1       5.127  -4.411  26.912  0.00  0.00    +0.000 C 
ATOM      5  N   UNL     1       6.170  -5.294  27.388  0.00  0.00    +0.000 N 
ATOM      6  C   UNL     1       5.928  -6.240  28.303  0.00  0.00    +0.000 C 
ATOM      7  O   UNL     1       5.502  -7.336  27.934  0.00  0.00    +0.000 OA
ATOM      8  C   UNL     1       7.542  -5.023  26.927  0.00  0.00    +0.000 C 
ATOM      9  C   UNL     1       7.575  -4.722  25.503  0.00  0.00    +0.000 C 
ATOM     10  C   UNL     1       8.729  -3.851  24.981  0.00  0.00    +0.000 C 
ATOM     11  C   UNL     1       8.189  -2.865  24.003  0.00  0.00    +0.000 C 
ATOM     12  C   UNL     1       8.085  -1.431  24.668  0.00  0.00    +0.000 C 
ATOM     13  N   UNL     1       9.440  -0.891  24.371  0.00  0.00    +0.000 N 
ATOM     14  C   UNL     1      10.109  -1.571  23.298  0.00  0.00    +0.000 C 
ATOM     15  C   UNL     1       9.009  -2.612  22.785  0.00  0.00    +0.000 C 
ENDROOT
BRANCH   3  16
ATOM     16  C   UNL     1       4.465  -5.343  24.553  0.00  0.00    +0.000 A 
ATOM     17  C   UNL     1       3.322  -4.780  23.742  0.00  0.00    +0.000 A 
ATOM     18  C   UNL     1       2.062  -5.457  23.317  0.00  0.00    +0.000 A 
ATOM     19  C   UNL     1       2.168  -6.849  23.859  0.00  0.00    +0.000 A 
ATOM     20  C   UNL     1       3.025  -7.642  24.628  0.00  0.00    +0.000 A 
ATOM     21  C   UNL     1       4.378  -6.822  24.645  0.00  0.00    +0.000 A 
ENDBRANCH   3  16
BRANCH  13  22
ATOM     22  C   UNL     1       9.725   0.295  24.930  0.00  0.00    +0.000 A 
ATOM     23  N   UNL     1       8.399   0.935  24.796  0.00  0.00    +0.000 NA
ATOM     24  C   UNL     1       8.650   2.161  24.264  0.00  0.00    +0.000 A 
ATOM     25  C   UNL     1       9.593   2.728  23.569  0.00  0.00    +0.000 A 
ATOM     26  N   UNL     1      10.750   2.298  23.597  0.00  0.00    +0.000 NA
ATOM     27  C   UNL     1      10.785   1.186  24.409  0.00  0.00    +0.000 A 
ENDBRANCH  13  22
BRANCH   6  28
ATOM     28  C   UNL     1       5.643  -5.774  29.712  0.00  0.00    +0.000 C 
ATOM     29 CL   UNL     1       3.899  -5.816  30.040  0.00  0.00    +0.000 Cl
ENDBRANCH   6  28
TORSDOF 3
ENDMDL
MODEL 4
REMARK VINA RESULT:      -7.3      3.102      4.421
REMARK  Name = 
REMARK  3 active torsions:
REMARK  status: ('A' for Active; 'I' for Inactive)
REMARK    1  A    between atoms: C_4  and  C_6
REMARK    2  A    between atoms: C_21  and  C_23
REMARK    3  A    between atoms: N_39  and  C_40
REMARK                            x       y       z     vdW  Elec       q    Type
REMARK                         _______ _______ _______ _____ _____    ______ ____
ROOT
ATOM      1  C   UNL     1       8.190  -3.404  23.342  0.00  0.00    +0.000 C 
ATOM      2  C   UNL     1       8.125  -2.204  24.138  0.00  0.00    +0.000 C 
ATOM      3  C   UNL     1       9.193  -1.346  24.842  0.00  0.00    +0.000 C 
ATOM      4  C   UNL     1       8.573  -0.939  26.075  0.00  0.00    +0.000 C 
ATOM      5  N   UNL     1       7.375  -0.156  25.862  0.00  0.00    +0.000 N 
ATOM      6  C   UNL     1       7.241   1.076  26.368  0.00  0.00    +0.000 C 
ATOM      7  O   UNL     1       7.690   2.036  25.738  0.00  0.00    +0.000 OA
ATOM      8  C   UNL     1       6.252  -0.818  25.180  0.00  0.00    +0.000 C 
ATOM      9  C   UNL     1       6.708  -1.595  24.035  0.00  0.00    +0.000 C 
ATOM     10  C   UNL     1       5.849  -2.790  23.592  0.00  0.00    +0.000 C 
ATOM     11  C   UNL     1       6.745  -3.935  23.264  0.00  0.00    +0.000 C 
ATOM     12  C   UNL     1       6.720  -5.005  24.432  0.00  0.00    +0.000 C 
ATOM     13  N   UNL     1       5.576  -5.855  24.003  0.00  0.00    +0.000 N 
ATOM     14  C   UNL     1       5.252  -5.725  22.611  0.00  0.00    +0.000 C 
ATOM     15  C   UNL     1       6.387  -4.741  22.063  0.00  0.00    +0.000 C 
ENDROOT
BRANCH   3  16
ATOM     16  C   UNL     1       9.908  -0.775  23.825  0.00  0.00    +0.000 A 
ATOM     17  C   UNL     1      10.418   0.610  24.143  0.00  0.00    +0.000 A 
ATOM     18  C   UNL     1      10.455   1.812  23.261  0.00  0.00    +0.000 A 
ATOM     19  C   UNL     1       9.882   1.353  21.955  0.00  0.00    +0.000 A 
ATOM     20  C   UNL     1       9.323   0.215  21.366  0.00  0.00    +0.000 A 
ATOM     21  C   UNL     1       9.711  -0.950  22.364  0.00  0.00    +0.000 A 
ENDBRANCH   3  16
BRANCH  13  22
ATOM     22  C   UNL     1       5.204  -6.805  24.874  0.00  0.00    +0.000 A 
ATOM     23  N   UNL     1       3.965  -7.256  24.204  0.00  0.00    +0.000 NA
ATOM     24  C   UNL     1       3.022  -7.281  25.184  0.00  0.00    +0.000 A 
ATOM     25  C   UNL     1       2.833  -6.724  26.345  0.00  0.00    +0.000 A 
ATOM     26  N   UNL     1       3.784  -6.310  27.014  0.00  0.00    +0.000 NA
ATOM     27  C   UNL     1       4.945  -6.518  26.303  0.00  0.00    +0.000 A 
ENDBRANCH  13  22
BRANCH   6  28
ATOM     28  C   UNL     1       7.079   1.188  27.866  0.00  0.00    +0.000 C 
ATOM     29 CL   UNL     1       5.454   0.671  28.357  0.00  0.00    +0.000 Cl
ENDBRANCH   6  28
TORSDOF 3
ENDMDL
MODEL 5
REMARK VINA RESULT:      -7.1      2.782      5.140
REMARK  Name = 
REMARK  3 active torsions:
REMARK  status: ('A' for Active; 'I' for Inactive)
REMARK    1  A    between atoms: C_4  and  C_6
REMARK    2  A    between atoms: C_21  and  C_23
REMARK    3  A    between atoms: N_39  and  C_40
REMARK                            x       y       z     vdW  Elec       q    Type
REMARK                         _______ _______ _______ _____ _____    ______ ____
ROOT
ATOM      1  C   UNL     1       6.848  -2.160  25.594  0.00  0.00    +0.000 C 
ATOM      2  C   UNL     1       7.040  -1.404  24.382  0.00  0.00    +0.000 C 
ATOM      3  C   UNL     1       7.097   0.105  24.077  0.00  0.00    +0.000 C 
ATOM      4  C   UNL     1       6.426   0.244  22.811  0.00  0.00    +0.000 C 
ATOM      5  N   UNL     1       7.079  -0.497  21.753  0.00  0.00    +0.000 N 
ATOM      6  C   UNL     1       7.509   0.103  20.637  0.00  0.00    +0.000 C 
ATOM      7  O   UNL     1       8.623   0.629  20.628  0.00  0.00    +0.000 OA
ATOM      8  C   UNL     1       7.134  -1.961  21.893  0.00  0.00    +0.000 C 
ATOM      9  C   UNL     1       7.492  -2.354  23.248  0.00  0.00    +0.000 C 
ATOM     10  C   UNL     1       7.021  -3.731  23.743  0.00  0.00    +0.000 C 
ATOM     11  C   UNL     1       6.529  -3.600  25.145  0.00  0.00    +0.000 C 
ATOM     12  C   UNL     1       4.945  -3.614  25.176  0.00  0.00    +0.000 C 
ATOM     13  N   UNL     1       4.686  -5.076  25.286  0.00  0.00    +0.000 N 
ATOM     14  C   UNL     1       5.812  -5.827  25.763  0.00  0.00    +0.000 C 
ATOM     15  C   UNL     1       6.894  -4.695  26.086  0.00  0.00    +0.000 C 
ENDROOT
BRANCH   3  16
ATOM     16  C   UNL     1       8.252   0.537  24.670  0.00  0.00    +0.000 A 
ATOM     17  C   UNL     1       8.492   2.021  24.522  0.00  0.00    +0.000 A 
ATOM     18  C   UNL     1       9.772   2.730  24.230  0.00  0.00    +0.000 A 
ATOM     19  C   UNL     1      10.800   1.646  24.123  0.00  0.00    +0.000 A 
ATOM     20  C   UNL     1      10.905   0.253  24.175  0.00  0.00    +0.000 A 
ATOM     21  C   UNL     1       9.531  -0.201  24.815  0.00  0.00    +0.000 A 
ENDBRANCH   3  16
BRANCH  13  22
ATOM     22  C   UNL     1       3.397  -5.441  25.203  0.00  0.00    +0.000 A 
ATOM     23  N   UNL     1       3.585  -6.894  25.005  0.00  0.00    +0.000 NA
ATOM     24  C   UNL     1       2.790  -7.214  23.949  0.00  0.00    +0.000 A 
ATOM     25  C   UNL     1       2.252  -6.599  22.936  0.00  0.00    +0.000 A 
ATOM     26  N   UNL     1       2.033  -5.385  22.972  0.00  0.00    +0.000 NA
ATOM     27  C   UNL     1       2.479  -4.894  24.179  0.00  0.00    +0.000 A 
ENDBRANCH  13  22
BRANCH   6  28
ATOM     28  C   UNL     1       6.453   0.597  19.675  0.00  0.00    +0.000 C 
ATOM     29 CL   UNL     1       6.178  -0.593  18.387  0.00  0.00    +0.000 Cl
ENDBRANCH   6  28
TORSDOF 3
ENDMDL
MODEL 6
REMARK VINA RESULT:      -6.9      2.822      4.071
REMARK  Name = 
REMARK  3 active torsions:
REMARK  status: ('A' for Active; 'I' for Inactive)
REMARK    1  A    between atoms: C_4  and  C_6
REMARK    2  A    between atoms: C_21  and  C_23
REMARK    3  A    between atoms: N_39  and  C_40
REMARK                            x       y       z     vdW  Elec       q    Type
REMARK                         _______ _______ _______ _____ _____    ______ ____
ROOT
ATOM      1  C   UNL     1       8.538  -2.771  24.438  0.00  0.00    +0.000 C 
ATOM      2  C   UNL     1       8.166  -1.413  24.749  0.00  0.00    +0.000 C 
ATOM      3  C   UNL     1       8.950  -0.202  25.290  0.00  0.00    +0.000 C 
ATOM      4  C   UNL     1       8.029   0.455  26.181  0.00  0.00    +0.000 C 
ATOM      5  N   UNL     1       6.831   0.905  25.507  0.00  0.00    +0.000 N 
ATOM      6  C   UNL     1       6.452   2.189  25.527  0.00  0.00    +0.000 C 
ATOM      7  O   UNL     1       6.923   2.967  24.695  0.00  0.00    +0.000 OA
ATOM      8  C   UNL     1       5.968  -0.127  24.910  0.00  0.00    +0.000 C 
ATOM      9  C   UNL     1       6.749  -1.129  24.199  0.00  0.00    +0.000 C 
ATOM     10  C   UNL     1       6.147  -2.535  24.052  0.00  0.00    +0.000 C 
ATOM     11  C   UNL     1       7.214  -3.547  24.298  0.00  0.00    +0.000 C 
ATOM     12  C   UNL     1       7.047  -4.183  25.740  0.00  0.00    +0.000 C 
ATOM     13  N   UNL     1       6.128  -5.314  25.437  0.00  0.00    +0.000 N 
ATOM     14  C   UNL     1       6.110  -5.687  24.051  0.00  0.00    +0.000 C 
ATOM     15  C   UNL     1       7.224  -4.739  23.404  0.00  0.00    +0.000 C 
ENDROOT
BRANCH   3  16
ATOM     16  C   UNL     1       9.806   0.139  24.279  0.00  0.00    +0.000 A 
ATOM     17  C   UNL     1      10.260   1.579  24.326  0.00  0.00    +0.000 A 
ATOM     18  C   UNL     1      10.425   2.538  23.196  0.00  0.00    +0.000 A 
ATOM     19  C   UNL     1      10.053   1.761  21.970  0.00  0.00    +0.000 A 
ATOM     20  C   UNL     1       9.591   0.495  21.597  0.00  0.00    +0.000 A 
ATOM     21  C   UNL     1       9.829  -0.385  22.890  0.00  0.00    +0.000 A 
ENDBRANCH   3  16
BRANCH  13  22
ATOM     22  C   UNL     1       5.677  -5.993  26.503  0.00  0.00    +0.000 A 
ATOM     23  N   UNL     1       4.286  -5.492  26.521  0.00  0.00    +0.000 NA
ATOM     24  C   UNL     1       4.059  -5.126  27.810  0.00  0.00    +0.000 A 
ATOM     25  C   UNL     1       4.767  -4.782  28.847  0.00  0.00    +0.000 A 
ATOM     26  N   UNL     1       5.942  -5.141  28.961  0.00  0.00    +0.000 NA
ATOM     27  C   UNL     1       6.290  -5.867  27.844  0.00  0.00    +0.000 A 
ENDBRANCH  13  22
BRANCH   6  28
ATOM     28  C   UNL     1       5.949   2.735  26.844  0.00  0.00    +0.000 C 
ATOM     29 CL   UNL     1       7.134   3.853  27.547  0.00  0.00    +0.000 Cl
ENDBRANCH   6  28
TORSDOF 3
ENDMDL
MODEL 7
REMARK VINA RESULT:      -6.7      3.088      4.562
REMARK  Name = 
REMARK  3 active torsions:
REMARK  status: ('A' for Active; 'I' for Inactive)
REMARK    1  A    between atoms: C_4  and  C_6
REMARK    2  A    between atoms: C_21  and  C_23
REMARK    3  A    between atoms: N_39  and  C_40
REMARK                            x       y       z     vdW  Elec       q    Type
REMARK                         _______ _______ _______ _____ _____    ______ ____
ROOT
ATOM      1  C   UNL     1       6.665  -4.569  24.489  0.00  0.00    +0.000 C 
ATOM      2  C   UNL     1       6.571  -3.139  24.650  0.00  0.00    +0.000 C 
ATOM      3  C   UNL     1       7.575  -1.987  24.454  0.00  0.00    +0.000 C 
ATOM      4  C   UNL     1       7.287  -1.070  25.525  0.00  0.00    +0.000 C 
ATOM      5  N   UNL     1       5.934  -0.559  25.469  0.00  0.00    +0.000 N 
ATOM      6  C   UNL     1       5.680   0.753  25.406  0.00  0.00    +0.000 C 
ATOM      7  O   UNL     1       5.680   1.312  24.307  0.00  0.00    +0.000 OA
ATOM      8  C   UNL     1       4.841  -1.534  25.620  0.00  0.00    +0.000 C 
ATOM      9  C   UNL     1       5.090  -2.739  24.843  0.00  0.00    +0.000 C 
ATOM     10  C   UNL     1       4.438  -4.047  25.318  0.00  0.00    +0.000 C 
ATOM     11  C   UNL     1       5.429  -5.154  25.201  0.00  0.00    +0.000 C 
ATOM     12  C   UNL     1       6.012  -5.523  26.627  0.00  0.00    +0.000 C 
ATOM     13  N   UNL     1       5.021  -6.540  27.074  0.00  0.00    +0.000 N 
ATOM     14  C   UNL     1       4.265  -7.119  26.000  0.00  0.00    +0.000 C 
ATOM     15  C   UNL     1       4.918  -6.459  24.699  0.00  0.00    +0.000 C 
ENDROOT
BRANCH   3  16
ATOM     16  C   UNL     1       7.791  -1.939  23.104  0.00  0.00    +0.000 A 
ATOM     17  C   UNL     1       9.251  -1.860  22.724  0.00  0.00    +0.000 A 
ATOM     18  C   UNL     1       9.891  -1.030  21.663  0.00  0.00    +0.000 A 
ATOM     19  C   UNL     1       8.763  -0.280  21.023  0.00  0.00    +0.000 A 
ATOM     20  C   UNL     1       7.380  -0.111  21.141  0.00  0.00    +0.000 A 
ATOM     21  C   UNL     1       6.934  -1.314  22.066  0.00  0.00    +0.000 A 
ENDBRANCH   3  16
BRANCH  13  22
ATOM     22  C   UNL     1       5.164  -6.969  28.337  0.00  0.00    +0.000 A 
ATOM     23  N   UNL     1       3.791  -6.714  28.822  0.00  0.00    +0.000 NA
ATOM     24  C   UNL     1       3.948  -6.055  30.001  0.00  0.00    +0.000 A 
ATOM     25  C   UNL     1       4.864  -5.334  30.579  0.00  0.00    +0.000 A 
ATOM     26  N   UNL     1       6.054  -5.453  30.274  0.00  0.00    +0.000 NA
ATOM     27  C   UNL     1       6.158  -6.388  29.268  0.00  0.00    +0.000 A 
ENDBRANCH  13  22
BRANCH   6  28
ATOM     28  C   UNL     1       5.964   1.567  26.647  0.00  0.00    +0.000 C 
ATOM     29 CL   UNL     1       7.358   2.634  26.386  0.00  0.00    +0.000 Cl
ENDBRANCH   6  28
TORSDOF 3
ENDMDL
MODEL 8
REMARK VINA RESULT:      -6.6      2.912      4.086
REMARK  Name = 
REMARK  3 active torsions:
REMARK  status: ('A' for Active; 'I' for Inactive)
REMARK    1  A    between atoms: C_4  and  C_6
REMARK    2  A    between atoms: C_21  and  C_23
REMARK    3  A    between atoms: N_39  and  C_40
REMARK                            x       y       z     vdW  Elec       q    Type
REMARK                         _______ _______ _______ _____ _____    ______ ____
ROOT
ATOM      1  C   UNL     1       8.573  -1.176  23.960  0.00  0.00    +0.000 C 
ATOM      2  C   UNL     1       7.837  -0.143  24.645  0.00  0.00    +0.000 C 
ATOM      3  C   UNL     1       8.262   1.128  25.406  0.00  0.00    +0.000 C 
ATOM      4  C   UNL     1       7.352   1.204  26.518  0.00  0.00    +0.000 C 
ATOM      5  N   UNL     1       5.972   1.319  26.099  0.00  0.00    +0.000 N 
ATOM      6  C   UNL     1       5.202   2.344  26.486  0.00  0.00    +0.000 C 
ATOM      7  O   UNL     1       5.234   3.395  25.843  0.00  0.00    +0.000 OA
ATOM      8  C   UNL     1       5.404   0.195  25.338  0.00  0.00    +0.000 C 
ATOM      9  C   UNL     1       6.332  -0.283  24.322  0.00  0.00    +0.000 C 
ATOM     10  C   UNL     1       6.210  -1.748  23.872  0.00  0.00    +0.000 C 
ATOM     11  C   UNL     1       7.576  -2.332  23.748  0.00  0.00    +0.000 C 
ATOM     12  C   UNL     1       7.887  -3.272  24.984  0.00  0.00    +0.000 C 
ATOM     13  N   UNL     1       7.353  -4.568  24.486  0.00  0.00    +0.000 N 
ATOM     14  C   UNL     1       7.212  -4.623  23.058  0.00  0.00    +0.000 C 
ATOM     15  C   UNL     1       7.817  -3.223  22.579  0.00  0.00    +0.000 C 
ENDROOT
BRANCH   3  16
ATOM     16  C   UNL     1       8.764   1.959  24.442  0.00  0.00    +0.000 A 
ATOM     17  C   UNL     1       7.737   2.404  23.428  0.00  0.00    +0.000 A 
ATOM     18  C   UNL     1       7.889   2.537  21.950  0.00  0.00    +0.000 A 
ATOM     19  C   UNL     1       9.307   2.143  21.668  0.00  0.00    +0.000 A 
ATOM     20  C   UNL     1      10.447   1.682  22.332  0.00  0.00    +0.000 A 
ATOM     21  C   UNL     1      10.128   1.955  23.857  0.00  0.00    +0.000 A 
ENDBRANCH   3  16
BRANCH  13  22
ATOM     22  C   UNL     1       7.349  -5.572  25.376  0.00  0.00    +0.000 A 
ATOM     23  N   UNL     1       5.914  -5.922  25.318  0.00  0.00    +0.000 NA
ATOM     24  C   UNL     1       5.513  -5.993  26.616  0.00  0.00    +0.000 A 
ATOM     25  C   UNL     1       5.906  -5.525  27.765  0.00  0.00    +0.000 A 
ATOM     26  N   UNL     1       7.082  -5.200  27.952  0.00  0.00    +0.000 NA
ATOM     27  C   UNL     1       7.781  -5.392  26.781  0.00  0.00    +0.000 A 
ENDBRANCH  13  22
BRANCH   6  28
ATOM     28  C   UNL     1       4.791   2.381  27.940  0.00  0.00    +0.000 C 
ATOM     29 CL   UNL     1       5.757   3.576  28.829  0.00  0.00    +0.000 Cl
ENDBRANCH   6  28
TORSDOF 3
ENDMDL
MODEL 9
REMARK VINA RESULT:      -6.3      4.533      6.651
REMARK  Name = 
REMARK  3 active torsions:
REMARK  status: ('A' for Active; 'I' for Inactive)
REMARK    1  A    between atoms: C_4  and  C_6
REMARK    2  A    between atoms: C_21  and  C_23
REMARK    3  A    between atoms: N_39  and  C_40
REMARK                            x       y       z     vdW  Elec       q    Type
REMARK                         _______ _______ _______ _____ _____    ______ ____
ROOT
ATOM      1  C   UNL     1       6.681   0.074  24.332  0.00  0.00    +0.000 C 
ATOM      2  C   UNL     1       6.630  -1.295  23.883  0.00  0.00    +0.000 C 
ATOM      3  C   UNL     1       6.394  -1.947  22.508  0.00  0.00    +0.000 C 
ATOM      4  C   UNL     1       5.601  -3.114  22.792  0.00  0.00    +0.000 C 
ATOM      5  N   UNL     1       6.279  -4.045  23.668  0.00  0.00    +0.000 N 
ATOM      6  C   UNL     1       6.497  -5.316  23.310  0.00  0.00    +0.000 C 
ATOM      7  O   UNL     1       7.497  -5.589  22.643  0.00  0.00    +0.000 OA
ATOM      8  C   UNL     1       6.602  -3.577  25.026  0.00  0.00    +0.000 C 
ATOM      9  C   UNL     1       7.140  -2.225  25.009  0.00  0.00    +0.000 C 
ATOM     10  C   UNL     1       6.963  -1.366  26.272  0.00  0.00    +0.000 C 
ATOM     11  C   UNL     1       6.581   0.017  25.869  0.00  0.00    +0.000 C 
ATOM     12  C   UNL     1       5.033   0.252  26.110  0.00  0.00    +0.000 C 
ATOM     13  N   UNL     1       5.044   0.732  27.519  0.00  0.00    +0.000 N 
ATOM     14  C   UNL     1       6.322   1.223  27.951  0.00  0.00    +0.000 C 
ATOM     15  C   UNL     1       7.213   1.132  26.626  0.00  0.00    +0.000 C 
ENDROOT
BRANCH   3  16
ATOM     16  C   UNL     1       7.503  -1.624  21.774  0.00  0.00    +0.000 A 
ATOM     17  C   UNL     1       8.793  -2.148  22.358  0.00  0.00    +0.000 A 
ATOM     18  C   UNL     1      10.113  -1.463  22.460  0.00  0.00    +0.000 A 
ATOM     19  C   UNL     1       9.900  -0.116  21.838  0.00  0.00    +0.000 A 
ATOM     20  C   UNL     1       8.886   0.654  21.260  0.00  0.00    +0.000 A 
ATOM     21  C   UNL     1       7.738  -0.396  20.974  0.00  0.00    +0.000 A 
ENDBRANCH   3  16
BRANCH  13  22
ATOM     22  C   UNL     1       3.838   0.901  28.081  0.00  0.00    +0.000 A 
ATOM     23  N   UNL     1       3.770  -0.354  28.860  0.00  0.00    +0.000 NA
ATOM     24  C   UNL     1       2.547  -0.879  28.579  0.00  0.00    +0.000 A 
ATOM     25  C   UNL     1       1.661  -0.786  27.631  0.00  0.00    +0.000 A 
ATOM     26  N   UNL     1       1.602   0.214  26.910  0.00  0.00    +0.000 NA
ATOM     27  C   UNL     1       2.605   1.082  27.282  0.00  0.00    +0.000 A 
ENDBRANCH  13  22
BRANCH   6  28
ATOM     28  C   UNL     1       5.291  -6.224  23.236  0.00  0.00    +0.000 C 
ATOM     29 CL   UNL     1       4.782  -6.716  24.863  0.00  0.00    +0.000 Cl
ENDBRANCH   6  28
TORSDOF 3
ENDMDL
