MODEL 1
REMARK VINA RESULT:      -8.7      0.000      0.000
REMARK  Name = 
REMARK  5 active torsions:
REMARK  status: ('A' for Active; 'I' for Inactive)
REMARK    1  A    between atoms: C_9  and  S_10
REMARK    2  A    between atoms: S_10  and  N_13
REMARK    3  A    between atoms: C_21  and  C_23
REMARK    4  A    between atoms: C_23  and  C_26
REMARK    5  A    between atoms: C_36  and  C_38
REMARK                            x       y       z     vdW  Elec       q    Type
REMARK                         _______ _______ _______ _____ _____    ______ ____
ROOT
ATOM      1  N   UNL     1       5.178  -4.840  22.157  0.00  0.00    +0.000 NA
ATOM      2  C   UNL     1       6.177  -5.707  21.759  0.00  0.00    +0.000 C 
ATOM      3  C   UNL     1       7.440  -5.722  22.594  0.00  0.00    +0.000 C 
ATOM      4  N   UNL     1       7.785  -4.360  23.063  0.00  0.00    +0.000 N 
ATOM      5  C   UNL     1       8.635  -4.080  24.025  0.00  0.00    +0.000 C 
ATOM      6  O   UNL     1       9.034  -5.190  24.644  0.00  0.00    +0.000 OA
ATOM      7  C   UNL     1       7.161  -3.341  22.240  0.00  0.00    +0.000 C 
ATOM      8  C   UNL     1       5.633  -3.539  22.420  0.00  0.00    +0.000 C 
ENDROOT
BRANCH   1   9
ATOM      9  S   UNL     1       4.245  -5.403  23.388  0.00  0.00    +0.000 S 
ATOM     10  O   UNL     1       4.483  -6.811  23.532  0.00  0.00    +0.000 OA
ATOM     11  O   UNL     1       2.831  -5.103  23.039  0.00  0.00    +0.000 OA
BRANCH   9  17
ATOM     12  C   UNL     1       2.854  -5.807  26.634  0.00  0.00    +0.000 A 
ATOM     13  C   UNL     1       4.119  -6.339  27.277  0.00  0.00    +0.000 A 
ATOM     14  C   UNL     1       5.544  -6.100  26.821  0.00  0.00    +0.000 A 
ATOM     15  F   UNL     1       5.912  -5.203  27.850  0.00  0.00    +0.000 F 
ATOM     16  C   UNL     1       5.439  -5.148  25.694  0.00  0.00    +0.000 A 
ATOM     17  C   UNL     1       4.489  -4.535  24.906  0.00  0.00    +0.000 A 
ATOM     18  C   UNL     1       3.140  -4.725  25.673  0.00  0.00    +0.000 A 
ENDBRANCH   9  17
ENDBRANCH   1   9
BRANCH   5  19
ATOM     19  C   UNL     1       8.748  -2.949  24.880  0.00  0.00    +0.000 C 
BRANCH  19  20
ATOM     20  C   UNL     1       8.199  -1.606  24.749  0.00  0.00    +0.000 C 
ATOM     21  O   UNL     1       7.258  -1.351  25.586  0.00  0.00    +0.000 OA
ATOM     22  N   UNL     1       8.893  -0.486  24.414  0.00  0.00    +0.000 N 
ATOM     23  C   UNL     1      10.090  -0.118  25.139  0.00  0.00    +0.000 C 
ATOM     24  C   UNL     1      10.923   0.838  24.325  0.00  0.00    +0.000 C 
ATOM     25  O   UNL     1      10.271   1.377  23.271  0.00  0.00    +0.000 OA
ATOM     26  C   UNL     1       8.978   1.812  23.530  0.00  0.00    +0.000 C 
ATOM     27  C   UNL     1       8.102   0.586  23.814  0.00  0.00    +0.000 C 
BRANCH  26  28
ATOM     28  C   UNL     1       8.444   2.408  22.228  0.00  0.00    +0.000 A 
ATOM     29  C   UNL     1       8.668   1.344  21.182  0.00  0.00    +0.000 A 
ATOM     30  C   UNL     1       7.656   0.681  20.367  0.00  0.00    +0.000 A 
ATOM     31  C   UNL     1       6.288   1.355  20.508  0.00  0.00    +0.000 A 
ATOM     32  F   UNL     1       6.015   1.621  19.172  0.00  0.00    +0.000 F 
ATOM     33  C   UNL     1       5.901   2.441  21.397  0.00  0.00    +0.000 A 
ATOM     34  C   UNL     1       7.152   3.067  22.162  0.00  0.00    +0.000 A 
ENDBRANCH  26  28
ENDBRANCH  19  20
ENDBRANCH   5  19
TORSDOF 5
ENDMDL
MODEL 2
REMARK VINA RESULT:      -8.6      2.099      3.685
REMARK  Name = 
REMARK  5 active torsions:
REMARK  status: ('A' for Active; 'I' for Inactive)
REMARK    1  A    between atoms: C_9  and  S_10
REMARK    2  A    between atoms: S_10  and  N_13
REMARK    3  A    between atoms: C_21  and  C_23
REMARK    4  A    between atoms: C_23  and  C_26
REMARK    5  A    between atoms: C_36  and  C_38
REMARK                            x       y       z     vdW  Elec       q    Type
REMARK                         _______ _______ _______ _____ _____    ______ ____
ROOT
ATOM      1  N   UNL     1       4.419  -5.858  25.831  0.00  0.00    +0.000 NA
ATOM      2  C   UNL     1       3.349  -5.038  26.131  0.00  0.00    +0.000 C 
ATOM      3  C   UNL     1       3.596  -3.546  26.078  0.00  0.00    +0.000 C 
ATOM      4  N   UNL     1       4.947  -3.211  26.583  0.00  0.00    +0.000 N 
ATOM      5  C   UNL     1       5.564  -2.065  26.401  0.00  0.00    +0.000 C 
ATOM      6  O   UNL     1       4.883  -1.287  25.561  0.00  0.00    +0.000 OA
ATOM      7  C   UNL     1       5.476  -4.268  27.426  0.00  0.00    +0.000 C 
ATOM      8  C   UNL     1       5.600  -5.510  26.506  0.00  0.00    +0.000 C 
ENDROOT
BRANCH   1   9
ATOM      9  S   UNL     1       4.691  -6.055  24.222  0.00  0.00    +0.000 S 
ATOM     10  O   UNL     1       3.566  -5.528  23.503  0.00  0.00    +0.000 OA
ATOM     11  O   UNL     1       4.881  -7.510  23.984  0.00  0.00    +0.000 OA
BRANCH   9  17
ATOM     12  C   UNL     1       6.180  -5.749  21.009  0.00  0.00    +0.000 A 
ATOM     13  C   UNL     1       5.979  -4.252  20.889  0.00  0.00    +0.000 A 
ATOM     14  C   UNL     1       5.833  -3.258  22.024  0.00  0.00    +0.000 A 
ATOM     15  F   UNL     1       7.110  -2.663  21.904  0.00  0.00    +0.000 F 
ATOM     16  C   UNL     1       6.045  -4.042  23.260  0.00  0.00    +0.000 A 
ATOM     17  C   UNL     1       6.212  -5.345  23.676  0.00  0.00    +0.000 A 
ATOM     18  C   UNL     1       6.560  -6.144  22.378  0.00  0.00    +0.000 A 
ENDBRANCH   9  17
ENDBRANCH   1   9
BRANCH   5  19
ATOM     19  C   UNL     1       6.946  -1.731  26.401  0.00  0.00    +0.000 C 
BRANCH  19  20
ATOM     20  C   UNL     1       7.653  -0.624  25.771  0.00  0.00    +0.000 C 
ATOM     21  O   UNL     1       8.045   0.276  26.599  0.00  0.00    +0.000 OA
ATOM     22  N   UNL     1       8.476  -0.710  24.692  0.00  0.00    +0.000 N 
ATOM     23  C   UNL     1       9.575  -1.651  24.679  0.00  0.00    +0.000 C 
ATOM     24  C   UNL     1      10.031  -1.905  23.265  0.00  0.00    +0.000 C 
ATOM     25  O   UNL     1       9.559  -1.014  22.366  0.00  0.00    +0.000 OA
ATOM     26  C   UNL     1       9.611   0.315  22.761  0.00  0.00    +0.000 C 
ATOM     27  C   UNL     1       8.621   0.518  23.913  0.00  0.00    +0.000 C 
BRANCH  26  28
ATOM     28  C   UNL     1       9.065   1.142  21.597  0.00  0.00    +0.000 A 
ATOM     29  C   UNL     1       8.547   0.135  20.601  0.00  0.00    +0.000 A 
ATOM     30  C   UNL     1       7.180   0.000  20.111  0.00  0.00    +0.000 A 
ATOM     31  C   UNL     1       6.307   1.181  20.545  0.00  0.00    +0.000 A 
ATOM     32  F   UNL     1       5.840   1.600  19.306  0.00  0.00    +0.000 F 
ATOM     33  C   UNL     1       6.651   2.285  21.429  0.00  0.00    +0.000 A 
ATOM     34  C   UNL     1       8.199   2.288  21.813  0.00  0.00    +0.000 A 
ENDBRANCH  26  28
ENDBRANCH  19  20
ENDBRANCH   5  19
TORSDOF 5
ENDMDL
MODEL 3
REMARK VINA RESULT:      -8.3      2.892      4.456
REMARK  Name = 
REMARK  5 active torsions:
REMARK  status: ('A' for Active; 'I' for Inactive)
REMARK    1  A    between atoms: C_9  and  S_10
REMARK    2  A    between atoms: S_10  and  N_13
REMARK    3  A    between atoms: C_21  and  C_23
REMARK    4  A    between atoms: C_23  and  C_26
REMARK    5  A    between atoms: C_36  and  C_38
REMARK                            x       y       z     vdW  Elec       q    Type
REMARK                         _______ _______ _______ _____ _____    ______ ____
ROOT
ATOM      1  N   UNL     1       8.446  -2.656  25.845  0.00  0.00    +0.000 NA
ATOM      2  C   UNL     1       7.506  -3.020  26.790  0.00  0.00    +0.000 C 
ATOM      3  C   UNL     1       6.235  -2.199  26.840  0.00  0.00    +0.000 C 
ATOM      4  N   UNL     1       6.516  -0.767  26.590  0.00  0.00    +0.000 N 
ATOM      5  C   UNL     1       5.617   0.142  26.284  0.00  0.00    +0.000 C 
ATOM      6  O   UNL     1       4.430  -0.419  26.064  0.00  0.00    +0.000 OA
ATOM      7  C   UNL     1       7.907  -0.445  26.850  0.00  0.00    +0.000 C 
ATOM      8  C   UNL     1       8.724  -1.281  25.830  0.00  0.00    +0.000 C 
ENDROOT
BRANCH   1   9
ATOM      9  S   UNL     1       8.136  -3.216  24.331  0.00  0.00    +0.000 S 
ATOM     10  O   UNL     1       9.365  -3.222  23.589  0.00  0.00    +0.000 OA
ATOM     11  O   UNL     1       7.117  -2.316  23.730  0.00  0.00    +0.000 OA
BRANCH   9  17
ATOM     12  C   UNL     1       5.152  -4.399  22.805  0.00  0.00    +0.000 A 
ATOM     13  C   UNL     1       5.842  -5.252  21.760  0.00  0.00    +0.000 A 
ATOM     14  C   UNL     1       7.229  -5.856  21.847  0.00  0.00    +0.000 A 
ATOM     15  F   UNL     1       6.827  -7.195  22.055  0.00  0.00    +0.000 F 
ATOM     16  C   UNL     1       7.710  -5.533  23.208  0.00  0.00    +0.000 A 
ATOM     17  C   UNL     1       7.350  -4.797  24.316  0.00  0.00    +0.000 A 
ATOM     18  C   UNL     1       5.836  -4.467  24.109  0.00  0.00    +0.000 A 
ENDBRANCH   9  17
ENDBRANCH   1   9
BRANCH   5  19
ATOM     19  C   UNL     1       5.732   1.382  25.597  0.00  0.00    +0.000 C 
BRANCH  19  20
ATOM     20  C   UNL     1       5.921   1.666  24.180  0.00  0.00    +0.000 C 
ATOM     21  O   UNL     1       5.241   2.671  23.760  0.00  0.00    +0.000 OA
ATOM     22  N   UNL     1       7.077   1.510  23.481  0.00  0.00    +0.000 N 
ATOM     23  C   UNL     1       8.306   2.114  23.948  0.00  0.00    +0.000 C 
ATOM     24  C   UNL     1       9.496   1.440  23.314  0.00  0.00    +0.000 C 
ATOM     25  O   UNL     1       9.187   0.659  22.256  0.00  0.00    +0.000 OA
ATOM     26  C   UNL     1       8.284   1.207  21.355  0.00  0.00    +0.000 C 
ATOM     27  C   UNL     1       6.918   1.314  22.042  0.00  0.00    +0.000 C 
BRANCH  26  28
ATOM     28  C   UNL     1       8.103   0.184  20.234  0.00  0.00    +0.000 A 
ATOM     29  C   UNL     1       7.611  -1.069  20.914  0.00  0.00    +0.000 A 
ATOM     30  C   UNL     1       6.352  -1.766  20.678  0.00  0.00    +0.000 A 
ATOM     31  C   UNL     1       5.626  -1.216  19.446  0.00  0.00    +0.000 A 
ATOM     32  F   UNL     1       5.468  -2.389  18.719  0.00  0.00    +0.000 F 
ATOM     33  C   UNL     1       5.987  -0.075  18.617  0.00  0.00    +0.000 A 
ATOM     34  C   UNL     1       7.418   0.517  18.998  0.00  0.00    +0.000 A 
ENDBRANCH  26  28
ENDBRANCH  19  20
ENDBRANCH   5  19
TORSDOF 5
ENDMDL
MODEL 4
REMARK VINA RESULT:      -8.2      2.814      4.223
REMARK  Name = 
REMARK  5 active torsions:
REMARK  status: ('A' for Active; 'I' for Inactive)
REMARK    1  A    between atoms: C_9  and  S_10
REMARK    2  A    between atoms: S_10  and  N_13
REMARK    3  A    between atoms: C_21  and  C_23
REMARK    4  A    between atoms: C_23  and  C_26
REMARK    5  A    between atoms: C_36  and  C_38
REMARK                            x       y       z     vdW  Elec       q    Type
REMARK                         _______ _______ _______ _____ _____    ______ ____
ROOT
ATOM      1  N   UNL     1       4.773  -4.825  27.769  0.00  0.00    +0.000 NA
ATOM      2  C   UNL     1       3.752  -4.590  26.869  0.00  0.00    +0.000 C 
ATOM      3  C   UNL     1       3.804  -3.285  26.104  0.00  0.00    +0.000 C 
ATOM      4  N   UNL     1       4.303  -2.185  26.959  0.00  0.00    +0.000 N 
ATOM      5  C   UNL     1       4.732  -1.021  26.527  0.00  0.00    +0.000 C 
ATOM      6  O   UNL     1       4.816  -1.009  25.198  0.00  0.00    +0.000 OA
ATOM      7  C   UNL     1       4.144  -2.494  28.368  0.00  0.00    +0.000 C 
ATOM      8  C   UNL     1       5.031  -3.741  28.622  0.00  0.00    +0.000 C 
ENDROOT
BRANCH   1   9
ATOM      9  S   UNL     1       6.159  -5.389  27.089  0.00  0.00    +0.000 S 
ATOM     10  O   UNL     1       5.819  -6.432  26.163  0.00  0.00    +0.000 OA
ATOM     11  O   UNL     1       7.024  -5.877  28.195  0.00  0.00    +0.000 OA
BRANCH   9  17
ATOM     12  C   UNL     1       9.458  -5.368  25.766  0.00  0.00    +0.000 A 
ATOM     13  C   UNL     1       9.040  -5.268  24.313  0.00  0.00    +0.000 A 
ATOM     14  C   UNL     1       7.742  -4.700  23.775  0.00  0.00    +0.000 A 
ATOM     15  F   UNL     1       8.275  -3.497  23.258  0.00  0.00    +0.000 F 
ATOM     16  C   UNL     1       7.031  -4.164  24.956  0.00  0.00    +0.000 A 
ATOM     17  C   UNL     1       7.131  -4.126  26.330  0.00  0.00    +0.000 A 
ATOM     18  C   UNL     1       8.605  -4.543  26.641  0.00  0.00    +0.000 A 
ENDBRANCH   9  17
ENDBRANCH   1   9
BRANCH   5  19
ATOM     19  C   UNL     1       5.624  -0.075  27.104  0.00  0.00    +0.000 C 
BRANCH  19  20
ATOM     20  C   UNL     1       6.601   0.808  26.480  0.00  0.00    +0.000 C 
ATOM     21  O   UNL     1       6.849   1.867  27.162  0.00  0.00    +0.000 OA
ATOM     22  N   UNL     1       7.676   0.419  25.743  0.00  0.00    +0.000 N 
ATOM     23  C   UNL     1       8.618  -0.544  26.271  0.00  0.00    +0.000 C 
ATOM     24  C   UNL     1       9.417  -1.162  25.152  0.00  0.00    +0.000 C 
ATOM     25  O   UNL     1       9.320  -0.504  23.976  0.00  0.00    +0.000 OA
ATOM     26  C   UNL     1       9.413   0.879  24.058  0.00  0.00    +0.000 C 
ATOM     27  C   UNL     1       8.172   1.406  24.788  0.00  0.00    +0.000 C 
BRANCH  26  28
ATOM     28  C   UNL     1       9.311   1.413  22.630  0.00  0.00    +0.000 A 
ATOM     29  C   UNL     1       9.605   0.231  21.741  0.00  0.00    +0.000 A 
ATOM     30  C   UNL     1       8.725  -0.360  20.739  0.00  0.00    +0.000 A 
ATOM     31  C   UNL     1       7.491   0.511  20.488  0.00  0.00    +0.000 A 
ATOM     32  F   UNL     1       7.593   0.680  19.113  0.00  0.00    +0.000 F 
ATOM     33  C   UNL     1       7.082   1.723  21.183  0.00  0.00    +0.000 A 
ATOM     34  C   UNL     1       8.197   2.239  22.200  0.00  0.00    +0.000 A 
ENDBRANCH  26  28
ENDBRANCH  19  20
ENDBRANCH   5  19
TORSDOF 5
ENDMDL
MODEL 5
REMARK VINA RESULT:      -8.1      3.098      5.175
REMARK  Name = 
REMARK  5 active torsions:
REMARK  status: ('A' for Active; 'I' for Inactive)
REMARK    1  A    between atoms: C_9  and  S_10
REMARK    2  A    between atoms: S_10  and  N_13
REMARK    3  A    between atoms: C_21  and  C_23
REMARK    4  A    between atoms: C_23  and  C_26
REMARK    5  A    between atoms: C_36  and  C_38
REMARK                            x       y       z     vdW  Elec       q    Type
REMARK                         _______ _______ _______ _____ _____    ______ ____
ROOT
ATOM      1  N   UNL     1       6.227  -0.740  27.446  0.00  0.00    +0.000 NA
ATOM      2  C   UNL     1       4.955  -0.252  27.671  0.00  0.00    +0.000 C 
ATOM      3  C   UNL     1       4.510   0.914  26.815  0.00  0.00    +0.000 C 
ATOM      4  N   UNL     1       5.629   1.852  26.569  0.00  0.00    +0.000 N 
ATOM      5  C   UNL     1       5.647   2.788  25.646  0.00  0.00    +0.000 C 
ATOM      6  O   UNL     1       4.591   2.684  24.843  0.00  0.00    +0.000 OA
ATOM      7  C   UNL     1       6.674   1.704  27.565  0.00  0.00    +0.000 C 
ATOM      8  C   UNL     1       7.211   0.260  27.391  0.00  0.00    +0.000 C 
ENDROOT
BRANCH   1   9
ATOM      9  S   UNL     1       6.344  -1.760  26.162  0.00  0.00    +0.000 S 
ATOM     10  O   UNL     1       6.864  -1.025  25.044  0.00  0.00    +0.000 OA
ATOM     11  O   UNL     1       4.982  -2.295  25.902  0.00  0.00    +0.000 OA
BRANCH   9  17
ATOM     12  C   UNL     1       6.825  -4.793  24.372  0.00  0.00    +0.000 A 
ATOM     13  C   UNL     1       8.258  -4.509  23.971  0.00  0.00    +0.000 A 
ATOM     14  C   UNL     1       9.240  -3.599  24.682  0.00  0.00    +0.000 A 
ATOM     15  F   UNL     1      10.050  -4.614  25.241  0.00  0.00    +0.000 F 
ATOM     16  C   UNL     1       8.540  -3.147  25.904  0.00  0.00    +0.000 A 
ATOM     17  C   UNL     1       7.299  -3.206  26.501  0.00  0.00    +0.000 A 
ATOM     18  C   UNL     1       6.541  -4.347  25.748  0.00  0.00    +0.000 A 
ENDBRANCH   9  17
ENDBRANCH   1   9
BRANCH   5  19
ATOM     19  C   UNL     1       6.728   3.437  24.988  0.00  0.00    +0.000 C 
BRANCH  19  20
ATOM     20  C   UNL     1       7.401   3.120  23.735  0.00  0.00    +0.000 C 
ATOM     21  O   UNL     1       7.716   4.155  23.043  0.00  0.00    +0.000 OA
ATOM     22  N   UNL     1       8.267   2.092  23.530  0.00  0.00    +0.000 N 
ATOM     23  C   UNL     1       9.412   1.911  24.396  0.00  0.00    +0.000 C 
ATOM     24  C   UNL     1       9.933   0.501  24.288  0.00  0.00    +0.000 C 
ATOM     25  O   UNL     1       9.450  -0.186  23.229  0.00  0.00    +0.000 OA
ATOM     26  C   UNL     1       9.420   0.513  22.030  0.00  0.00    +0.000 C 
ATOM     27  C   UNL     1       8.379   1.632  22.147  0.00  0.00    +0.000 C 
BRANCH  26  28
ATOM     28  C   UNL     1       8.876  -0.448  20.973  0.00  0.00    +0.000 A 
ATOM     29  C   UNL     1       8.197  -1.549  21.748  0.00  0.00    +0.000 A 
ATOM     30  C   UNL     1       6.793  -1.938  21.683  0.00  0.00    +0.000 A 
ATOM     31  C   UNL     1       6.069  -1.243  20.526  0.00  0.00    +0.000 A 
ATOM     32  F   UNL     1       5.560  -2.353  19.863  0.00  0.00    +0.000 F 
ATOM     33  C   UNL     1       6.577  -0.221  19.623  0.00  0.00    +0.000 A 
ATOM     34  C   UNL     1       8.141   0.027  19.815  0.00  0.00    +0.000 A 
ENDBRANCH  26  28
ENDBRANCH  19  20
ENDBRANCH   5  19
TORSDOF 5
ENDMDL
MODEL 6
REMARK VINA RESULT:      -7.9      1.753      2.409
REMARK  Name = 
REMARK  5 active torsions:
REMARK  status: ('A' for Active; 'I' for Inactive)
REMARK    1  A    between atoms: C_9  and  S_10
REMARK    2  A    between atoms: S_10  and  N_13
REMARK    3  A    between atoms: C_21  and  C_23
REMARK    4  A    between atoms: C_23  and  C_26
REMARK    5  A    between atoms: C_36  and  C_38
REMARK                            x       y       z     vdW  Elec       q    Type
REMARK                         _______ _______ _______ _____ _____    ______ ____
ROOT
ATOM      1  N   UNL     1       4.894  -5.417  22.330  0.00  0.00    +0.000 NA
ATOM      2  C   UNL     1       5.997  -6.116  21.882  0.00  0.00    +0.000 C 
ATOM      3  C   UNL     1       7.330  -5.760  22.504  0.00  0.00    +0.000 C 
ATOM      4  N   UNL     1       7.429  -4.304  22.755  0.00  0.00    +0.000 N 
ATOM      5  C   UNL     1       8.316  -3.725  23.534  0.00  0.00    +0.000 C 
ATOM      6  O   UNL     1       9.023  -4.633  24.205  0.00  0.00    +0.000 OA
ATOM      7  C   UNL     1       6.497  -3.558  21.929  0.00  0.00    +0.000 C 
ATOM      8  C   UNL     1       5.086  -4.028  22.368  0.00  0.00    +0.000 C 
ENDROOT
BRANCH   1   9
ATOM      9  S   UNL     1       4.273  -5.970  23.748  0.00  0.00    +0.000 S 
ATOM     10  O   UNL     1       4.831  -7.266  24.014  0.00  0.00    +0.000 OA
ATOM     11  O   UNL     1       2.795  -6.013  23.592  0.00  0.00    +0.000 OA
BRANCH   9  17
ATOM     12  C   UNL     1       3.657  -6.265  27.236  0.00  0.00    +0.000 A 
ATOM     13  C   UNL     1       5.115  -6.336  27.643  0.00  0.00    +0.000 A 
ATOM     14  C   UNL     1       6.303  -5.787  26.879  0.00  0.00    +0.000 A 
ATOM     15  F   UNL     1       6.565  -4.686  27.726  0.00  0.00    +0.000 F 
ATOM     16  C   UNL     1       5.725  -5.072  25.721  0.00  0.00    +0.000 A 
ATOM     17  C   UNL     1       4.514  -4.860  25.099  0.00  0.00    +0.000 A 
ATOM     18  C   UNL     1       3.438  -5.297  26.146  0.00  0.00    +0.000 A 
ENDBRANCH   9  17
ENDBRANCH   1   9
BRANCH   5  19
ATOM     19  C   UNL     1       8.290  -2.483  24.226  0.00  0.00    +0.000 C 
BRANCH  19  20
ATOM     20  C   UNL     1       9.039  -1.255  23.994  0.00  0.00    +0.000 C 
ATOM     21  O   UNL     1      10.272  -1.329  24.344  0.00  0.00    +0.000 OA
ATOM     22  N   UNL     1       8.860  -0.392  22.958  0.00  0.00    +0.000 N 
ATOM     23  C   UNL     1       8.874  -0.869  21.593  0.00  0.00    +0.000 C 
ATOM     24  C   UNL     1       8.204   0.128  20.682  0.00  0.00    +0.000 C 
ATOM     25  O   UNL     1       8.012   1.343  21.241  0.00  0.00    +0.000 OA
ATOM     26  C   UNL     1       9.091   1.846  21.955  0.00  0.00    +0.000 C 
ATOM     27  C   UNL     1       9.290   0.982  23.205  0.00  0.00    +0.000 C 
BRANCH  26  28
ATOM     28  C   UNL     1       8.676   3.225  22.467  0.00  0.00    +0.000 A 
ATOM     29  C   UNL     1       7.178   3.279  22.295  0.00  0.00    +0.000 A 
ATOM     30  C   UNL     1       6.176   3.464  23.338  0.00  0.00    +0.000 A 
ATOM     31  C   UNL     1       6.817   3.849  24.675  0.00  0.00    +0.000 A 
ATOM     32  F   UNL     1       6.125   5.023  24.942  0.00  0.00    +0.000 F 
ATOM     33  C   UNL     1       8.231   3.930  25.010  0.00  0.00    +0.000 A 
ATOM     34  C   UNL     1       9.164   3.751  23.730  0.00  0.00    +0.000 A 
ENDBRANCH  26  28
ENDBRANCH  19  20
ENDBRANCH   5  19
TORSDOF 5
ENDMDL
MODEL 7
REMARK VINA RESULT:      -7.8      3.135      4.733
REMARK  Name = 
REMARK  5 active torsions:
REMARK  status: ('A' for Active; 'I' for Inactive)
REMARK    1  A    between atoms: C_9  and  S_10
REMARK    2  A    between atoms: S_10  and  N_13
REMARK    3  A    between atoms: C_21  and  C_23
REMARK    4  A    between atoms: C_23  and  C_26
REMARK    5  A    between atoms: C_36  and  C_38
REMARK                            x       y       z     vdW  Elec       q    Type
REMARK                         _______ _______ _______ _____ _____    ______ ____
ROOT
ATOM      1  N   UNL     1       8.076  -2.644  26.004  0.00  0.00    +0.000 NA
ATOM      2  C   UNL     1       7.169  -3.230  26.865  0.00  0.00    +0.000 C 
ATOM      3  C   UNL     1       5.798  -2.595  26.948  0.00  0.00    +0.000 C 
ATOM      4  N   UNL     1       5.888  -1.119  26.860  0.00  0.00    +0.000 N 
ATOM      5  C   UNL     1       4.882  -0.310  26.613  0.00  0.00    +0.000 C 
ATOM      6  O   UNL     1       3.788  -0.997  26.287  0.00  0.00    +0.000 OA
ATOM      7  C   UNL     1       7.215  -0.646  27.209  0.00  0.00    +0.000 C 
ATOM      8  C   UNL     1       8.165  -1.251  26.143  0.00  0.00    +0.000 C 
ENDROOT
BRANCH   1   9
ATOM      9  S   UNL     1       7.887  -3.073  24.428  0.00  0.00    +0.000 S 
ATOM     10  O   UNL     1       9.179  -3.373  23.880  0.00  0.00    +0.000 OA
ATOM     11  O   UNL     1       7.232  -1.931  23.738  0.00  0.00    +0.000 OA
BRANCH   9  17
ATOM     12  C   UNL     1       5.521  -3.791  21.874  0.00  0.00    +0.000 A 
ATOM     13  C   UNL     1       6.284  -4.958  21.282  0.00  0.00    +0.000 A 
ATOM     14  C   UNL     1       7.292  -5.841  21.990  0.00  0.00    +0.000 A 
ATOM     15  F   UNL     1       6.474  -6.989  22.104  0.00  0.00    +0.000 F 
ATOM     16  C   UNL     1       7.281  -5.394  23.400  0.00  0.00    +0.000 A 
ATOM     17  C   UNL     1       6.749  -4.403  24.196  0.00  0.00    +0.000 A 
ATOM     18  C   UNL     1       5.597  -3.774  23.346  0.00  0.00    +0.000 A 
ENDBRANCH   9  17
ENDBRANCH   1   9
BRANCH   5  19
ATOM     19  C   UNL     1       4.845   1.001  26.063  0.00  0.00    +0.000 C 
BRANCH  19  20
ATOM     20  C   UNL     1       5.433   1.532  24.841  0.00  0.00    +0.000 C 
ATOM     21  O   UNL     1       4.565   1.924  23.979  0.00  0.00    +0.000 OA
ATOM     22  N   UNL     1       6.589   2.243  24.752  0.00  0.00    +0.000 N 
ATOM     23  C   UNL     1       6.795   3.417  25.571  0.00  0.00    +0.000 C 
ATOM     24  C   UNL     1       8.264   3.745  25.657  0.00  0.00    +0.000 C 
ATOM     25  O   UNL     1       9.026   3.101  24.747  0.00  0.00    +0.000 OA
ATOM     26  C   UNL     1       8.514   3.070  23.457  0.00  0.00    +0.000 C 
ATOM     27  C   UNL     1       7.259   2.191  23.454  0.00  0.00    +0.000 C 
BRANCH  26  28
ATOM     28  C   UNL     1       9.537   2.331  22.595  0.00  0.00    +0.000 A 
ATOM     29  C   UNL     1      10.379   1.540  23.565  0.00  0.00    +0.000 A 
ATOM     30  C   UNL     1      10.549   0.092  23.609  0.00  0.00    +0.000 A 
ATOM     31  C   UNL     1       9.947  -0.584  22.374  0.00  0.00    +0.000 A 
ATOM     32  F   UNL     1      11.056  -1.289  21.924  0.00  0.00    +0.000 F 
ATOM     33  C   UNL     1       9.177   0.019  21.296  0.00  0.00    +0.000 A 
ATOM     34  C   UNL     1       9.149   1.610  21.395  0.00  0.00    +0.000 A 
ENDBRANCH  26  28
ENDBRANCH  19  20
ENDBRANCH   5  19
TORSDOF 5
ENDMDL
MODEL 8
REMARK VINA RESULT:      -7.8      3.197      5.139
REMARK  Name = 
REMARK  5 active torsions:
REMARK  status: ('A' for Active; 'I' for Inactive)
REMARK    1  A    between atoms: C_9  and  S_10
REMARK    2  A    between atoms: S_10  and  N_13
REMARK    3  A    between atoms: C_21  and  C_23
REMARK    4  A    between atoms: C_23  and  C_26
REMARK    5  A    between atoms: C_36  and  C_38
REMARK                            x       y       z     vdW  Elec       q    Type
REMARK                         _______ _______ _______ _____ _____    ______ ____
ROOT
ATOM      1  N   UNL     1       5.947  -1.579  26.422  0.00  0.00    +0.000 NA
ATOM      2  C   UNL     1       4.939  -1.290  27.321  0.00  0.00    +0.000 C 
ATOM      3  C   UNL     1       4.079  -0.083  27.016  0.00  0.00    +0.000 C 
ATOM      4  N   UNL     1       4.885   1.013  26.433  0.00  0.00    +0.000 N 
ATOM      5  C   UNL     1       4.402   2.061  25.804  0.00  0.00    +0.000 C 
ATOM      6  O   UNL     1       3.090   1.936  25.612  0.00  0.00    +0.000 OA
ATOM      7  C   UNL     1       6.294   0.862  26.749  0.00  0.00    +0.000 C 
ATOM      8  C   UNL     1       6.730  -0.466  26.079  0.00  0.00    +0.000 C 
ENDROOT
BRANCH   1   9
ATOM      9  S   UNL     1       5.448  -2.391  25.083  0.00  0.00    +0.000 S 
ATOM     10  O   UNL     1       5.835  -1.637  23.924  0.00  0.00    +0.000 OA
ATOM     11  O   UNL     1       3.974  -2.546  25.188  0.00  0.00    +0.000 OA
BRANCH   9  17
ATOM     12  C   UNL     1       4.687  -5.115  22.931  0.00  0.00    +0.000 A 
ATOM     13  C   UNL     1       6.015  -5.110  22.201  0.00  0.00    +0.000 A 
ATOM     14  C   UNL     1       7.338  -4.583  22.720  0.00  0.00    +0.000 A 
ATOM     15  F   UNL     1       7.954  -5.836  22.942  0.00  0.00    +0.000 F 
ATOM     16  C   UNL     1       7.078  -4.188  24.121  0.00  0.00    +0.000 A 
ATOM     17  C   UNL     1       6.035  -4.054  25.012  0.00  0.00    +0.000 A 
ATOM     18  C   UNL     1       4.851  -4.848  24.371  0.00  0.00    +0.000 A 
ENDBRANCH   9  17
ENDBRANCH   1   9
BRANCH   5  19
ATOM     19  C   UNL     1       4.981   2.924  24.834  0.00  0.00    +0.000 C 
BRANCH  19  20
ATOM     20  C   UNL     1       5.806   2.623  23.671  0.00  0.00    +0.000 C 
ATOM     21  O   UNL     1       5.194   2.773  22.552  0.00  0.00    +0.000 OA
ATOM     22  N   UNL     1       7.140   2.860  23.553  0.00  0.00    +0.000 N 
ATOM     23  C   UNL     1       7.679   4.177  23.815  0.00  0.00    +0.000 C 
ATOM     24  C   UNL     1       9.159   4.093  24.085  0.00  0.00    +0.000 C 
ATOM     25  O   UNL     1       9.717   2.912  23.738  0.00  0.00    +0.000 OA
ATOM     26  C   UNL     1       9.323   2.408  22.506  0.00  0.00    +0.000 C 
ATOM     27  C   UNL     1       7.844   2.014  22.593  0.00  0.00    +0.000 C 
BRANCH  26  28
ATOM     28  C   UNL     1      10.088   1.101  22.300  0.00  0.00    +0.000 A 
ATOM     29  C   UNL     1      10.529   0.677  23.679  0.00  0.00    +0.000 A 
ATOM     30  C   UNL     1      10.183  -0.557  24.375  0.00  0.00    +0.000 A 
ATOM     31  C   UNL     1       9.477  -1.550  23.447  0.00  0.00    +0.000 A 
ATOM     32  F   UNL     1      10.304  -2.655  23.607  0.00  0.00    +0.000 F 
ATOM     33  C   UNL     1       9.046  -1.354  22.071  0.00  0.00    +0.000 A 
ATOM     34  C   UNL     1       9.563   0.030  21.471  0.00  0.00    +0.000 A 
ENDBRANCH  26  28
ENDBRANCH  19  20
ENDBRANCH   5  19
TORSDOF 5
ENDMDL
MODEL 9
REMARK VINA RESULT:      -7.7      3.197      5.969
REMARK  Name = 
REMARK  5 active torsions:
REMARK  status: ('A' for Active; 'I' for Inactive)
REMARK    1  A    between atoms: C_9  and  S_10
REMARK    2  A    between atoms: S_10  and  N_13
REMARK    3  A    between atoms: C_21  and  C_23
REMARK    4  A    between atoms: C_23  and  C_26
REMARK    5  A    between atoms: C_36  and  C_38
REMARK                            x       y       z     vdW  Elec       q    Type
REMARK                         _______ _______ _______ _____ _____    ______ ____
ROOT
ATOM      1  N   UNL     1       6.502   1.513  26.218  0.00  0.00    +0.000 NA
ATOM      2  C   UNL     1       6.070   2.819  26.093  0.00  0.00    +0.000 C 
ATOM      3  C   UNL     1       6.043   3.398  24.695  0.00  0.00    +0.000 C 
ATOM      4  N   UNL     1       7.198   2.922  23.899  0.00  0.00    +0.000 N 
ATOM      5  C   UNL     1       7.306   3.005  22.592  0.00  0.00    +0.000 C 
ATOM      6  O   UNL     1       6.167   3.428  22.047  0.00  0.00    +0.000 OA
ATOM      7  C   UNL     1       8.276   2.458  24.753  0.00  0.00    +0.000 C 
ATOM      8  C   UNL     1       7.697   1.249  25.532  0.00  0.00    +0.000 C 
ENDROOT
BRANCH   1   9
ATOM      9  S   UNL     1       5.357   0.385  25.874  0.00  0.00    +0.000 S 
ATOM     10  O   UNL     1       5.670  -0.207  24.604  0.00  0.00    +0.000 OA
ATOM     11  O   UNL     1       4.044   1.081  25.864  0.00  0.00    +0.000 OA
BRANCH   9  17
ATOM     12  C   UNL     1       3.643  -2.727  25.976  0.00  0.00    +0.000 A 
ATOM     13  C   UNL     1       4.889  -3.588  25.982  0.00  0.00    +0.000 A 
ATOM     14  C   UNL     1       6.271  -3.190  26.462  0.00  0.00    +0.000 A 
ATOM     15  F   UNL     1       6.266  -3.941  27.659  0.00  0.00    +0.000 F 
ATOM     16  C   UNL     1       6.111  -1.832  27.026  0.00  0.00    +0.000 A 
ATOM     17  C   UNL     1       5.170  -0.832  27.139  0.00  0.00    +0.000 A 
ATOM     18  C   UNL     1       3.806  -1.519  26.806  0.00  0.00    +0.000 A 
ENDBRANCH   9  17
ENDBRANCH   1   9
BRANCH   5  19
ATOM     19  C   UNL     1       8.066   2.244  21.662  0.00  0.00    +0.000 C 
BRANCH  19  20
ATOM     20  C   UNL     1       8.059   0.814  21.380  0.00  0.00    +0.000 C 
ATOM     21  O   UNL     1       8.158   0.535  20.130  0.00  0.00    +0.000 OA
ATOM     22  N   UNL     1       8.603  -0.158  22.159  0.00  0.00    +0.000 N 
ATOM     23  C   UNL     1       9.981  -0.070  22.590  0.00  0.00    +0.000 C 
ATOM     24  C   UNL     1      10.215  -0.960  23.784  0.00  0.00    +0.000 C 
ATOM     25  O   UNL     1       9.226  -1.852  24.008  0.00  0.00    +0.000 OA
ATOM     26  C   UNL     1       8.750  -2.509  22.881  0.00  0.00    +0.000 C 
ATOM     27  C   UNL     1       8.023  -1.490  21.997  0.00  0.00    +0.000 C 
BRANCH  26  28
ATOM     28  C   UNL     1       7.673  -3.482  23.361  0.00  0.00    +0.000 A 
ATOM     29  C   UNL     1       6.414  -3.069  22.640  0.00  0.00    +0.000 A 
ATOM     30  C   UNL     1       5.616  -3.877  21.724  0.00  0.00    +0.000 A 
ATOM     31  C   UNL     1       6.062  -5.342  21.730  0.00  0.00    +0.000 A 
ATOM     32  F   UNL     1       4.853  -5.958  22.027  0.00  0.00    +0.000 F 
ATOM     33  C   UNL     1       7.194  -5.941  22.421  0.00  0.00    +0.000 A 
ATOM     34  C   UNL     1       7.905  -4.914  23.412  0.00  0.00    +0.000 A 
ENDBRANCH  26  28
ENDBRANCH  19  20
ENDBRANCH   5  19
TORSDOF 5
ENDMDL
