MODEL 1
REMARK VINA RESULT:      -8.9      0.000      0.000
REMARK  Name = 
REMARK  7 active torsions:
REMARK  status: ('A' for Active; 'I' for Inactive)
REMARK    1  A    between atoms: C_7  and  N_8
REMARK    2  A    between atoms: C_11  and  N_12
REMARK    3  A    between atoms: N_22  and  C_46
REMARK    4  A    between atoms: C_23  and  C_25
REMARK    5  A    between atoms: C_34  and  C_36
REMARK    6  A    between atoms: C_46  and  C_48
REMARK    7  A    between atoms: C_46  and  C_52
REMARK                            x       y       z     vdW  Elec       q    Type
REMARK                         _______ _______ _______ _____ _____    ______ ____
ROOT
ATOM      1  N   UNL     1       6.726  -4.959  24.271  0.00  0.00    +0.000 N 
ATOM      2  C   UNL     1       7.537  -5.211  23.101  0.00  0.00    +0.000 C 
ATOM      3  C   UNL     1       7.291  -4.238  22.013  0.00  0.00    +0.000 C 
ATOM      4  N   UNL     1       6.718  -2.910  22.444  0.00  0.00    +0.000 N 
ATOM      5  C   UNL     1       6.529  -2.098  21.367  0.00  0.00    +0.000 C 
ATOM      6  O   UNL     1       5.640  -2.459  20.604  0.00  0.00    +0.000 OA
ATOM      7  N   UNL     1       7.187  -0.938  21.264  0.00  0.00    +0.000 N 
ATOM      8  C   UNL     1       7.654  -0.507  22.462  0.00  0.00    +0.000 C 
ATOM      9  O   UNL     1       6.783  -0.143  23.272  0.00  0.00    +0.000 OA
ATOM     10  C   UNL     1       5.614  -2.976  23.391  0.00  0.00    +0.000 C 
ATOM     11  C   UNL     1       5.422  -4.342  24.008  0.00  0.00    +0.000 C 
ENDROOT
BRANCH   8  12
ATOM     12  C   UNL     1       9.090  -0.251  22.694  0.00  0.00    +0.000 C 
ATOM     13  C   UNL     1       9.407   0.090  24.121  0.00  0.00    +0.000 C 
ATOM     14  C   UNL     1       9.211   1.518  24.517  0.00  0.00    +0.000 C 
ATOM     15  N   UNL     1       9.317   2.418  23.361  0.00  0.00    +0.000 N 
ATOM     16  C   UNL     1       9.389   3.761  23.662  0.00  0.00    +0.000 C 
ATOM     17  O   UNL     1      10.478   4.310  23.634  0.00  0.00    +0.000 OA
ATOM     18  C   UNL     1      10.194   1.983  22.279  0.00  0.00    +0.000 C 
ATOM     19  C   UNL     1       9.791   0.634  21.726  0.00  0.00    +0.000 C 
BRANCH  16  20
ATOM     20  C   UNL     1       8.121   4.507  23.874  0.00  0.00    +0.000 C 
ATOM     21 CL   UNL     1       7.182   4.628  22.368  0.00  0.00    +0.000 Cl
ENDBRANCH  16  20
ENDBRANCH   8  12
BRANCH   1  26
ATOM     22  C   UNL     1       7.434  -2.427  26.520  0.00  0.00    +0.000 A 
ATOM     23  C   UNL     1       6.115  -2.726  27.225  0.00  0.00    +0.000 A 
ATOM     24  C   UNL     1       5.249  -3.887  27.123  0.00  0.00    +0.000 A 
ATOM     25  C   UNL     1       6.077  -4.967  26.383  0.00  0.00    +0.000 A 
ATOM     26  C   UNL     1       7.229  -4.927  25.534  0.00  0.00    +0.000 A 
ATOM     27  C   UNL     1       7.976  -3.620  25.855  0.00  0.00    +0.000 A 
BRANCH  25  28
ATOM     28  N   UNL     1       6.143  -5.809  27.236  0.00  0.00    +0.000 N 
ATOM     29  O   UNL     1       5.481  -6.829  26.958  0.00  0.00    +0.000 OA
ATOM     30  O   UNL     1       6.823  -6.164  28.344  0.00  0.00    +0.000 OA
ENDBRANCH  25  28
ENDBRANCH   1  26
BRANCH   7  31
ATOM     31  C   UNL     1       6.673   0.032  20.338  0.00  0.00    +0.000 C 
ATOM     32  C   UNL     1       6.451   1.413  20.906  0.00  0.00    +0.000 C 
ATOM     33  C   UNL     1       7.441   0.117  19.045  0.00  0.00    +0.000 C 
ENDBRANCH   7  31
TORSDOF 5
ENDMDL
MODEL 2
REMARK VINA RESULT:      -8.1      2.464      3.567
REMARK  Name = 
REMARK  7 active torsions:
REMARK  status: ('A' for Active; 'I' for Inactive)
REMARK    1  A    between atoms: C_7  and  N_8
REMARK    2  A    between atoms: C_11  and  N_12
REMARK    3  A    between atoms: N_22  and  C_46
REMARK    4  A    between atoms: C_23  and  C_25
REMARK    5  A    between atoms: C_34  and  C_36
REMARK    6  A    between atoms: C_46  and  C_48
REMARK    7  A    between atoms: C_46  and  C_52
REMARK                            x       y       z     vdW  Elec       q    Type
REMARK                         _______ _______ _______ _____ _____    ______ ____
ROOT
ATOM      1  N   UNL     1       6.883  -5.382  24.777  0.00  0.00    +0.000 N 
ATOM      2  C   UNL     1       7.612  -4.877  25.919  0.00  0.00    +0.000 C 
ATOM      3  C   UNL     1       8.624  -3.862  25.548  0.00  0.00    +0.000 C 
ATOM      4  N   UNL     1       8.378  -3.143  24.244  0.00  0.00    +0.000 N 
ATOM      5  C   UNL     1       9.369  -2.239  24.002  0.00  0.00    +0.000 C 
ATOM      6  O   UNL     1      10.462  -2.734  23.752  0.00  0.00    +0.000 OA
ATOM      7  N   UNL     1       9.093  -0.933  23.916  0.00  0.00    +0.000 N 
ATOM      8  C   UNL     1       7.781  -0.703  23.659  0.00  0.00    +0.000 C 
ATOM      9  O   UNL     1       7.395  -1.038  22.526  0.00  0.00    +0.000 OA
ATOM     10  C   UNL     1       8.000  -3.986  23.119  0.00  0.00    +0.000 C 
ATOM     11  C   UNL     1       7.629  -5.397  23.514  0.00  0.00    +0.000 C 
ENDROOT
BRANCH   8  12
ATOM     12  C   UNL     1       6.942   0.112  24.561  0.00  0.00    +0.000 C 
ATOM     13  C   UNL     1       6.209   1.213  23.851  0.00  0.00    +0.000 C 
ATOM     14  C   UNL     1       6.977   2.474  23.621  0.00  0.00    +0.000 C 
ATOM     15  N   UNL     1       8.055   2.638  24.605  0.00  0.00    +0.000 N 
ATOM     16  C   UNL     1       8.658   3.877  24.620  0.00  0.00    +0.000 C 
ATOM     17  O   UNL     1       8.341   4.672  25.488  0.00  0.00    +0.000 OA
ATOM     18  C   UNL     1       7.827   2.049  25.920  0.00  0.00    +0.000 C 
ATOM     19  C   UNL     1       7.552   0.565  25.840  0.00  0.00    +0.000 C 
BRANCH  16  20
ATOM     20  C   UNL     1       9.764   4.136  23.661  0.00  0.00    +0.000 C 
ATOM     21 CL   UNL     1      10.533   5.711  23.970  0.00  0.00    +0.000 Cl
ENDBRANCH  16  20
ENDBRANCH   8  12
BRANCH   1  26
ATOM     22  C   UNL     1       4.346  -4.532  26.969  0.00  0.00    +0.000 A 
ATOM     23  C   UNL     1       4.106  -3.266  26.154  0.00  0.00    +0.000 A 
ATOM     24  C   UNL     1       4.555  -2.923  24.816  0.00  0.00    +0.000 A 
ATOM     25  C   UNL     1       5.081  -4.243  24.197  0.00  0.00    +0.000 A 
ATOM     26  C   UNL     1       5.528  -5.488  24.744  0.00  0.00    +0.000 A 
ATOM     27  C   UNL     1       4.896  -5.614  26.142  0.00  0.00    +0.000 A 
BRANCH  25  28
ATOM     28  N   UNL     1       4.314  -4.371  23.283  0.00  0.00    +0.000 N 
ATOM     29  O   UNL     1       4.758  -3.911  22.213  0.00  0.00    +0.000 OA
ATOM     30  O   UNL     1       3.183  -5.003  22.911  0.00  0.00    +0.000 OA
ENDBRANCH  25  28
ENDBRANCH   1  26
BRANCH   7  31
ATOM     31  C   UNL     1      10.074  -0.093  23.287  0.00  0.00    +0.000 C 
ATOM     32  C   UNL     1       9.566   0.743  22.137  0.00  0.00    +0.000 C 
ATOM     33  C   UNL     1      10.858   0.763  24.248  0.00  0.00    +0.000 C 
ENDBRANCH   7  31
TORSDOF 5
ENDMDL
MODEL 3
REMARK VINA RESULT:      -8.1      2.340      4.204
REMARK  Name = 
REMARK  7 active torsions:
REMARK  status: ('A' for Active; 'I' for Inactive)
REMARK    1  A    between atoms: C_7  and  N_8
REMARK    2  A    between atoms: C_11  and  N_12
REMARK    3  A    between atoms: N_22  and  C_46
REMARK    4  A    between atoms: C_23  and  C_25
REMARK    5  A    between atoms: C_34  and  C_36
REMARK    6  A    between atoms: C_46  and  C_48
REMARK    7  A    between atoms: C_46  and  C_52
REMARK                            x       y       z     vdW  Elec       q    Type
REMARK                         _______ _______ _______ _____ _____    ______ ____
ROOT
ATOM      1  N   UNL     1       6.100  -4.147  25.732  0.00  0.00    +0.000 N 
ATOM      2  C   UNL     1       5.304  -3.054  25.222  0.00  0.00    +0.000 C 
ATOM      3  C   UNL     1       6.002  -1.750  25.305  0.00  0.00    +0.000 C 
ATOM      4  N   UNL     1       7.509  -1.822  25.359  0.00  0.00    +0.000 N 
ATOM      5  C   UNL     1       8.044  -0.571  25.437  0.00  0.00    +0.000 C 
ATOM      6  O   UNL     1       7.835   0.010  26.496  0.00  0.00    +0.000 OA
ATOM      7  N   UNL     1       8.844  -0.111  24.469  0.00  0.00    +0.000 N 
ATOM      8  C   UNL     1       9.369  -1.112  23.720  0.00  0.00    +0.000 C 
ATOM      9  O   UNL     1      10.199  -1.832  24.304  0.00  0.00    +0.000 OA
ATOM     10  C   UNL     1       8.062  -2.807  26.277  0.00  0.00    +0.000 C 
ATOM     11  C   UNL     1       7.043  -3.792  26.798  0.00  0.00    +0.000 C 
ENDROOT
BRANCH   8  12
ATOM     12  C   UNL     1       9.165  -1.184  22.259  0.00  0.00    +0.000 C 
ATOM     13  C   UNL     1       9.678   0.024  21.530  0.00  0.00    +0.000 C 
ATOM     14  C   UNL     1       8.762   1.203  21.481  0.00  0.00    +0.000 C 
ATOM     15  N   UNL     1       7.356   0.801  21.619  0.00  0.00    +0.000 N 
ATOM     16  C   UNL     1       6.430   1.785  21.347  0.00  0.00    +0.000 C 
ATOM     17  O   UNL     1       5.868   1.778  20.264  0.00  0.00    +0.000 OA
ATOM     18  C   UNL     1       7.009  -0.525  21.119  0.00  0.00    +0.000 C 
ATOM     19  C   UNL     1       7.825  -1.614  21.777  0.00  0.00    +0.000 C 
BRANCH  16  20
ATOM     20  C   UNL     1       6.059   2.727  22.435  0.00  0.00    +0.000 C 
ATOM     21 CL   UNL     1       6.896   4.287  22.253  0.00  0.00    +0.000 Cl
ENDBRANCH  16  20
ENDBRANCH   8  12
BRANCH   1  26
ATOM     22  C   UNL     1       3.936  -6.517  24.442  0.00  0.00    +0.000 A 
ATOM     23  C   UNL     1       4.123  -5.895  23.063  0.00  0.00    +0.000 A 
ATOM     24  C   UNL     1       5.138  -4.969  22.591  0.00  0.00    +0.000 A 
ATOM     25  C   UNL     1       6.239  -4.959  23.682  0.00  0.00    +0.000 A 
ATOM     26  C   UNL     1       6.268  -5.321  25.066  0.00  0.00    +0.000 A 
ATOM     27  C   UNL     1       5.116  -6.316  25.293  0.00  0.00    +0.000 A 
BRANCH  25  28
ATOM     28  N   UNL     1       7.165  -5.394  23.055  0.00  0.00    +0.000 N 
ATOM     29  O   UNL     1       8.253  -5.264  23.651  0.00  0.00    +0.000 OA
ATOM     30  O   UNL     1       7.477  -6.159  21.990  0.00  0.00    +0.000 OA
ENDBRANCH  25  28
ENDBRANCH   1  26
BRANCH   7  31
ATOM     31  C   UNL     1       9.671   1.022  24.780  0.00  0.00    +0.000 C 
ATOM     32  C   UNL     1      11.094   0.938  24.282  0.00  0.00    +0.000 C 
ATOM     33  C   UNL     1       9.064   2.349  24.406  0.00  0.00    +0.000 C 
ENDBRANCH   7  31
TORSDOF 5
ENDMDL
MODEL 4
REMARK VINA RESULT:      -7.8      3.330      7.529
REMARK  Name = 
REMARK  7 active torsions:
REMARK  status: ('A' for Active; 'I' for Inactive)
REMARK    1  A    between atoms: C_7  and  N_8
REMARK    2  A    between atoms: C_11  and  N_12
REMARK    3  A    between atoms: N_22  and  C_46
REMARK    4  A    between atoms: C_23  and  C_25
REMARK    5  A    between atoms: C_34  and  C_36
REMARK    6  A    between atoms: C_46  and  C_48
REMARK    7  A    between atoms: C_46  and  C_52
REMARK                            x       y       z     vdW  Elec       q    Type
REMARK                         _______ _______ _______ _____ _____    ______ ____
ROOT
ATOM      1  N   UNL     1       9.830   1.686  23.662  0.00  0.00    +0.000 N 
ATOM      2  C   UNL     1       9.574   1.064  22.382  0.00  0.00    +0.000 C 
ATOM      3  C   UNL     1       9.574  -0.415  22.454  0.00  0.00    +0.000 C 
ATOM      4  N   UNL     1       9.286  -1.000  23.815  0.00  0.00    +0.000 N 
ATOM      5  C   UNL     1       9.315  -2.361  23.766  0.00  0.00    +0.000 C 
ATOM      6  O   UNL     1      10.425  -2.843  23.574  0.00  0.00    +0.000 OA
ATOM      7  N   UNL     1       8.220  -3.076  24.049  0.00  0.00    +0.000 N 
ATOM      8  C   UNL     1       7.317  -2.365  24.769  0.00  0.00    +0.000 C 
ATOM      9  O   UNL     1       7.658  -2.098  25.934  0.00  0.00    +0.000 OA
ATOM     10  C   UNL     1       9.999  -0.390  24.928  0.00  0.00    +0.000 C 
ATOM     11  C   UNL     1      10.677   0.913  24.576  0.00  0.00    +0.000 C 
ENDROOT
BRANCH   8  12
ATOM     12  C   UNL     1       5.936  -2.146  24.290  0.00  0.00    +0.000 C 
ATOM     13  C   UNL     1       4.910  -2.241  25.381  0.00  0.00    +0.000 C 
ATOM     14  C   UNL     1       4.444  -3.618  25.729  0.00  0.00    +0.000 C 
ATOM     15  N   UNL     1       4.605  -4.544  24.601  0.00  0.00    +0.000 N 
ATOM     16  C   UNL     1       3.986  -5.767  24.748  0.00  0.00    +0.000 C 
ATOM     17  O   UNL     1       2.923  -5.957  24.182  0.00  0.00    +0.000 OA
ATOM     18  C   UNL     1       4.510  -3.963  23.266  0.00  0.00    +0.000 C 
ATOM     19  C   UNL     1       5.521  -2.860  23.052  0.00  0.00    +0.000 C 
BRANCH  16  20
ATOM     20  C   UNL     1       4.709  -6.842  25.476  0.00  0.00    +0.000 C 
ATOM     21 CL   UNL     1       4.454  -6.720  27.232  0.00  0.00    +0.000 Cl
ENDBRANCH  16  20
ENDBRANCH   8  12
BRANCH   1  26
ATOM     22  C   UNL     1       7.428   3.786  22.326  0.00  0.00    +0.000 A 
ATOM     23  C   UNL     1       6.352   2.901  22.944  0.00  0.00    +0.000 A 
ATOM     24  C   UNL     1       6.464   1.886  23.976  0.00  0.00    +0.000 A 
ATOM     25  C   UNL     1       7.869   2.075  24.603  0.00  0.00    +0.000 A 
ATOM     26  C   UNL     1       9.077   2.703  24.160  0.00  0.00    +0.000 A 
ATOM     27  C   UNL     1       8.678   3.740  23.095  0.00  0.00    +0.000 A 
BRANCH  25  28
ATOM     28  N   UNL     1       7.565   2.364  25.727  0.00  0.00    +0.000 N 
ATOM     29  O   UNL     1       7.441   1.366  26.465  0.00  0.00    +0.000 OA
ATOM     30  O   UNL     1       7.472   3.402  26.582  0.00  0.00    +0.000 OA
ENDBRANCH  25  28
ENDBRANCH   1  26
BRANCH   7  31
ATOM     31  C   UNL     1       8.403  -4.467  24.359  0.00  0.00    +0.000 C 
ATOM     32  C   UNL     1       7.925  -4.892  25.727  0.00  0.00    +0.000 C 
ATOM     33  C   UNL     1       7.875  -5.407  23.307  0.00  0.00    +0.000 C 
ENDBRANCH   7  31
TORSDOF 5
ENDMDL
MODEL 5
REMARK VINA RESULT:      -7.5      2.208      3.505
REMARK  Name = 
REMARK  7 active torsions:
REMARK  status: ('A' for Active; 'I' for Inactive)
REMARK    1  A    between atoms: C_7  and  N_8
REMARK    2  A    between atoms: C_11  and  N_12
REMARK    3  A    between atoms: N_22  and  C_46
REMARK    4  A    between atoms: C_23  and  C_25
REMARK    5  A    between atoms: C_34  and  C_36
REMARK    6  A    between atoms: C_46  and  C_48
REMARK    7  A    between atoms: C_46  and  C_52
REMARK                            x       y       z     vdW  Elec       q    Type
REMARK                         _______ _______ _______ _____ _____    ______ ____
ROOT
ATOM      1  N   UNL     1       6.953  -5.117  25.507  0.00  0.00    +0.000 N 
ATOM      2  C   UNL     1       7.836  -4.533  26.491  0.00  0.00    +0.000 C 
ATOM      3  C   UNL     1       8.702  -3.474  25.927  0.00  0.00    +0.000 C 
ATOM      4  N   UNL     1       8.187  -2.813  24.671  0.00  0.00    +0.000 N 
ATOM      5  C   UNL     1       9.061  -1.861  24.239  0.00  0.00    +0.000 C 
ATOM      6  O   UNL     1      10.124  -2.298  23.812  0.00  0.00    +0.000 OA
ATOM      7  N   UNL     1       8.693  -0.577  24.175  0.00  0.00    +0.000 N 
ATOM      8  C   UNL     1       7.345  -0.432  24.148  0.00  0.00    +0.000 C 
ATOM      9  O   UNL     1       6.789  -0.826  23.108  0.00  0.00    +0.000 OA
ATOM     10  C   UNL     1       7.673  -3.713  23.649  0.00  0.00    +0.000 C 
ATOM     11  C   UNL     1       7.467  -5.129  24.133  0.00  0.00    +0.000 C 
ENDROOT
BRANCH   8  12
ATOM     12  C   UNL     1       6.625   0.361  25.165  0.00  0.00    +0.000 C 
ATOM     13  C   UNL     1       5.624   1.311  24.575  0.00  0.00    +0.000 C 
ATOM     14  C   UNL     1       6.160   2.624  24.102  0.00  0.00    +0.000 C 
ATOM     15  N   UNL     1       7.396   2.988  24.807  0.00  0.00    +0.000 N 
ATOM     16  C   UNL     1       7.829   4.281  24.612  0.00  0.00    +0.000 C 
ATOM     17  O   UNL     1       7.610   5.109  25.480  0.00  0.00    +0.000 OA
ATOM     18  C   UNL     1       7.534   2.492  26.172  0.00  0.00    +0.000 C 
ATOM     19  C   UNL     1       7.436   0.985  26.244  0.00  0.00    +0.000 C 
BRANCH  16  20
ATOM     20  C   UNL     1       8.660   4.576  23.415  0.00  0.00    +0.000 C 
ATOM     21 CL   UNL     1      10.252   5.220  23.876  0.00  0.00    +0.000 Cl
ENDBRANCH  16  20
ENDBRANCH   8  12
BRANCH   1  26
ATOM     22  C   UNL     1       4.101  -3.412  24.543  0.00  0.00    +0.000 A 
ATOM     23  C   UNL     1       3.905  -4.432  23.427  0.00  0.00    +0.000 A 
ATOM     24  C   UNL     1       4.511  -5.739  23.245  0.00  0.00    +0.000 A 
ATOM     25  C   UNL     1       5.186  -6.083  24.597  0.00  0.00    +0.000 A 
ATOM     26  C   UNL     1       5.622  -5.303  25.715  0.00  0.00    +0.000 A 
ATOM     27  C   UNL     1       4.816  -3.992  25.688  0.00  0.00    +0.000 A 
BRANCH  25  28
ATOM     28  N   UNL     1       4.556  -7.055  24.910  0.00  0.00    +0.000 N 
ATOM     29  O   UNL     1       4.554  -7.252  26.142  0.00  0.00    +0.000 OA
ATOM     30  O   UNL     1       3.668  -7.956  24.444  0.00  0.00    +0.000 OA
ENDBRANCH  25  28
ENDBRANCH   1  26
BRANCH   7  31
ATOM     31  C   UNL     1       9.494   0.299  23.365  0.00  0.00    +0.000 C 
ATOM     32  C   UNL     1       8.748   1.038  22.281  0.00  0.00    +0.000 C 
ATOM     33  C   UNL     1      10.350   1.255  24.154  0.00  0.00    +0.000 C 
ENDBRANCH   7  31
TORSDOF 5
ENDMDL
MODEL 6
REMARK VINA RESULT:      -7.2      3.325      7.501
REMARK  Name = 
REMARK  7 active torsions:
REMARK  status: ('A' for Active; 'I' for Inactive)
REMARK    1  A    between atoms: C_7  and  N_8
REMARK    2  A    between atoms: C_11  and  N_12
REMARK    3  A    between atoms: N_22  and  C_46
REMARK    4  A    between atoms: C_23  and  C_25
REMARK    5  A    between atoms: C_34  and  C_36
REMARK    6  A    between atoms: C_46  and  C_48
REMARK    7  A    between atoms: C_46  and  C_52
REMARK                            x       y       z     vdW  Elec       q    Type
REMARK                         _______ _______ _______ _____ _____    ______ ____
ROOT
ATOM      1  N   UNL     1       9.504  -0.854  21.997  0.00  0.00    +0.000 N 
ATOM      2  C   UNL     1       8.393  -1.513  21.349  0.00  0.00    +0.000 C 
ATOM      3  C   UNL     1       7.963  -2.740  22.057  0.00  0.00    +0.000 C 
ATOM      4  N   UNL     1       8.320  -2.805  23.522  0.00  0.00    +0.000 N 
ATOM      5  C   UNL     1       7.882  -3.973  24.070  0.00  0.00    +0.000 C 
ATOM      6  O   UNL     1       8.470  -4.974  23.677  0.00  0.00    +0.000 OA
ATOM      7  N   UNL     1       6.977  -3.965  25.055  0.00  0.00    +0.000 N 
ATOM      8  C   UNL     1       6.917  -2.765  25.685  0.00  0.00    +0.000 C 
ATOM      9  O   UNL     1       7.916  -2.470  26.363  0.00  0.00    +0.000 OA
ATOM     10  C   UNL     1       9.684  -2.420  23.857  0.00  0.00    +0.000 C 
ATOM     11  C   UNL     1      10.419  -1.738  22.726  0.00  0.00    +0.000 C 
ENDROOT
BRANCH   8  12
ATOM     12  C   UNL     1       5.663  -1.988  25.764  0.00  0.00    +0.000 C 
ATOM     13  C   UNL     1       5.396  -1.434  27.134  0.00  0.00    +0.000 C 
ATOM     14  C   UNL     1       4.743  -2.363  28.105  0.00  0.00    +0.000 C 
ATOM     15  N   UNL     1       3.964  -3.402  27.418  0.00  0.00    +0.000 N 
ATOM     16  C   UNL     1       3.138  -4.153  28.227  0.00  0.00    +0.000 C 
ATOM     17  O   UNL     1       1.947  -3.893  28.250  0.00  0.00    +0.000 OA
ATOM     18  C   UNL     1       3.393  -3.037  26.127  0.00  0.00    +0.000 C 
ATOM     19  C   UNL     1       4.449  -2.584  25.144  0.00  0.00    +0.000 C 
BRANCH  16  20
ATOM     20  C   UNL     1       3.715  -5.330  28.928  0.00  0.00    +0.000 C 
ATOM     21 CL   UNL     1       3.151  -6.854  28.205  0.00  0.00    +0.000 Cl
ENDBRANCH  16  20
ENDBRANCH   8  12
BRANCH   1  26
ATOM     22  C   UNL     1       7.072   1.567  22.442  0.00  0.00    +0.000 A 
ATOM     23  C   UNL     1       7.260   1.435  23.949  0.00  0.00    +0.000 A 
ATOM     24  C   UNL     1       8.337   0.817  24.701  0.00  0.00    +0.000 A 
ATOM     25  C   UNL     1       9.479   0.576  23.682  0.00  0.00    +0.000 A 
ATOM     26  C   UNL     1       9.532   0.482  22.255  0.00  0.00    +0.000 A 
ATOM     27  C   UNL     1       8.301   1.229  21.711  0.00  0.00    +0.000 A 
BRANCH  25  28
ATOM     28  N   UNL     1      10.333   1.281  24.146  0.00  0.00    +0.000 N 
ATOM     29  O   UNL     1      11.023   0.698  25.006  0.00  0.00    +0.000 OA
ATOM     30  O   UNL     1      10.975   2.452  23.964  0.00  0.00    +0.000 OA
ENDBRANCH  25  28
ENDBRANCH   1  26
BRANCH   7  31
ATOM     31  C   UNL     1       6.849  -5.160  25.841  0.00  0.00    +0.000 C 
ATOM     32  C   UNL     1       7.074  -4.986  27.324  0.00  0.00    +0.000 C 
ATOM     33  C   UNL     1       5.575  -5.926  25.593  0.00  0.00    +0.000 C 
ENDBRANCH   7  31
TORSDOF 5
ENDMDL
MODEL 7
REMARK VINA RESULT:      -7.2      2.696      5.098
REMARK  Name = 
REMARK  7 active torsions:
REMARK  status: ('A' for Active; 'I' for Inactive)
REMARK    1  A    between atoms: C_7  and  N_8
REMARK    2  A    between atoms: C_11  and  N_12
REMARK    3  A    between atoms: N_22  and  C_46
REMARK    4  A    between atoms: C_23  and  C_25
REMARK    5  A    between atoms: C_34  and  C_36
REMARK    6  A    between atoms: C_46  and  C_48
REMARK    7  A    between atoms: C_46  and  C_52
REMARK                            x       y       z     vdW  Elec       q    Type
REMARK                         _______ _______ _______ _____ _____    ______ ____
ROOT
ATOM      1  N   UNL     1       4.188  -3.218  26.979  0.00  0.00    +0.000 N 
ATOM      2  C   UNL     1       4.148  -3.204  25.534  0.00  0.00    +0.000 C 
ATOM      3  C   UNL     1       4.940  -2.098  24.951  0.00  0.00    +0.000 C 
ATOM      4  N   UNL     1       6.040  -1.551  25.828  0.00  0.00    +0.000 N 
ATOM      5  C   UNL     1       6.699  -0.540  25.196  0.00  0.00    +0.000 C 
ATOM      6  O   UNL     1       6.040   0.483  25.044  0.00  0.00    +0.000 OA
ATOM      7  N   UNL     1       8.001  -0.650  24.909  0.00  0.00    +0.000 N 
ATOM      8  C   UNL     1       8.613  -1.593  25.666  0.00  0.00    +0.000 C 
ATOM      9  O   UNL     1       8.723  -1.317  26.874  0.00  0.00    +0.000 OA
ATOM     10  C   UNL     1       5.675  -1.301  27.216  0.00  0.00    +0.000 C 
ATOM     11  C   UNL     1       4.350  -1.906  27.615  0.00  0.00    +0.000 C 
ENDROOT
BRANCH   8  12
ATOM     12  C   UNL     1       9.319  -2.741  25.061  0.00  0.00    +0.000 C 
ATOM     13  C   UNL     1       9.732  -2.498  23.639  0.00  0.00    +0.000 C 
ATOM     14  C   UNL     1       8.688  -2.744  22.598  0.00  0.00    +0.000 C 
ATOM     15  N   UNL     1       7.681  -3.708  23.060  0.00  0.00    +0.000 N 
ATOM     16  C   UNL     1       6.821  -4.175  22.090  0.00  0.00    +0.000 C 
ATOM     17  O   UNL     1       7.020  -5.279  21.614  0.00  0.00    +0.000 OA
ATOM     18  C   UNL     1       8.135  -4.713  24.015  0.00  0.00    +0.000 C 
ATOM     19  C   UNL     1       8.726  -4.090  25.260  0.00  0.00    +0.000 C 
BRANCH  16  20
ATOM     20  C   UNL     1       5.614  -3.370  21.769  0.00  0.00    +0.000 C 
ATOM     21 CL   UNL     1       6.010  -2.011  20.691  0.00  0.00    +0.000 Cl
ENDBRANCH  16  20
ENDBRANCH   8  12
BRANCH   1  26
ATOM     22  C   UNL     1       3.042  -6.480  26.851  0.00  0.00    +0.000 A 
ATOM     23  C   UNL     1       4.319  -6.868  26.115  0.00  0.00    +0.000 A 
ATOM     24  C   UNL     1       5.570  -6.143  25.977  0.00  0.00    +0.000 A 
ATOM     25  C   UNL     1       5.506  -4.992  27.013  0.00  0.00    +0.000 A 
ATOM     26  C   UNL     1       4.437  -4.340  27.707  0.00  0.00    +0.000 A 
ATOM     27  C   UNL     1       3.253  -5.322  27.730  0.00  0.00    +0.000 A 
BRANCH  25  28
ATOM     28  N   UNL     1       6.424  -5.292  27.724  0.00  0.00    +0.000 N 
ATOM     29  O   UNL     1       6.205  -5.041  28.926  0.00  0.00    +0.000 OA
ATOM     30  O   UNL     1       7.579  -5.986  27.751  0.00  0.00    +0.000 OA
ENDBRANCH  25  28
ENDBRANCH   1  26
BRANCH   7  31
ATOM     31  C   UNL     1       8.714   0.561  24.610  0.00  0.00    +0.000 C 
ATOM     32  C   UNL     1      10.156   0.587  25.055  0.00  0.00    +0.000 C 
ATOM     33  C   UNL     1       8.603   1.002  23.174  0.00  0.00    +0.000 C 
ENDBRANCH   7  31
TORSDOF 5
ENDMDL
MODEL 8
REMARK VINA RESULT:      -7.2      2.749      4.337
REMARK  Name = 
REMARK  7 active torsions:
REMARK  status: ('A' for Active; 'I' for Inactive)
REMARK    1  A    between atoms: C_7  and  N_8
REMARK    2  A    between atoms: C_11  and  N_12
REMARK    3  A    between atoms: N_22  and  C_46
REMARK    4  A    between atoms: C_23  and  C_25
REMARK    5  A    between atoms: C_34  and  C_36
REMARK    6  A    between atoms: C_46  and  C_48
REMARK    7  A    between atoms: C_46  and  C_52
REMARK                            x       y       z     vdW  Elec       q    Type
REMARK                         _______ _______ _______ _____ _____    ______ ____
ROOT
ATOM      1  N   UNL     1       6.427  -4.050  23.434  0.00  0.00    +0.000 N 
ATOM      2  C   UNL     1       7.853  -4.119  23.656  0.00  0.00    +0.000 C 
ATOM      3  C   UNL     1       8.580  -2.968  23.075  0.00  0.00    +0.000 C 
ATOM      4  N   UNL     1       7.759  -1.718  22.866  0.00  0.00    +0.000 N 
ATOM      5  C   UNL     1       8.524  -0.728  22.326  0.00  0.00    +0.000 C 
ATOM      6  O   UNL     1       8.877  -0.929  21.169  0.00  0.00    +0.000 OA
ATOM      7  N   UNL     1       8.729   0.414  22.991  0.00  0.00    +0.000 N 
ATOM      8  C   UNL     1       7.796   0.620  23.954  0.00  0.00    +0.000 C 
ATOM      9  O   UNL     1       6.649   0.863  23.539  0.00  0.00    +0.000 OA
ATOM     10  C   UNL     1       6.452  -1.916  22.255  0.00  0.00    +0.000 C 
ATOM     11  C   UNL     1       6.016  -3.362  22.206  0.00  0.00    +0.000 C 
ENDROOT
BRANCH   8  12
ATOM     12  C   UNL     1       8.165   0.793  25.374  0.00  0.00    +0.000 C 
ATOM     13  C   UNL     1       8.423  -0.506  26.080  0.00  0.00    +0.000 C 
ATOM     14  C   UNL     1       7.219  -1.221  26.604  0.00  0.00    +0.000 C 
ATOM     15  N   UNL     1       6.109  -0.295  26.860  0.00  0.00    +0.000 N 
ATOM     16  C   UNL     1       5.049  -0.824  27.564  0.00  0.00    +0.000 C 
ATOM     17  O   UNL     1       4.953  -0.574  28.754  0.00  0.00    +0.000 OA
ATOM     18  C   UNL     1       6.475   1.068  27.231  0.00  0.00    +0.000 C 
ATOM     19  C   UNL     1       7.342   1.730  26.184  0.00  0.00    +0.000 C 
BRANCH  16  20
ATOM     20  C   UNL     1       3.998  -1.559  26.813  0.00  0.00    +0.000 C 
ATOM     21 CL   UNL     1       2.369  -1.064  27.327  0.00  0.00    +0.000 Cl
ENDBRANCH  16  20
ENDBRANCH   8  12
BRANCH   1  26
ATOM     22  C   UNL     1       3.104  -5.012  23.471  0.00  0.00    +0.000 A 
ATOM     23  C   UNL     1       3.549  -6.427  23.822  0.00  0.00    +0.000 A 
ATOM     24  C   UNL     1       4.830  -6.904  24.310  0.00  0.00    +0.000 A 
ATOM     25  C   UNL     1       5.616  -5.639  24.738  0.00  0.00    +0.000 A 
ATOM     26  C   UNL     1       5.508  -4.248  24.418  0.00  0.00    +0.000 A 
ATOM     27  C   UNL     1       4.061  -4.007  23.953  0.00  0.00    +0.000 A 
BRANCH  25  28
ATOM     28  N   UNL     1       5.740  -5.851  25.912  0.00  0.00    +0.000 N 
ATOM     29  O   UNL     1       5.983  -4.816  26.565  0.00  0.00    +0.000 OA
ATOM     30  O   UNL     1       5.536  -6.784  26.863  0.00  0.00    +0.000 OA
ENDBRANCH  25  28
ENDBRANCH   1  26
BRANCH   7  31
ATOM     31  C   UNL     1       9.197   1.542  22.235  0.00  0.00    +0.000 C 
ATOM     32  C   UNL     1       8.162   2.605  21.955  0.00  0.00    +0.000 C 
ATOM     33  C   UNL     1      10.455   2.168  22.778  0.00  0.00    +0.000 C 
ENDBRANCH   7  31
TORSDOF 5
ENDMDL
MODEL 9
REMARK VINA RESULT:      -7.2      2.343      4.166
REMARK  Name = 
REMARK  7 active torsions:
REMARK  status: ('A' for Active; 'I' for Inactive)
REMARK    1  A    between atoms: C_7  and  N_8
REMARK    2  A    between atoms: C_11  and  N_12
REMARK    3  A    between atoms: N_22  and  C_46
REMARK    4  A    between atoms: C_23  and  C_25
REMARK    5  A    between atoms: C_34  and  C_36
REMARK    6  A    between atoms: C_46  and  C_48
REMARK    7  A    between atoms: C_46  and  C_52
REMARK                            x       y       z     vdW  Elec       q    Type
REMARK                         _______ _______ _______ _____ _____    ______ ____
ROOT
ATOM      1  N   UNL     1       6.215  -2.632  25.747  0.00  0.00    +0.000 N 
ATOM      2  C   UNL     1       5.709  -2.161  24.478  0.00  0.00    +0.000 C 
ATOM      3  C   UNL     1       5.907  -0.706  24.287  0.00  0.00    +0.000 C 
ATOM      4  N   UNL     1       7.019  -0.089  25.100  0.00  0.00    +0.000 N 
ATOM      5  C   UNL     1       7.110   1.248  24.850  0.00  0.00    +0.000 C 
ATOM      6  O   UNL     1       6.167   1.911  25.266  0.00  0.00    +0.000 OA
ATOM      7  N   UNL     1       8.220   1.766  24.314  0.00  0.00    +0.000 N 
ATOM      8  C   UNL     1       9.294   0.954  24.476  0.00  0.00    +0.000 C 
ATOM      9  O   UNL     1       9.701   0.837  25.645  0.00  0.00    +0.000 OA
ATOM     10  C   UNL     1       7.065  -0.475  26.503  0.00  0.00    +0.000 C 
ATOM     11  C   UNL     1       6.180  -1.653  26.839  0.00  0.00    +0.000 C 
ENDROOT
BRANCH   8  12
ATOM     12  C   UNL     1      10.071   0.450  23.325  0.00  0.00    +0.000 C 
ATOM     13  C   UNL     1      10.306   1.491  22.269  0.00  0.00    +0.000 C 
ATOM     14  C   UNL     1       9.200   1.690  21.283  0.00  0.00    +0.000 C 
ATOM     15  N   UNL     1       8.372   0.485  21.150  0.00  0.00    +0.000 N 
ATOM     16  C   UNL     1       7.482   0.493  20.097  0.00  0.00    +0.000 C 
ATOM     17  O   UNL     1       7.767  -0.125  19.085  0.00  0.00    +0.000 OA
ATOM     18  C   UNL     1       9.041  -0.791  21.381  0.00  0.00    +0.000 C 
ATOM     19  C   UNL     1       9.672  -0.863  22.753  0.00  0.00    +0.000 C 
BRANCH  16  20
ATOM     20  C   UNL     1       6.159   1.139  20.295  0.00  0.00    +0.000 C 
ATOM     21 CL   UNL     1       5.323   1.390  18.744  0.00  0.00    +0.000 Cl
ENDBRANCH  16  20
ENDBRANCH   8  12
BRANCH   1  26
ATOM     22  C   UNL     1       5.920  -5.628  27.450  0.00  0.00    +0.000 A 
ATOM     23  C   UNL     1       5.481  -6.290  26.149  0.00  0.00    +0.000 A 
ATOM     24  C   UNL     1       5.596  -5.818  24.781  0.00  0.00    +0.000 A 
ATOM     25  C   UNL     1       6.568  -4.612  24.832  0.00  0.00    +0.000 A 
ATOM     26  C   UNL     1       7.005  -3.732  25.873  0.00  0.00    +0.000 A 
ATOM     27  C   UNL     1       6.798  -4.477  27.204  0.00  0.00    +0.000 A 
BRANCH  25  28
ATOM     28  N   UNL     1       7.465  -5.031  24.153  0.00  0.00    +0.000 N 
ATOM     29  O   UNL     1       7.113  -5.259  22.978  0.00  0.00    +0.000 OA
ATOM     30  O   UNL     1       8.803  -5.191  24.121  0.00  0.00    +0.000 OA
ENDBRANCH  25  28
ENDBRANCH   1  26
BRANCH   7  31
ATOM     31  C   UNL     1       8.409   3.185  24.434  0.00  0.00    +0.000 C 
ATOM     32  C   UNL     1       7.727   4.019  23.376  0.00  0.00    +0.000 C 
ATOM     33  C   UNL     1       8.107   3.733  25.804  0.00  0.00    +0.000 C 
ENDBRANCH   7  31
TORSDOF 5
ENDMDL
