MODEL 1
REMARK VINA RESULT:      -8.7      0.000      0.000
REMARK  Name = 
REMARK  8 active torsions:
REMARK  status: ('A' for Active; 'I' for Inactive)
REMARK    1  A    between atoms: C_7  and  S_8
REMARK    2  A    between atoms: S_8  and  N_11
REMARK    3  A    between atoms: C_19  and  C_21
REMARK    4  A    between atoms: C_21  and  C_24
REMARK    5  A    between atoms: C_33  and  S_34
REMARK    6  A    between atoms: S_34  and  N_37
REMARK    7  A    between atoms: C_45  and  C_47
REMARK    8  A    between atoms: C_63  and  C_64
REMARK                            x       y       z     vdW  Elec       q    Type
REMARK                         _______ _______ _______ _____ _____    ______ ____
ROOT
ATOM      1  C   UNL     1       7.890  -2.706  23.254  0.00  0.00    +0.000 C 
ENDROOT
BRANCH   1   6
ATOM      2  N   UNL     1       6.590  -4.858  26.594  0.00  0.00    +0.000 NA
ATOM      3  C   UNL     1       6.422  -3.490  26.546  0.00  0.00    +0.000 C 
ATOM      4  C   UNL     1       7.737  -2.741  26.245  0.00  0.00    +0.000 C 
ATOM      5  N   UNL     1       8.529  -3.597  25.392  0.00  0.00    +0.000 N 
ATOM      6  C   UNL     1       8.932  -3.312  24.131  0.00  0.00    +0.000 C 
ATOM      7  O   UNL     1      10.125  -3.039  23.965  0.00  0.00    +0.000 OA
ATOM      8  C   UNL     1       8.994  -4.820  26.047  0.00  0.00    +0.000 C 
ATOM      9  C   UNL     1       7.857  -5.334  26.936  0.00  0.00    +0.000 C 
BRANCH   2  10
ATOM     10  S   UNL     1       5.373  -5.775  26.512  0.00  0.00    +0.000 S 
ATOM     11  O   UNL     1       4.130  -5.061  26.883  0.00  0.00    +0.000 OA
ATOM     12  O   UNL     1       5.516  -6.998  27.308  0.00  0.00    +0.000 OA
BRANCH  10  16
ATOM     13  C   UNL     1       2.390  -5.544  23.660  0.00  0.00    +0.000 A 
ATOM     14  C   UNL     1       2.501  -6.827  24.456  0.00  0.00    +0.000 A 
ATOM     15  C   UNL     1       3.712  -7.333  25.121  0.00  0.00    +0.000 A 
ATOM     16  C   UNL     1       4.937  -6.470  24.833  0.00  0.00    +0.000 A 
ATOM     17  C   UNL     1       5.012  -5.386  23.843  0.00  0.00    +0.000 A 
ATOM     18  C   UNL     1       3.671  -5.081  23.119  0.00  0.00    +0.000 A 
BRANCH  17  19
ATOM     19  C   UNL     1       5.850  -5.720  22.849  0.00  0.00    +0.000 C 
ATOM     20  N   UNL     1       5.472  -5.224  21.866  0.00  0.00    +0.000 NA
ENDBRANCH  17  19
ENDBRANCH  10  16
ENDBRANCH   2  10
ENDBRANCH   1   6
BRANCH   1  21
ATOM     21  C   UNL     1       7.948  -1.143  23.211  0.00  0.00    +0.000 A 
ATOM     22  C   UNL     1       6.894  -0.851  22.068  0.00  0.00    +0.000 A 
ATOM     23  C   UNL     1       7.182  -0.367  20.694  0.00  0.00    +0.000 A 
ATOM     24  C   UNL     1       8.639  -0.048  20.665  0.00  0.00    +0.000 A 
ATOM     25  C   UNL     1       9.708   0.068  21.592  0.00  0.00    +0.000 A 
ATOM     26  F   UNL     1       9.827   1.389  21.750  0.00  0.00    +0.000 F 
ATOM     27  C   UNL     1       9.207  -0.441  22.920  0.00  0.00    +0.000 A 
BRANCH  27  28
ATOM     28  S   UNL     1       9.444   0.843  24.149  0.00  0.00    +0.000 S 
ATOM     29  O   UNL     1       9.102   0.252  25.427  0.00  0.00    +0.000 OA
ATOM     30  O   UNL     1      10.927   1.088  24.087  0.00  0.00    +0.000 OA
BRANCH  28  31
ATOM     31  N   UNL     1       8.722   2.205  23.897  0.00  0.00    +0.000 NA
ATOM     32  C   UNL     1       9.285   3.441  24.020  0.00  0.00    +0.000 C 
ATOM     33  C   UNL     1       8.693   4.418  25.017  0.00  0.00    +0.000 C 
ATOM     34  N   UNL     1       7.346   3.922  25.402  0.00  0.00    +0.000 N 
ATOM     35  C   UNL     1       7.117   3.558  26.652  0.00  0.00    +0.000 C 
ATOM     36  O   UNL     1       7.559   4.356  27.549  0.00  0.00    +0.000 OA
ATOM     37  C   UNL     1       6.622   3.404  24.257  0.00  0.00    +0.000 C 
ATOM     38  C   UNL     1       7.322   2.123  23.822  0.00  0.00    +0.000 C 
BRANCH  35  39
ATOM     39  C   UNL     1       6.139   2.572  27.154  0.00  0.00    +0.000 C 
ATOM     40 CL   UNL     1       6.964   1.272  28.100  0.00  0.00    +0.000 Cl
ENDBRANCH  35  39
ENDBRANCH  28  31
ENDBRANCH  27  28
ENDBRANCH   1  21
TORSDOF 8
ENDMDL
MODEL 2
REMARK VINA RESULT:      -8.3      3.083      7.173
REMARK  Name = 
REMARK  8 active torsions:
REMARK  status: ('A' for Active; 'I' for Inactive)
REMARK    1  A    between atoms: C_7  and  S_8
REMARK    2  A    between atoms: S_8  and  N_11
REMARK    3  A    between atoms: C_19  and  C_21
REMARK    4  A    between atoms: C_21  and  C_24
REMARK    5  A    between atoms: C_33  and  S_34
REMARK    6  A    between atoms: S_34  and  N_37
REMARK    7  A    between atoms: C_45  and  C_47
REMARK    8  A    between atoms: C_63  and  C_64
REMARK                            x       y       z     vdW  Elec       q    Type
REMARK                         _______ _______ _______ _____ _____    ______ ____
ROOT
ATOM      1  C   UNL     1       7.979  -4.040  23.810  0.00  0.00    +0.000 C 
ENDROOT
BRANCH   1   6
ATOM      2  N   UNL     1       9.243  -0.096  23.245  0.00  0.00    +0.000 NA
ATOM      3  C   UNL     1       9.977  -1.137  22.719  0.00  0.00    +0.000 C 
ATOM      4  C   UNL     1      10.342  -2.201  23.777  0.00  0.00    +0.000 C 
ATOM      5  N   UNL     1       9.263  -2.233  24.737  0.00  0.00    +0.000 N 
ATOM      6  C   UNL     1       8.468  -3.296  25.006  0.00  0.00    +0.000 C 
ATOM      7  O   UNL     1       8.649  -3.883  26.078  0.00  0.00    +0.000 OA
ATOM      8  C   UNL     1       9.140  -1.011  25.532  0.00  0.00    +0.000 C 
ATOM      9  C   UNL     1       9.407   0.178  24.604  0.00  0.00    +0.000 C 
BRANCH   2  10
ATOM     10  S   UNL     1       8.486   0.846  22.313  0.00  0.00    +0.000 S 
ATOM     11  O   UNL     1       9.194   1.016  21.024  0.00  0.00    +0.000 OA
ATOM     12  O   UNL     1       8.201   2.151  22.916  0.00  0.00    +0.000 OA
BRANCH  10  16
ATOM     13  C   UNL     1       6.191   0.640  18.881  0.00  0.00    +0.000 A 
ATOM     14  C   UNL     1       5.816   1.681  19.914  0.00  0.00    +0.000 A 
ATOM     15  C   UNL     1       6.122   1.625  21.352  0.00  0.00    +0.000 A 
ATOM     16  C   UNL     1       6.784   0.311  21.755  0.00  0.00    +0.000 A 
ATOM     17  C   UNL     1       6.923  -0.879  20.903  0.00  0.00    +0.000 A 
ATOM     18  C   UNL     1       6.407  -0.693  19.448  0.00  0.00    +0.000 A 
BRANCH  17  19
ATOM     19  C   UNL     1       6.178  -1.886  21.386  0.00  0.00    +0.000 C 
ATOM     20  N   UNL     1       5.650  -2.414  20.493  0.00  0.00    +0.000 NA
ENDBRANCH  17  19
ENDBRANCH  10  16
ENDBRANCH   2  10
ENDBRANCH   1   6
BRANCH   1  21
ATOM     21  C   UNL     1       6.953  -5.170  24.161  0.00  0.00    +0.000 A 
ATOM     22  C   UNL     1       6.803  -5.865  22.747  0.00  0.00    +0.000 A 
ATOM     23  C   UNL     1       5.624  -5.808  21.848  0.00  0.00    +0.000 A 
ATOM     24  C   UNL     1       4.551  -5.114  22.617  0.00  0.00    +0.000 A 
ATOM     25  C   UNL     1       4.326  -4.678  23.949  0.00  0.00    +0.000 A 
ATOM     26  F   UNL     1       3.519  -5.621  24.443  0.00  0.00    +0.000 F 
ATOM     27  C   UNL     1       5.624  -4.843  24.699  0.00  0.00    +0.000 A 
BRANCH  27  28
ATOM     28  S   UNL     1       5.324  -5.867  26.141  0.00  0.00    +0.000 S 
ATOM     29  O   UNL     1       4.741  -7.099  25.652  0.00  0.00    +0.000 OA
ATOM     30  O   UNL     1       6.714  -6.132  26.651  0.00  0.00    +0.000 OA
BRANCH  28  31
ATOM     31  N   UNL     1       4.502  -5.225  27.303  0.00  0.00    +0.000 NA
ATOM     32  C   UNL     1       3.143  -5.231  27.417  0.00  0.00    +0.000 C 
ATOM     33  C   UNL     1       2.407  -3.905  27.461  0.00  0.00    +0.000 C 
ATOM     34  N   UNL     1       3.401  -2.837  27.746  0.00  0.00    +0.000 N 
ATOM     35  C   UNL     1       3.634  -1.904  26.839  0.00  0.00    +0.000 C 
ATOM     36  O   UNL     1       2.596  -1.396  26.291  0.00  0.00    +0.000 OA
ATOM     37  C   UNL     1       4.361  -3.257  28.749  0.00  0.00    +0.000 C 
ATOM     38  C   UNL     1       5.227  -4.340  28.118  0.00  0.00    +0.000 C 
BRANCH  35  39
ATOM     39  C   UNL     1       4.869  -1.123  26.626  0.00  0.00    +0.000 C 
ATOM     40 CL   UNL     1       5.465  -1.314  24.930  0.00  0.00    +0.000 Cl
ENDBRANCH  35  39
ENDBRANCH  28  31
ENDBRANCH  27  28
ENDBRANCH   1  21
TORSDOF 8
ENDMDL
MODEL 3
REMARK VINA RESULT:      -8.2      2.832      4.739
REMARK  Name = 
REMARK  8 active torsions:
REMARK  status: ('A' for Active; 'I' for Inactive)
REMARK    1  A    between atoms: C_7  and  S_8
REMARK    2  A    between atoms: S_8  and  N_11
REMARK    3  A    between atoms: C_19  and  C_21
REMARK    4  A    between atoms: C_21  and  C_24
REMARK    5  A    between atoms: C_33  and  S_34
REMARK    6  A    between atoms: S_34  and  N_37
REMARK    7  A    between atoms: C_45  and  C_47
REMARK    8  A    between atoms: C_63  and  C_64
REMARK                            x       y       z     vdW  Elec       q    Type
REMARK                         _______ _______ _______ _____ _____    ______ ____
ROOT
ATOM      1  C   UNL     1       4.613  -0.621  25.887  0.00  0.00    +0.000 C 
ENDROOT
BRANCH   1   6
ATOM      2  N   UNL     1       3.667  -4.639  25.224  0.00  0.00    +0.000 NA
ATOM      3  C   UNL     1       2.661  -3.702  25.335  0.00  0.00    +0.000 C 
ATOM      4  C   UNL     1       2.770  -2.863  26.626  0.00  0.00    +0.000 C 
ATOM      5  N   UNL     1       4.176  -2.739  26.935  0.00  0.00    +0.000 N 
ATOM      6  C   UNL     1       4.879  -1.583  26.995  0.00  0.00    +0.000 C 
ATOM      7  O   UNL     1       5.203  -1.173  28.115  0.00  0.00    +0.000 OA
ATOM      8  C   UNL     1       4.814  -4.001  27.311  0.00  0.00    +0.000 C 
ATOM      9  C   UNL     1       4.243  -5.099  26.409  0.00  0.00    +0.000 C 
BRANCH   2  10
ATOM     10  S   UNL     1       3.945  -5.299  23.876  0.00  0.00    +0.000 S 
ATOM     11  O   UNL     1       2.790  -5.164  22.960  0.00  0.00    +0.000 OA
ATOM     12  O   UNL     1       4.344  -6.705  23.992  0.00  0.00    +0.000 OA
BRANCH  10  16
ATOM     13  C   UNL     1       8.033  -4.721  24.056  0.00  0.00    +0.000 A 
ATOM     14  C   UNL     1       7.147  -3.499  24.169  0.00  0.00    +0.000 A 
ATOM     15  C   UNL     1       5.776  -3.371  23.651  0.00  0.00    +0.000 A 
ATOM     16  C   UNL     1       5.340  -4.596  22.851  0.00  0.00    +0.000 A 
ATOM     17  C   UNL     1       6.212  -5.700  22.426  0.00  0.00    +0.000 A 
ATOM     18  C   UNL     1       7.676  -5.599  22.939  0.00  0.00    +0.000 A 
BRANCH  17  19
ATOM     19  C   UNL     1       6.335  -5.708  21.090  0.00  0.00    +0.000 C 
ATOM     20  N   UNL     1       5.828  -4.749  20.667  0.00  0.00    +0.000 NA
ENDBRANCH  17  19
ENDBRANCH  10  16
ENDBRANCH   2  10
ENDBRANCH   1   6
BRANCH   1  21
ATOM     21  C   UNL     1       5.635   0.564  25.837  0.00  0.00    +0.000 A 
ATOM     22  C   UNL     1       4.671   1.782  26.135  0.00  0.00    +0.000 A 
ATOM     23  C   UNL     1       4.230   2.824  25.174  0.00  0.00    +0.000 A 
ATOM     24  C   UNL     1       5.011   2.591  23.925  0.00  0.00    +0.000 A 
ATOM     25  C   UNL     1       6.111   1.797  23.505  0.00  0.00    +0.000 A 
ATOM     26  F   UNL     1       7.127   2.665  23.506  0.00  0.00    +0.000 F 
ATOM     27  C   UNL     1       6.420   0.834  24.623  0.00  0.00    +0.000 A 
BRANCH  27  28
ATOM     28  S   UNL     1       8.141   1.031  25.087  0.00  0.00    +0.000 S 
ATOM     29  O   UNL     1       8.289   2.399  25.536  0.00  0.00    +0.000 OA
ATOM     30  O   UNL     1       8.275   0.096  26.258  0.00  0.00    +0.000 OA
BRANCH  28  31
ATOM     31  N   UNL     1       9.210   0.622  24.024  0.00  0.00    +0.000 NA
ATOM     32  C   UNL     1       9.892   1.476  23.208  0.00  0.00    +0.000 C 
ATOM     33  C   UNL     1       9.749   1.324  21.706  0.00  0.00    +0.000 C 
ATOM     34  N   UNL     1       9.154  -0.010  21.434  0.00  0.00    +0.000 N 
ATOM     35  C   UNL     1       7.960  -0.090  20.873  0.00  0.00    +0.000 C 
ATOM     36  O   UNL     1       7.768   0.683  19.872  0.00  0.00    +0.000 OA
ATOM     37  C   UNL     1       9.720  -1.032  22.295  0.00  0.00    +0.000 C 
ATOM     38  C   UNL     1       9.234  -0.748  23.711  0.00  0.00    +0.000 C 
BRANCH  35  39
ATOM     39  C   UNL     1       6.960  -1.169  20.999  0.00  0.00    +0.000 C 
ATOM     40 CL   UNL     1       5.820  -1.156  19.597  0.00  0.00    +0.000 Cl
ENDBRANCH  35  39
ENDBRANCH  28  31
ENDBRANCH  27  28
ENDBRANCH   1  21
TORSDOF 8
ENDMDL
MODEL 4
REMARK VINA RESULT:      -8.2      3.136      7.742
REMARK  Name = 
REMARK  8 active torsions:
REMARK  status: ('A' for Active; 'I' for Inactive)
REMARK    1  A    between atoms: C_7  and  S_8
REMARK    2  A    between atoms: S_8  and  N_11
REMARK    3  A    between atoms: C_19  and  C_21
REMARK    4  A    between atoms: C_21  and  C_24
REMARK    5  A    between atoms: C_33  and  S_34
REMARK    6  A    between atoms: S_34  and  N_37
REMARK    7  A    between atoms: C_45  and  C_47
REMARK    8  A    between atoms: C_63  and  C_64
REMARK                            x       y       z     vdW  Elec       q    Type
REMARK                         _______ _______ _______ _____ _____    ______ ____
ROOT
ATOM      1  C   UNL     1       8.082  -2.987  23.045  0.00  0.00    +0.000 C 
ENDROOT
BRANCH   1   6
ATOM      2  N   UNL     1       8.604   1.048  22.085  0.00  0.00    +0.000 NA
ATOM      3  C   UNL     1       8.585   0.098  21.086  0.00  0.00    +0.000 C 
ATOM      4  C   UNL     1       9.591  -1.046  21.335  0.00  0.00    +0.000 C 
ATOM      5  N   UNL     1       9.689  -1.222  22.765  0.00  0.00    +0.000 N 
ATOM      6  C   UNL     1       9.362  -2.342  23.454  0.00  0.00    +0.000 C 
ATOM      7  O   UNL     1      10.290  -3.023  23.902  0.00  0.00    +0.000 OA
ATOM      8  C   UNL     1      10.302  -0.091  23.462  0.00  0.00    +0.000 C 
ATOM      9  C   UNL     1       9.791   1.194  22.804  0.00  0.00    +0.000 C 
BRANCH   2  10
ATOM     10  S   UNL     1       7.451   2.041  22.210  0.00  0.00    +0.000 S 
ATOM     11  O   UNL     1       6.462   1.861  21.124  0.00  0.00    +0.000 OA
ATOM     12  O   UNL     1       7.895   3.437  22.271  0.00  0.00    +0.000 OA
BRANCH  10  16
ATOM     13  C   UNL     1       7.685   0.850  26.161  0.00  0.00    +0.000 A 
ATOM     14  C   UNL     1       6.890  -0.022  25.212  0.00  0.00    +0.000 A 
ATOM     15  C   UNL     1       6.258   0.415  23.957  0.00  0.00    +0.000 A 
ATOM     16  C   UNL     1       6.381   1.920  23.737  0.00  0.00    +0.000 A 
ATOM     17  C   UNL     1       6.862   2.898  24.724  0.00  0.00    +0.000 A 
ATOM     18  C   UNL     1       7.354   2.274  26.061  0.00  0.00    +0.000 A 
BRANCH  17  19
ATOM     19  C   UNL     1       5.863   3.714  25.095  0.00  0.00    +0.000 C 
ATOM     20  N   UNL     1       6.230   4.814  24.997  0.00  0.00    +0.000 NA
ENDBRANCH  17  19
ENDBRANCH  10  16
ENDBRANCH   2  10
ENDBRANCH   1   6
BRANCH   1  21
ATOM     21  C   UNL     1       7.683  -4.200  23.950  0.00  0.00    +0.000 A 
ATOM     22  C   UNL     1       7.633  -5.355  22.870  0.00  0.00    +0.000 A 
ATOM     23  C   UNL     1       6.421  -6.032  22.346  0.00  0.00    +0.000 A 
ATOM     24  C   UNL     1       5.280  -5.529  23.165  0.00  0.00    +0.000 A 
ATOM     25  C   UNL     1       5.089  -4.757  24.341  0.00  0.00    +0.000 A 
ATOM     26  F   UNL     1       4.830  -5.682  25.269  0.00  0.00    +0.000 F 
ATOM     27  C   UNL     1       6.432  -4.186  24.724  0.00  0.00    +0.000 A 
BRANCH  27  28
ATOM     28  S   UNL     1       6.798  -4.671  26.411  0.00  0.00    +0.000 S 
ATOM     29  O   UNL     1       6.809  -6.119  26.427  0.00  0.00    +0.000 OA
ATOM     30  O   UNL     1       8.197  -4.152  26.606  0.00  0.00    +0.000 OA
BRANCH  28  31
ATOM     31  N   UNL     1       5.900  -4.058  27.533  0.00  0.00    +0.000 NA
ATOM     32  C   UNL     1       5.377  -4.734  28.595  0.00  0.00    +0.000 C 
ATOM     33  C   UNL     1       3.870  -4.785  28.759  0.00  0.00    +0.000 C 
ATOM     34  N   UNL     1       3.277  -3.737  27.889  0.00  0.00    +0.000 N 
ATOM     35  C   UNL     1       2.499  -4.089  26.880  0.00  0.00    +0.000 C 
ATOM     36  O   UNL     1       1.620  -4.979  27.147  0.00  0.00    +0.000 OA
ATOM     37  C   UNL     1       4.050  -2.509  27.932  0.00  0.00    +0.000 C 
ATOM     38  C   UNL     1       5.377  -2.788  27.238  0.00  0.00    +0.000 C 
BRANCH  35  39
ATOM     39  C   UNL     1       2.259  -3.368  25.614  0.00  0.00    +0.000 C 
ATOM     40 CL   UNL     1       1.474  -4.451  24.398  0.00  0.00    +0.000 Cl
ENDBRANCH  35  39
ENDBRANCH  28  31
ENDBRANCH  27  28
ENDBRANCH   1  21
TORSDOF 8
ENDMDL
MODEL 5
REMARK VINA RESULT:      -8.1      2.916      7.716
REMARK  Name = 
REMARK  8 active torsions:
REMARK  status: ('A' for Active; 'I' for Inactive)
REMARK    1  A    between atoms: C_7  and  S_8
REMARK    2  A    between atoms: S_8  and  N_11
REMARK    3  A    between atoms: C_19  and  C_21
REMARK    4  A    between atoms: C_21  and  C_24
REMARK    5  A    between atoms: C_33  and  S_34
REMARK    6  A    between atoms: S_34  and  N_37
REMARK    7  A    between atoms: C_45  and  C_47
REMARK    8  A    between atoms: C_63  and  C_64
REMARK                            x       y       z     vdW  Elec       q    Type
REMARK                         _______ _______ _______ _____ _____    ______ ____
ROOT
ATOM      1  C   UNL     1       7.239  -3.172  24.100  0.00  0.00    +0.000 C 
ENDROOT
BRANCH   1   6
ATOM      2  N   UNL     1       9.787  -0.036  23.027  0.00  0.00    +0.000 NA
ATOM      3  C   UNL     1       9.973  -1.291  22.487  0.00  0.00    +0.000 C 
ATOM      4  C   UNL     1      10.080  -2.391  23.565  0.00  0.00    +0.000 C 
ATOM      5  N   UNL     1       9.248  -1.984  24.673  0.00  0.00    +0.000 N 
ATOM      6  C   UNL     1       8.167  -2.651  25.144  0.00  0.00    +0.000 C 
ATOM      7  O   UNL     1       8.290  -3.241  26.223  0.00  0.00    +0.000 OA
ATOM      8  C   UNL     1       9.732  -0.794  25.373  0.00  0.00    +0.000 C 
ATOM      9  C   UNL     1      10.268   0.180  24.319  0.00  0.00    +0.000 C 
BRANCH   2  10
ATOM     10  S   UNL     1       9.297   1.106  22.141  0.00  0.00    +0.000 S 
ATOM     11  O   UNL     1       8.822   0.608  20.830  0.00  0.00    +0.000 OA
ATOM     12  O   UNL     1      10.296   2.163  21.955  0.00  0.00    +0.000 OA
BRANCH  10  16
ATOM     13  C   UNL     1       7.289   1.979  25.647  0.00  0.00    +0.000 A 
ATOM     14  C   UNL     1       6.607   1.056  24.660  0.00  0.00    +0.000 A 
ATOM     15  C   UNL     1       6.854   1.002  23.210  0.00  0.00    +0.000 A 
ATOM     16  C   UNL     1       7.824   2.084  22.745  0.00  0.00    +0.000 A 
ATOM     17  C   UNL     1       8.309   3.211  23.555  0.00  0.00    +0.000 A 
ATOM     18  C   UNL     1       7.826   3.196  25.033  0.00  0.00    +0.000 A 
BRANCH  17  19
ATOM     19  C   UNL     1       7.838   4.370  23.070  0.00  0.00    +0.000 C 
ATOM     20  N   UNL     1       7.389   4.173  22.014  0.00  0.00    +0.000 NA
ENDBRANCH  17  19
ENDBRANCH  10  16
ENDBRANCH   2  10
ENDBRANCH   1   6
BRANCH   1  21
ATOM     21  C   UNL     1       6.799  -4.654  24.346  0.00  0.00    +0.000 A 
ATOM     22  C   UNL     1       7.455  -5.356  23.089  0.00  0.00    +0.000 A 
ATOM     23  C   UNL     1       6.747  -5.903  21.904  0.00  0.00    +0.000 A 
ATOM     24  C   UNL     1       5.291  -5.815  22.216  0.00  0.00    +0.000 A 
ATOM     25  C   UNL     1       4.472  -5.524  23.338  0.00  0.00    +0.000 A 
ATOM     26  F   UNL     1       4.081  -6.734  23.747  0.00  0.00    +0.000 F 
ATOM     27  C   UNL     1       5.377  -5.016  24.433  0.00  0.00    +0.000 A 
BRANCH  27  28
ATOM     28  S   UNL     1       5.133  -6.030  25.891  0.00  0.00    +0.000 S 
ATOM     29  O   UNL     1       4.693  -7.326  25.418  0.00  0.00    +0.000 OA
ATOM     30  O   UNL     1       6.525  -6.141  26.451  0.00  0.00    +0.000 OA
BRANCH  28  31
ATOM     31  N   UNL     1       4.212  -5.448  27.011  0.00  0.00    +0.000 NA
ATOM     32  C   UNL     1       2.870  -5.229  26.907  0.00  0.00    +0.000 C 
ATOM     33  C   UNL     1       2.342  -3.819  27.085  0.00  0.00    +0.000 C 
ATOM     34  N   UNL     1       3.412  -3.005  27.719  0.00  0.00    +0.000 N 
ATOM     35  C   UNL     1       3.945  -1.995  27.054  0.00  0.00    +0.000 C 
ATOM     36  O   UNL     1       3.113  -1.228  26.455  0.00  0.00    +0.000 OA
ATOM     37  C   UNL     1       4.096  -3.745  28.762  0.00  0.00    +0.000 C 
ATOM     38  C   UNL     1       4.896  -4.849  28.082  0.00  0.00    +0.000 C 
BRANCH  35  39
ATOM     39  C   UNL     1       5.299  -1.422  27.188  0.00  0.00    +0.000 C 
ATOM     40 CL   UNL     1       5.253   0.127  28.118  0.00  0.00    +0.000 Cl
ENDBRANCH  35  39
ENDBRANCH  28  31
ENDBRANCH  27  28
ENDBRANCH   1  21
TORSDOF 8
ENDMDL
MODEL 6
REMARK VINA RESULT:      -8.0      2.977      8.359
REMARK  Name = 
REMARK  8 active torsions:
REMARK  status: ('A' for Active; 'I' for Inactive)
REMARK    1  A    between atoms: C_7  and  S_8
REMARK    2  A    between atoms: S_8  and  N_11
REMARK    3  A    between atoms: C_19  and  C_21
REMARK    4  A    between atoms: C_21  and  C_24
REMARK    5  A    between atoms: C_33  and  S_34
REMARK    6  A    between atoms: S_34  and  N_37
REMARK    7  A    between atoms: C_45  and  C_47
REMARK    8  A    between atoms: C_63  and  C_64
REMARK                            x       y       z     vdW  Elec       q    Type
REMARK                         _______ _______ _______ _____ _____    ______ ____
ROOT
ATOM      1  C   UNL     1       6.838  -1.110  25.349  0.00  0.00    +0.000 C 
ENDROOT
BRANCH   1   6
ATOM      2  N   UNL     1       7.239   2.884  24.180  0.00  0.00    +0.000 NA
ATOM      3  C   UNL     1       7.812   2.449  25.356  0.00  0.00    +0.000 C 
ATOM      4  C   UNL     1       6.802   1.736  26.281  0.00  0.00    +0.000 C 
ATOM      5  N   UNL     1       5.840   1.075  25.431  0.00  0.00    +0.000 N 
ATOM      6  C   UNL     1       5.614  -0.260  25.371  0.00  0.00    +0.000 C 
ATOM      7  O   UNL     1       4.569  -0.681  25.878  0.00  0.00    +0.000 OA
ATOM      8  C   UNL     1       4.993   1.992  24.668  0.00  0.00    +0.000 C 
ATOM      9  C   UNL     1       5.870   3.157  24.201  0.00  0.00    +0.000 C 
BRANCH   2  10
ATOM     10  S   UNL     1       8.127   3.272  23.002  0.00  0.00    +0.000 S 
ATOM     11  O   UNL     1       9.503   3.593  23.443  0.00  0.00    +0.000 OA
ATOM     12  O   UNL     1       7.578   4.371  22.201  0.00  0.00    +0.000 OA
BRANCH  10  16
ATOM     13  C   UNL     1       8.965  -0.762  22.676  0.00  0.00    +0.000 A 
ATOM     14  C   UNL     1      10.073   0.214  22.340  0.00  0.00    +0.000 A 
ATOM     15  C   UNL     1       9.898   1.607  21.901  0.00  0.00    +0.000 A 
ATOM     16  C   UNL     1       8.430   1.972  21.695  0.00  0.00    +0.000 A 
ATOM     17  C   UNL     1       7.301   1.030  21.700  0.00  0.00    +0.000 A 
ATOM     18  C   UNL     1       7.688  -0.438  22.035  0.00  0.00    +0.000 A 
BRANCH  17  19
ATOM     19  C   UNL     1       6.756   0.951  20.476  0.00  0.00    +0.000 C 
ATOM     20  N   UNL     1       7.479   0.354  19.787  0.00  0.00    +0.000 NA
ENDBRANCH  17  19
ENDBRANCH  10  16
ENDBRANCH   2  10
ENDBRANCH   1   6
BRANCH   1  21
ATOM     21  C   UNL     1       6.527  -2.643  25.301  0.00  0.00    +0.000 A 
ATOM     22  C   UNL     1       7.757  -3.207  26.122  0.00  0.00    +0.000 A 
ATOM     23  C   UNL     1       8.913  -3.967  25.584  0.00  0.00    +0.000 A 
ATOM     24  C   UNL     1       8.597  -4.241  24.152  0.00  0.00    +0.000 A 
ATOM     25  C   UNL     1       7.483  -4.121  23.279  0.00  0.00    +0.000 A 
ATOM     26  F   UNL     1       7.021  -5.372  23.208  0.00  0.00    +0.000 F 
ATOM     27  C   UNL     1       6.416  -3.352  24.018  0.00  0.00    +0.000 A 
BRANCH  27  28
ATOM     28  S   UNL     1       4.915  -4.332  24.034  0.00  0.00    +0.000 S 
ATOM     29  O   UNL     1       3.878  -3.481  24.579  0.00  0.00    +0.000 OA
ATOM     30  O   UNL     1       4.659  -4.566  22.570  0.00  0.00    +0.000 OA
BRANCH  28  31
ATOM     31  N   UNL     1       4.988  -5.726  24.734  0.00  0.00    +0.000 NA
ATOM     32  C   UNL     1       4.343  -6.858  24.330  0.00  0.00    +0.000 C 
ATOM     33  C   UNL     1       3.356  -7.514  25.276  0.00  0.00    +0.000 C 
ATOM     34  N   UNL     1       3.585  -6.961  26.636  0.00  0.00    +0.000 N 
ATOM     35  C   UNL     1       2.635  -6.253  27.221  0.00  0.00    +0.000 C 
ATOM     36  O   UNL     1       1.455  -6.742  27.144  0.00  0.00    +0.000 OA
ATOM     37  C   UNL     1       5.000  -6.820  26.922  0.00  0.00    +0.000 C 
ATOM     38  C   UNL     1       5.531  -5.705  26.030  0.00  0.00    +0.000 C 
BRANCH  35  39
ATOM     39  C   UNL     1       2.779  -5.188  28.234  0.00  0.00    +0.000 C 
ATOM     40 CL   UNL     1       1.569  -3.874  27.961  0.00  0.00    +0.000 Cl
ENDBRANCH  35  39
ENDBRANCH  28  31
ENDBRANCH  27  28
ENDBRANCH   1  21
TORSDOF 8
ENDMDL
MODEL 7
REMARK VINA RESULT:      -7.9      2.764      8.098
REMARK  Name = 
REMARK  8 active torsions:
REMARK  status: ('A' for Active; 'I' for Inactive)
REMARK    1  A    between atoms: C_7  and  S_8
REMARK    2  A    between atoms: S_8  and  N_11
REMARK    3  A    between atoms: C_19  and  C_21
REMARK    4  A    between atoms: C_21  and  C_24
REMARK    5  A    between atoms: C_33  and  S_34
REMARK    6  A    between atoms: S_34  and  N_37
REMARK    7  A    between atoms: C_45  and  C_47
REMARK    8  A    between atoms: C_63  and  C_64
REMARK                            x       y       z     vdW  Elec       q    Type
REMARK                         _______ _______ _______ _____ _____    ______ ____
ROOT
ATOM      1  C   UNL     1       8.147   0.861  25.642  0.00  0.00    +0.000 C 
ENDROOT
BRANCH   1   6
ATOM      2  N   UNL     1       5.193   3.657  24.677  0.00  0.00    +0.000 NA
ATOM      3  C   UNL     1       6.132   3.951  25.644  0.00  0.00    +0.000 C 
ATOM      4  C   UNL     1       6.214   2.868  26.740  0.00  0.00    +0.000 C 
ATOM      5  N   UNL     1       5.911   1.603  26.112  0.00  0.00    +0.000 N 
ATOM      6  C   UNL     1       6.743   0.538  26.023  0.00  0.00    +0.000 C 
ATOM      7  O   UNL     1       6.498  -0.435  26.743  0.00  0.00    +0.000 OA
ATOM      8  C   UNL     1       4.529   1.489  25.645  0.00  0.00    +0.000 C 
ATOM      9  C   UNL     1       4.124   2.843  25.053  0.00  0.00    +0.000 C 
BRANCH   2  10
ATOM     10  S   UNL     1       5.220   4.399  23.344  0.00  0.00    +0.000 S 
ATOM     11  O   UNL     1       5.061   5.859  23.533  0.00  0.00    +0.000 OA
ATOM     12  O   UNL     1       4.231   3.898  22.384  0.00  0.00    +0.000 OA
BRANCH  10  16
ATOM     13  C   UNL     1       9.310   4.746  23.828  0.00  0.00    +0.000 A 
ATOM     14  C   UNL     1       8.595   5.857  23.090  0.00  0.00    +0.000 A 
ATOM     15  C   UNL     1       7.314   5.740  22.375  0.00  0.00    +0.000 A 
ATOM     16  C   UNL     1       6.796   4.304  22.344  0.00  0.00    +0.000 A 
ATOM     17  C   UNL     1       7.544   3.110  22.761  0.00  0.00    +0.000 A 
ATOM     18  C   UNL     1       8.949   3.406  23.358  0.00  0.00    +0.000 A 
BRANCH  17  19
ATOM     19  C   UNL     1       7.800   2.327  21.701  0.00  0.00    +0.000 C 
ATOM     20  N   UNL     1       6.832   1.736  21.437  0.00  0.00    +0.000 NA
ENDBRANCH  17  19
ENDBRANCH  10  16
ENDBRANCH   2  10
ENDBRANCH   1   6
BRANCH   1  21
ATOM     21  C   UNL     1       8.957  -0.384  25.148  0.00  0.00    +0.000 A 
ATOM     22  C   UNL     1      10.414   0.231  25.088  0.00  0.00    +0.000 A 
ATOM     23  C   UNL     1      11.194   0.555  23.868  0.00  0.00    +0.000 A 
ATOM     24  C   UNL     1      10.403   0.026  22.719  0.00  0.00    +0.000 A 
ATOM     25  C   UNL     1       9.264  -0.799  22.517  0.00  0.00    +0.000 A 
ATOM     26  F   UNL     1       9.801  -1.973  22.175  0.00  0.00    +0.000 F 
ATOM     27  C   UNL     1       8.637  -1.035  23.869  0.00  0.00    +0.000 A 
BRANCH  27  28
ATOM     28  S   UNL     1       8.516  -2.803  24.140  0.00  0.00    +0.000 S 
ATOM     29  O   UNL     1       9.874  -3.304  24.181  0.00  0.00    +0.000 OA
ATOM     30  O   UNL     1       7.905  -2.883  25.513  0.00  0.00    +0.000 OA
BRANCH  28  31
ATOM     31  N   UNL     1       7.601  -3.606  23.162  0.00  0.00    +0.000 NA
ATOM     32  C   UNL     1       6.520  -3.112  22.492  0.00  0.00    +0.000 C 
ATOM     33  C   UNL     1       5.160  -3.736  22.738  0.00  0.00    +0.000 C 
ATOM     34  N   UNL     1       5.368  -5.043  23.413  0.00  0.00    +0.000 N 
ATOM     35  C   UNL     1       4.918  -5.222  24.643  0.00  0.00    +0.000 C 
ATOM     36  O   UNL     1       3.728  -4.806  24.861  0.00  0.00    +0.000 OA
ATOM     37  C   UNL     1       6.492  -5.763  22.843  0.00  0.00    +0.000 C 
ATOM     38  C   UNL     1       7.755  -5.001  23.225  0.00  0.00    +0.000 C 
BRANCH  35  39
ATOM     39  C   UNL     1       5.437  -6.131  25.684  0.00  0.00    +0.000 C 
ATOM     40 CL   UNL     1       5.737  -5.237  27.226  0.00  0.00    +0.000 Cl
ENDBRANCH  35  39
ENDBRANCH  28  31
ENDBRANCH  27  28
ENDBRANCH   1  21
TORSDOF 8
ENDMDL
MODEL 8
REMARK VINA RESULT:      -7.9      3.175      8.461
REMARK  Name = 
REMARK  8 active torsions:
REMARK  status: ('A' for Active; 'I' for Inactive)
REMARK    1  A    between atoms: C_7  and  S_8
REMARK    2  A    between atoms: S_8  and  N_11
REMARK    3  A    between atoms: C_19  and  C_21
REMARK    4  A    between atoms: C_21  and  C_24
REMARK    5  A    between atoms: C_33  and  S_34
REMARK    6  A    between atoms: S_34  and  N_37
REMARK    7  A    between atoms: C_45  and  C_47
REMARK    8  A    between atoms: C_63  and  C_64
REMARK                            x       y       z     vdW  Elec       q    Type
REMARK                         _______ _______ _______ _____ _____    ______ ____
ROOT
ATOM      1  C   UNL     1       6.681  -1.569  24.847  0.00  0.00    +0.000 C 
ENDROOT
BRANCH   1   6
ATOM      2  N   UNL     1       7.430   2.488  24.171  0.00  0.00    +0.000 NA
ATOM      3  C   UNL     1       8.028   1.844  25.233  0.00  0.00    +0.000 C 
ATOM      4  C   UNL     1       7.010   1.115  26.135  0.00  0.00    +0.000 C 
ATOM      5  N   UNL     1       5.930   0.671  25.286  0.00  0.00    +0.000 N 
ATOM      6  C   UNL     1       5.559  -0.615  25.074  0.00  0.00    +0.000 C 
ATOM      7  O   UNL     1       4.510  -0.997  25.604  0.00  0.00    +0.000 OA
ATOM      8  C   UNL     1       5.138   1.761  24.715  0.00  0.00    +0.000 C 
ATOM      9  C   UNL     1       6.103   2.888  24.333  0.00  0.00    +0.000 C 
BRANCH   2  10
ATOM     10  S   UNL     1       8.276   2.943  22.986  0.00  0.00    +0.000 S 
ATOM     11  O   UNL     1       9.662   3.261  23.400  0.00  0.00    +0.000 OA
ATOM     12  O   UNL     1       7.690   4.072  22.256  0.00  0.00    +0.000 OA
BRANCH  10  16
ATOM     13  C   UNL     1       8.810  -1.116  22.424  0.00  0.00    +0.000 A 
ATOM     14  C   UNL     1      10.010  -0.217  22.218  0.00  0.00    +0.000 A 
ATOM     15  C   UNL     1       9.973   1.212  21.869  0.00  0.00    +0.000 A 
ATOM     16  C   UNL     1       8.554   1.710  21.609  0.00  0.00    +0.000 A 
ATOM     17  C   UNL     1       7.355   0.868  21.486  0.00  0.00    +0.000 A 
ATOM     18  C   UNL     1       7.604  -0.646  21.738  0.00  0.00    +0.000 A 
BRANCH  17  19
ATOM     19  C   UNL     1       6.880   0.915  20.232  0.00  0.00    +0.000 C 
ATOM     20  N   UNL     1       7.420   0.100  19.602  0.00  0.00    +0.000 NA
ENDBRANCH  17  19
ENDBRANCH  10  16
ENDBRANCH   2  10
ENDBRANCH   1   6
BRANCH   1  21
ATOM     21  C   UNL     1       6.837  -2.626  25.991  0.00  0.00    +0.000 A 
ATOM     22  C   UNL     1       8.398  -2.879  25.932  0.00  0.00    +0.000 A 
ATOM     23  C   UNL     1       9.083  -4.099  25.438  0.00  0.00    +0.000 A 
ATOM     24  C   UNL     1       8.009  -5.099  25.173  0.00  0.00    +0.000 A 
ATOM     25  C   UNL     1       6.616  -5.235  25.415  0.00  0.00    +0.000 A 
ATOM     26  F   UNL     1       6.573  -6.058  26.466  0.00  0.00    +0.000 F 
ATOM     27  C   UNL     1       6.121  -3.909  25.937  0.00  0.00    +0.000 A 
BRANCH  27  28
ATOM     28  S   UNL     1       5.315  -4.182  27.515  0.00  0.00    +0.000 S 
ATOM     29  O   UNL     1       6.272  -4.883  28.346  0.00  0.00    +0.000 OA
ATOM     30  O   UNL     1       5.125  -2.783  28.033  0.00  0.00    +0.000 OA
BRANCH  28  31
ATOM     31  N   UNL     1       3.915  -4.875  27.483  0.00  0.00    +0.000 NA
ATOM     32  C   UNL     1       3.645  -6.147  27.895  0.00  0.00    +0.000 C 
ATOM     33  C   UNL     1       3.081  -7.136  26.893  0.00  0.00    +0.000 C 
ATOM     34  N   UNL     1       2.587  -6.370  25.720  0.00  0.00    +0.000 N 
ATOM     35  C   UNL     1       3.160  -6.539  24.541  0.00  0.00    +0.000 C 
ATOM     36  O   UNL     1       3.382  -7.754  24.205  0.00  0.00    +0.000 OA
ATOM     37  C   UNL     1       1.901  -5.158  26.125  0.00  0.00    +0.000 C 
ATOM     38  C   UNL     1       2.951  -4.217  26.702  0.00  0.00    +0.000 C 
BRANCH  35  39
ATOM     39  C   UNL     1       3.256  -5.580  23.423  0.00  0.00    +0.000 C 
ATOM     40 CL   UNL     1       4.821  -5.775  22.541  0.00  0.00    +0.000 Cl
ENDBRANCH  35  39
ENDBRANCH  28  31
ENDBRANCH  27  28
ENDBRANCH   1  21
TORSDOF 8
ENDMDL
MODEL 9
REMARK VINA RESULT:      -7.8      3.105      8.226
REMARK  Name = 
REMARK  8 active torsions:
REMARK  status: ('A' for Active; 'I' for Inactive)
REMARK    1  A    between atoms: C_7  and  S_8
REMARK    2  A    between atoms: S_8  and  N_11
REMARK    3  A    between atoms: C_19  and  C_21
REMARK    4  A    between atoms: C_21  and  C_24
REMARK    5  A    between atoms: C_33  and  S_34
REMARK    6  A    between atoms: S_34  and  N_37
REMARK    7  A    between atoms: C_45  and  C_47
REMARK    8  A    between atoms: C_63  and  C_64
REMARK                            x       y       z     vdW  Elec       q    Type
REMARK                         _______ _______ _______ _____ _____    ______ ____
ROOT
ATOM      1  C   UNL     1       4.451  -2.475  28.038  0.00  0.00    +0.000 C 
ENDROOT
BRANCH   1   6
ATOM      2  N   UNL     1       6.519   0.719  26.306  0.00  0.00    +0.000 NA
ATOM      3  C   UNL     1       6.802   0.334  27.599  0.00  0.00    +0.000 C 
ATOM      4  C   UNL     1       5.543   0.277  28.491  0.00  0.00    +0.000 C 
ATOM      5  N   UNL     1       4.438  -0.105  27.643  0.00  0.00    +0.000 N 
ATOM      6  C   UNL     1       3.686  -1.224  27.769  0.00  0.00    +0.000 C 
ATOM      7  O   UNL     1       2.537  -1.089  28.201  0.00  0.00    +0.000 OA
ATOM      8  C   UNL     1       4.084   0.902  26.641  0.00  0.00    +0.000 C 
ATOM      9  C   UNL     1       5.385   1.508  26.109  0.00  0.00    +0.000 C 
BRANCH   2  10
ATOM     10  S   UNL     1       7.547   0.483  25.202  0.00  0.00    +0.000 S 
ATOM     11  O   UNL     1       7.052  -0.489  24.201  0.00  0.00    +0.000 OA
ATOM     12  O   UNL     1       8.858   0.069  25.712  0.00  0.00    +0.000 OA
BRANCH  10  16
ATOM     13  C   UNL     1       9.922   1.415  21.951  0.00  0.00    +0.000 A 
ATOM     14  C   UNL     1      10.354   1.933  23.306  0.00  0.00    +0.000 A 
ATOM     15  C   UNL     1       9.477   2.170  24.463  0.00  0.00    +0.000 A 
ATOM     16  C   UNL     1       8.004   1.945  24.133  0.00  0.00    +0.000 A 
ATOM     17  C   UNL     1       7.446   1.736  22.789  0.00  0.00    +0.000 A 
ATOM     18  C   UNL     1       8.508   1.662  21.656  0.00  0.00    +0.000 A 
BRANCH  17  19
ATOM     19  C   UNL     1       6.671   2.774  22.440  0.00  0.00    +0.000 C 
ATOM     20  N   UNL     1       6.014   2.456  21.534  0.00  0.00    +0.000 NA
ENDBRANCH  17  19
ENDBRANCH  10  16
ENDBRANCH   2  10
ENDBRANCH   1   6
BRANCH   1  21
ATOM     21  C   UNL     1       3.931  -3.706  27.223  0.00  0.00    +0.000 A 
ATOM     22  C   UNL     1       3.580  -4.700  28.403  0.00  0.00    +0.000 A 
ATOM     23  C   UNL     1       4.315  -5.933  28.777  0.00  0.00    +0.000 A 
ATOM     24  C   UNL     1       5.343  -6.140  27.716  0.00  0.00    +0.000 A 
ATOM     25  C   UNL     1       5.663  -5.599  26.443  0.00  0.00    +0.000 A 
ATOM     26  F   UNL     1       5.180  -6.513  25.597  0.00  0.00    +0.000 F 
ATOM     27  C   UNL     1       4.794  -4.382  26.242  0.00  0.00    +0.000 A 
BRANCH  27  28
ATOM     28  S   UNL     1       3.877  -4.583  24.715  0.00  0.00    +0.000 S 
ATOM     29  O   UNL     1       3.075  -5.779  24.874  0.00  0.00    +0.000 OA
ATOM     30  O   UNL     1       2.983  -3.373  24.707  0.00  0.00    +0.000 OA
BRANCH  28  31
ATOM     31  N   UNL     1       4.702  -4.577  23.389  0.00  0.00    +0.000 NA
ATOM     32  C   UNL     1       5.074  -5.678  22.675  0.00  0.00    +0.000 C 
ATOM     33  C   UNL     1       6.551  -5.944  22.458  0.00  0.00    +0.000 C 
ATOM     34  N   UNL     1       7.294  -4.698  22.777  0.00  0.00    +0.000 N 
ATOM     35  C   UNL     1       8.141  -4.684  23.792  0.00  0.00    +0.000 C 
ATOM     36  O   UNL     1       8.927  -5.690  23.869  0.00  0.00    +0.000 OA
ATOM     37  C   UNL     1       6.607  -3.524  22.273  0.00  0.00    +0.000 C 
ATOM     38  C   UNL     1       5.336  -3.358  23.097  0.00  0.00    +0.000 C 
BRANCH  35  39
ATOM     39  C   UNL     1       8.550  -3.537  24.627  0.00  0.00    +0.000 C 
ATOM     40 CL   UNL     1       9.849  -2.581  23.814  0.00  0.00    +0.000 Cl
ENDBRANCH  35  39
ENDBRANCH  28  31
ENDBRANCH  27  28
ENDBRANCH   1  21
TORSDOF 8
ENDMDL
