MODEL 1
REMARK VINA RESULT:      -8.6      0.000      0.000
REMARK  Name = 
REMARK  6 active torsions:
REMARK  status: ('A' for Active; 'I' for Inactive)
REMARK    1  A    between atoms: C_4  and  C_5
REMARK    2  A    between atoms: C_5  and  C_8
REMARK    3  A    between atoms: C_8  and  N_11
REMARK    4  A    between atoms: C_13  and  C_15
REMARK    5  A    between atoms: C_24  and  N_25
REMARK    6  A    between atoms: N_36  and  C_37
REMARK                            x       y       z     vdW  Elec       q    Type
REMARK                         _______ _______ _______ _____ _____    ______ ____
ROOT
ATOM      1  C   UNL     1      10.467   1.842  22.998  0.00  0.00    +0.000 C 
ATOM      2  C   UNL     1       9.494   1.133  22.213  0.00  0.00    +0.000 C 
ATOM      3  C   UNL     1       8.383   1.322  21.307  0.00  0.00    +0.000 C 
ATOM      4  C   UNL     1       8.547  -0.017  20.804  0.00  0.00    +0.000 C 
ATOM      5  N   UNL     1       9.750  -0.708  21.264  0.00  0.00    +0.000 N 
ATOM      6  H   UNL     1      10.431  -0.301  20.725  0.00  0.00    +0.000 HD
ATOM      7  C   UNL     1       9.771  -0.341  22.482  0.00  0.00    +0.000 C 
ATOM      8  C   UNL     1      10.395  -0.563  23.625  0.00  0.00    +0.000 C 
ATOM      9  C   UNL     1      10.658   0.907  24.180  0.00  0.00    +0.000 C 
ATOM     10  F   UNL     1      11.950   0.931  24.582  0.00  0.00    +0.000 F 
ENDROOT
BRANCH   8  11
ATOM     11  N   UNL     1       9.426  -1.194  24.475  0.00  0.00    +0.000 N 
ATOM     12  H   UNL     1       9.788  -1.151  25.354  0.00  0.00    +0.000 HD
ATOM     13  C   UNL     1       9.298  -2.447  24.056  0.00  0.00    +0.000 C 
ATOM     14  O   UNL     1      10.218  -3.221  23.942  0.00  0.00    +0.000 OA
ATOM     15  N   UNL     1       8.024  -2.806  23.820  0.00  0.00    +0.000 N 
ATOM     16  C   UNL     1       7.783  -3.892  22.851  0.00  0.00    +0.000 C 
ATOM     17  C   UNL     1       7.780  -5.218  23.616  0.00  0.00    +0.000 C 
ATOM     18  N   UNL     1       7.768  -5.048  24.980  0.00  0.00    +0.000 NA
ATOM     19  C   UNL     1       8.935  -4.969  25.715  0.00  0.00    +0.000 C 
ATOM     20  C   UNL     1       6.782  -4.140  25.421  0.00  0.00    +0.000 C 
ATOM     21  C   UNL     1       7.050  -2.733  24.918  0.00  0.00    +0.000 C 
ENDBRANCH   8  11
BRANCH   3  22
ATOM     22  C   UNL     1       7.159   1.819  22.143  0.00  0.00    +0.000 C 
BRANCH  22  23
ATOM     23  C   UNL     1       6.117   2.363  21.243  0.00  0.00    +0.000 C 
BRANCH  23  24
ATOM     24  N   UNL     1       5.633   1.240  20.429  0.00  0.00    +0.000 N 
ATOM     25  H   UNL     1       6.163   0.441  20.411  0.00  0.00    +0.000 HD
ATOM     26  C   UNL     1       5.119   1.476  19.208  0.00  0.00    +0.000 C 
ATOM     27  O   UNL     1       3.974   1.907  19.110  0.00  0.00    +0.000 OA
ATOM     28  C   UNL     1       5.779   0.807  18.031  0.00  0.00    +0.000 C 
ENDBRANCH  23  24
ENDBRANCH  22  23
ENDBRANCH   3  22
TORSDOF 4
ENDMDL
MODEL 2
REMARK VINA RESULT:      -8.2      2.089      2.790
REMARK  Name = 
REMARK  6 active torsions:
REMARK  status: ('A' for Active; 'I' for Inactive)
REMARK    1  A    between atoms: C_4  and  C_5
REMARK    2  A    between atoms: C_5  and  C_8
REMARK    3  A    between atoms: C_8  and  N_11
REMARK    4  A    between atoms: C_13  and  C_15
REMARK    5  A    between atoms: C_24  and  N_25
REMARK    6  A    between atoms: N_36  and  C_37
REMARK                            x       y       z     vdW  Elec       q    Type
REMARK                         _______ _______ _______ _____ _____    ______ ____
ROOT
ATOM      1  C   UNL     1      10.462   1.885  22.927  0.00  0.00    +0.000 C 
ATOM      2  C   UNL     1       9.465   1.181  22.170  0.00  0.00    +0.000 C 
ATOM      3  C   UNL     1       8.336   1.375  21.287  0.00  0.00    +0.000 C 
ATOM      4  C   UNL     1       8.475   0.030  20.791  0.00  0.00    +0.000 C 
ATOM      5  N   UNL     1       9.681  -0.670  21.230  0.00  0.00    +0.000 N 
ATOM      6  H   UNL     1      10.354  -0.275  20.673  0.00  0.00    +0.000 HD
ATOM      7  C   UNL     1       9.732  -0.294  22.444  0.00  0.00    +0.000 C 
ATOM      8  C   UNL     1      10.380  -0.514  23.575  0.00  0.00    +0.000 C 
ATOM      9  C   UNL     1      10.670   0.958  24.112  0.00  0.00    +0.000 C 
ATOM     10  F   UNL     1      11.971   0.970  24.485  0.00  0.00    +0.000 F 
ENDROOT
BRANCH   8  11
ATOM     11  N   UNL     1       9.422  -1.128  24.451  0.00  0.00    +0.000 N 
ATOM     12  H   UNL     1       9.799  -1.071  25.323  0.00  0.00    +0.000 HD
ATOM     13  C   UNL     1       9.285  -2.388  24.056  0.00  0.00    +0.000 C 
ATOM     14  O   UNL     1      10.202  -3.166  23.941  0.00  0.00    +0.000 OA
ATOM     15  N   UNL     1       8.007  -2.748  23.847  0.00  0.00    +0.000 N 
ATOM     16  C   UNL     1       7.748  -3.849  22.900  0.00  0.00    +0.000 C 
ATOM     17  C   UNL     1       7.754  -5.161  23.688  0.00  0.00    +0.000 C 
ATOM     18  N   UNL     1       7.765  -4.969  25.049  0.00  0.00    +0.000 NA
ATOM     19  C   UNL     1       8.943  -4.879  25.764  0.00  0.00    +0.000 C 
ATOM     20  C   UNL     1       6.788  -4.050  25.490  0.00  0.00    +0.000 C 
ATOM     21  C   UNL     1       7.051  -2.653  24.959  0.00  0.00    +0.000 C 
ENDBRANCH   8  11
BRANCH   3  22
ATOM     22  C   UNL     1       7.136   1.892  22.146  0.00  0.00    +0.000 C 
BRANCH  22  23
ATOM     23  C   UNL     1       6.702   0.841  23.094  0.00  0.00    +0.000 C 
BRANCH  23  24
ATOM     24  N   UNL     1       6.392   1.518  24.361  0.00  0.00    +0.000 N 
ATOM     25  H   UNL     1       5.841   2.302  24.324  0.00  0.00    +0.000 HD
ATOM     26  C   UNL     1       7.358   1.680  25.283  0.00  0.00    +0.000 C 
ATOM     27  O   UNL     1       7.681   0.729  25.989  0.00  0.00    +0.000 OA
ATOM     28  C   UNL     1       7.688   3.086  25.711  0.00  0.00    +0.000 C 
ENDBRANCH  23  24
ENDBRANCH  22  23
ENDBRANCH   3  22
TORSDOF 4
ENDMDL
MODEL 3
REMARK VINA RESULT:      -8.1      2.101      2.596
REMARK  Name = 
REMARK  6 active torsions:
REMARK  status: ('A' for Active; 'I' for Inactive)
REMARK    1  A    between atoms: C_4  and  C_5
REMARK    2  A    between atoms: C_5  and  C_8
REMARK    3  A    between atoms: C_8  and  N_11
REMARK    4  A    between atoms: C_13  and  C_15
REMARK    5  A    between atoms: C_24  and  N_25
REMARK    6  A    between atoms: N_36  and  C_37
REMARK                            x       y       z     vdW  Elec       q    Type
REMARK                         _______ _______ _______ _____ _____    ______ ____
ROOT
ATOM      1  C   UNL     1       9.926   0.304  25.123  0.00  0.00    +0.000 C 
ATOM      2  C   UNL     1       9.835  -0.179  23.773  0.00  0.00    +0.000 C 
ATOM      3  C   UNL     1       9.973   0.224  22.391  0.00  0.00    +0.000 C 
ATOM      4  C   UNL     1      10.150  -1.148  21.993  0.00  0.00    +0.000 C 
ATOM      5  N   UNL     1      10.300  -2.097  23.095  0.00  0.00    +0.000 N 
ATOM      6  H   UNL     1      11.205  -1.942  23.369  0.00  0.00    +0.000 HD
ATOM      7  C   UNL     1       9.432  -1.643  23.906  0.00  0.00    +0.000 C 
ATOM      8  C   UNL     1       8.825  -1.923  25.046  0.00  0.00    +0.000 C 
ATOM      9  C   UNL     1       8.877  -0.537  25.829  0.00  0.00    +0.000 C 
ATOM     10  F   UNL     1       9.291  -0.832  27.084  0.00  0.00    +0.000 F 
ENDROOT
BRANCH   8  11
ATOM     11  N   UNL     1       7.457  -2.187  24.697  0.00  0.00    +0.000 N 
ATOM     12  H   UNL     1       6.953  -2.009  25.483  0.00  0.00    +0.000 HD
ATOM     13  C   UNL     1       7.384  -3.464  24.343  0.00  0.00    +0.000 C 
ATOM     14  O   UNL     1       7.750  -4.382  25.039  0.00  0.00    +0.000 OA
ATOM     15  N   UNL     1       6.805  -3.657  23.145  0.00  0.00    +0.000 N 
ATOM     16  C   UNL     1       7.162  -4.877  22.396  0.00  0.00    +0.000 C 
ATOM     17  C   UNL     1       6.182  -5.982  22.798  0.00  0.00    +0.000 C 
ATOM     18  N   UNL     1       5.124  -5.516  23.542  0.00  0.00    +0.000 NA
ATOM     19  C   UNL     1       5.169  -5.464  24.922  0.00  0.00    +0.000 C 
ATOM     20  C   UNL     1       4.499  -4.386  22.973  0.00  0.00    +0.000 C 
ATOM     21  C   UNL     1       5.428  -3.187  22.938  0.00  0.00    +0.000 C 
ENDBRANCH   8  11
BRANCH   3  22
ATOM     22  C   UNL     1       8.738   1.110  22.023  0.00  0.00    +0.000 C 
BRANCH  22  23
ATOM     23  C   UNL     1       7.727   0.299  21.309  0.00  0.00    +0.000 C 
BRANCH  23  24
ATOM     24  N   UNL     1       7.372   1.040  20.091  0.00  0.00    +0.000 N 
ATOM     25  H   UNL     1       6.842   1.834  20.192  0.00  0.00    +0.000 HD
ATOM     26  C   UNL     1       6.987   0.369  18.991  0.00  0.00    +0.000 C 
ATOM     27  O   UNL     1       7.836  -0.174  18.290  0.00  0.00    +0.000 OA
ATOM     28  C   UNL     1       5.621   0.669  18.431  0.00  0.00    +0.000 C 
ENDBRANCH  23  24
ENDBRANCH  22  23
ENDBRANCH   3  22
TORSDOF 4
ENDMDL
MODEL 4
REMARK VINA RESULT:      -7.7      2.354      3.209
REMARK  Name = 
REMARK  6 active torsions:
REMARK  status: ('A' for Active; 'I' for Inactive)
REMARK    1  A    between atoms: C_4  and  C_5
REMARK    2  A    between atoms: C_5  and  C_8
REMARK    3  A    between atoms: C_8  and  N_11
REMARK    4  A    between atoms: C_13  and  C_15
REMARK    5  A    between atoms: C_24  and  N_25
REMARK    6  A    between atoms: N_36  and  C_37
REMARK                            x       y       z     vdW  Elec       q    Type
REMARK                         _______ _______ _______ _____ _____    ______ ____
ROOT
ATOM      1  C   UNL     1       8.159   2.620  24.979  0.00  0.00    +0.000 C 
ATOM      2  C   UNL     1       9.310   1.910  24.493  0.00  0.00    +0.000 C 
ATOM      3  C   UNL     1      10.505   2.060  23.692  0.00  0.00    +0.000 C 
ATOM      4  C   UNL     1      11.092   0.909  24.326  0.00  0.00    +0.000 C 
ATOM      5  N   UNL     1      10.346   0.385  25.470  0.00  0.00    +0.000 N 
ATOM      6  H   UNL     1      10.567   1.016  26.157  0.00  0.00    +0.000 HD
ATOM      7  C   UNL     1       9.156   0.494  25.034  0.00  0.00    +0.000 C 
ATOM      8  C   UNL     1       7.908   0.170  25.323  0.00  0.00    +0.000 C 
ATOM      9  C   UNL     1       7.113   1.520  25.034  0.00  0.00    +0.000 C 
ATOM     10  F   UNL     1       6.299   1.711  26.099  0.00  0.00    +0.000 F 
ENDROOT
BRANCH   8  11
ATOM     11  N   UNL     1       7.523  -0.795  24.333  0.00  0.00    +0.000 N 
ATOM     12  H   UNL     1       6.602  -0.633  24.160  0.00  0.00    +0.000 HD
ATOM     13  C   UNL     1       7.720  -1.996  24.863  0.00  0.00    +0.000 C 
ATOM     14  O   UNL     1       7.242  -2.362  25.910  0.00  0.00    +0.000 OA
ATOM     15  N   UNL     1       8.464  -2.808  24.091  0.00  0.00    +0.000 N 
ATOM     16  C   UNL     1       9.219  -3.887  24.754  0.00  0.00    +0.000 C 
ATOM     17  C   UNL     1       8.324  -5.128  24.807  0.00  0.00    +0.000 C 
ATOM     18  N   UNL     1       7.185  -4.998  24.049  0.00  0.00    +0.000 NA
ATOM     19  C   UNL     1       6.011  -4.494  24.576  0.00  0.00    +0.000 C 
ATOM     20  C   UNL     1       7.437  -4.539  22.739  0.00  0.00    +0.000 C 
ATOM     21  C   UNL     1       7.994  -3.127  22.736  0.00  0.00    +0.000 C 
ENDBRANCH   8  11
BRANCH   3  22
ATOM     22  C   UNL     1      10.073   2.132  22.191  0.00  0.00    +0.000 C 
BRANCH  22  23
ATOM     23  C   UNL     1       9.617   0.801  21.731  0.00  0.00    +0.000 C 
BRANCH  23  24
ATOM     24  N   UNL     1       8.307   0.999  21.096  0.00  0.00    +0.000 N 
ATOM     25  H   UNL     1       7.613   1.400  21.623  0.00  0.00    +0.000 HD
ATOM     26  C   UNL     1       7.790   0.029  20.319  0.00  0.00    +0.000 C 
ATOM     27  O   UNL     1       8.209  -0.111  19.174  0.00  0.00    +0.000 OA
ATOM     28  C   UNL     1       6.453  -0.542  20.712  0.00  0.00    +0.000 C 
ENDBRANCH  23  24
ENDBRANCH  22  23
ENDBRANCH   3  22
TORSDOF 4
ENDMDL
MODEL 5
REMARK VINA RESULT:      -7.6      1.955      2.548
REMARK  Name = 
REMARK  6 active torsions:
REMARK  status: ('A' for Active; 'I' for Inactive)
REMARK    1  A    between atoms: C_4  and  C_5
REMARK    2  A    between atoms: C_5  and  C_8
REMARK    3  A    between atoms: C_8  and  N_11
REMARK    4  A    between atoms: C_13  and  C_15
REMARK    5  A    between atoms: C_24  and  N_25
REMARK    6  A    between atoms: N_36  and  C_37
REMARK                            x       y       z     vdW  Elec       q    Type
REMARK                         _______ _______ _______ _____ _____    ______ ____
ROOT
ATOM      1  C   UNL     1      10.417   1.774  22.862  0.00  0.00    +0.000 C 
ATOM      2  C   UNL     1       9.444   1.055  22.086  0.00  0.00    +0.000 C 
ATOM      3  C   UNL     1       8.347   1.232  21.161  0.00  0.00    +0.000 C 
ATOM      4  C   UNL     1       8.498  -0.123  20.701  0.00  0.00    +0.000 C 
ATOM      5  N   UNL     1       9.686  -0.817  21.196  0.00  0.00    +0.000 N 
ATOM      6  H   UNL     1      10.379  -0.436  20.654  0.00  0.00    +0.000 HD
ATOM      7  C   UNL     1       9.697  -0.414  22.403  0.00  0.00    +0.000 C 
ATOM      8  C   UNL     1      10.304  -0.609  23.560  0.00  0.00    +0.000 C 
ATOM      9  C   UNL     1      10.581   0.873  24.074  0.00  0.00    +0.000 C 
ATOM     10  F   UNL     1      11.868   0.891  24.491  0.00  0.00    +0.000 F 
ENDROOT
BRANCH   8  11
ATOM     11  N   UNL     1       9.315  -1.201  24.416  0.00  0.00    +0.000 N 
ATOM     12  H   UNL     1       9.659  -1.120  25.300  0.00  0.00    +0.000 HD
ATOM     13  C   UNL     1       9.194  -2.471  24.051  0.00  0.00    +0.000 C 
ATOM     14  O   UNL     1      10.114  -3.251  23.991  0.00  0.00    +0.000 OA
ATOM     15  N   UNL     1       7.924  -2.839  23.804  0.00  0.00    +0.000 N 
ATOM     16  C   UNL     1       7.701  -3.966  22.879  0.00  0.00    +0.000 C 
ATOM     17  C   UNL     1       7.679  -5.256  23.702  0.00  0.00    +0.000 C 
ATOM     18  N   UNL     1       7.638  -5.027  25.056  0.00  0.00    +0.000 NA
ATOM     19  C   UNL     1       8.790  -4.916  25.812  0.00  0.00    +0.000 C 
ATOM     20  C   UNL     1       6.646  -4.098  25.435  0.00  0.00    +0.000 C 
ATOM     21  C   UNL     1       6.927  -2.715  24.877  0.00  0.00    +0.000 C 
ENDBRANCH   8  11
BRANCH   3  22
ATOM     22  C   UNL     1       7.120   1.772  21.966  0.00  0.00    +0.000 C 
BRANCH  22  23
ATOM     23  C   UNL     1       7.144   3.251  21.995  0.00  0.00    +0.000 C 
BRANCH  23  24
ATOM     24  N   UNL     1       7.220   3.646  23.409  0.00  0.00    +0.000 N 
ATOM     25  H   UNL     1       7.104   2.960  24.070  0.00  0.00    +0.000 HD
ATOM     26  C   UNL     1       6.622   4.780  23.817  0.00  0.00    +0.000 C 
ATOM     27  O   UNL     1       7.162   5.859  23.593  0.00  0.00    +0.000 OA
ATOM     28  C   UNL     1       5.568   4.668  24.888  0.00  0.00    +0.000 C 
ENDBRANCH  23  24
ENDBRANCH  22  23
ENDBRANCH   3  22
TORSDOF 4
ENDMDL
MODEL 6
REMARK VINA RESULT:      -7.5      2.649      3.526
REMARK  Name = 
REMARK  6 active torsions:
REMARK  status: ('A' for Active; 'I' for Inactive)
REMARK    1  A    between atoms: C_4  and  C_5
REMARK    2  A    between atoms: C_5  and  C_8
REMARK    3  A    between atoms: C_8  and  N_11
REMARK    4  A    between atoms: C_13  and  C_15
REMARK    5  A    between atoms: C_24  and  N_25
REMARK    6  A    between atoms: N_36  and  C_37
REMARK                            x       y       z     vdW  Elec       q    Type
REMARK                         _______ _______ _______ _____ _____    ______ ____
ROOT
ATOM      1  C   UNL     1       9.795   0.257  21.837  0.00  0.00    +0.000 C 
ATOM      2  C   UNL     1       8.449   0.615  21.483  0.00  0.00    +0.000 C 
ATOM      3  C   UNL     1       7.582   1.746  21.235  0.00  0.00    +0.000 C 
ATOM      4  C   UNL     1       6.673   0.907  20.499  0.00  0.00    +0.000 C 
ATOM      5  N   UNL     1       7.158  -0.446  20.232  0.00  0.00    +0.000 N 
ATOM      6  H   UNL     1       7.779  -0.297  19.516  0.00  0.00    +0.000 HD
ATOM      7  C   UNL     1       7.713  -0.712  21.345  0.00  0.00    +0.000 C 
ATOM      8  C   UNL     1       8.274  -1.701  22.018  0.00  0.00    +0.000 C 
ATOM      9  C   UNL     1       9.582  -1.024  22.625  0.00  0.00    +0.000 C 
ATOM     10  F   UNL     1      10.597  -1.887  22.384  0.00  0.00    +0.000 F 
ENDROOT
BRANCH   8  11
ATOM     11  N   UNL     1       7.376  -1.987  23.101  0.00  0.00    +0.000 N 
ATOM     12  H   UNL     1       7.838  -1.729  23.892  0.00  0.00    +0.000 HD
ATOM     13  C   UNL     1       7.137  -3.292  23.075  0.00  0.00    +0.000 C 
ATOM     14  O   UNL     1       7.996  -4.140  23.102  0.00  0.00    +0.000 OA
ATOM     15  N   UNL     1       5.827  -3.596  23.073  0.00  0.00    +0.000 N 
ATOM     16  C   UNL     1       5.421  -4.887  22.485  0.00  0.00    +0.000 C 
ATOM     17  C   UNL     1       5.436  -5.939  23.596  0.00  0.00    +0.000 C 
ATOM     18  N   UNL     1       5.589  -5.394  24.848  0.00  0.00    +0.000 NA
ATOM     19  C   UNL     1       6.834  -5.208  25.416  0.00  0.00    +0.000 C 
ATOM     20  C   UNL     1       4.708  -4.320  25.099  0.00  0.00    +0.000 C 
ATOM     21  C   UNL     1       4.990  -3.138  24.190  0.00  0.00    +0.000 C 
ENDBRANCH   8  11
BRANCH   3  22
ATOM     22  C   UNL     1       7.264   2.419  22.611  0.00  0.00    +0.000 C 
BRANCH  22  23
ATOM     23  C   UNL     1       7.214   3.890  22.456  0.00  0.00    +0.000 C 
BRANCH  23  24
ATOM     24  N   UNL     1       8.588   4.380  22.630  0.00  0.00    +0.000 N 
ATOM     25  H   UNL     1       9.166   4.370  21.864  0.00  0.00    +0.000 HD
ATOM     26  C   UNL     1       9.282   4.039  23.731  0.00  0.00    +0.000 C 
ATOM     27  O   UNL     1       9.052   4.616  24.790  0.00  0.00    +0.000 OA
ATOM     28  C   UNL     1      10.582   3.302  23.538  0.00  0.00    +0.000 C 
ENDBRANCH  23  24
ENDBRANCH  22  23
ENDBRANCH   3  22
TORSDOF 4
ENDMDL
MODEL 7
REMARK VINA RESULT:      -7.5      2.454      3.178
REMARK  Name = 
REMARK  6 active torsions:
REMARK  status: ('A' for Active; 'I' for Inactive)
REMARK    1  A    between atoms: C_4  and  C_5
REMARK    2  A    between atoms: C_5  and  C_8
REMARK    3  A    between atoms: C_8  and  N_11
REMARK    4  A    between atoms: C_13  and  C_15
REMARK    5  A    between atoms: C_24  and  N_25
REMARK    6  A    between atoms: N_36  and  C_37
REMARK                            x       y       z     vdW  Elec       q    Type
REMARK                         _______ _______ _______ _____ _____    ______ ____
ROOT
ATOM      1  C   UNL     1       9.970   0.253  25.219  0.00  0.00    +0.000 C 
ATOM      2  C   UNL     1       9.849  -0.226  23.870  0.00  0.00    +0.000 C 
ATOM      3  C   UNL     1       9.962   0.179  22.486  0.00  0.00    +0.000 C 
ATOM      4  C   UNL     1      10.121  -1.193  22.082  0.00  0.00    +0.000 C 
ATOM      5  N   UNL     1      10.286  -2.146  23.178  0.00  0.00    +0.000 N 
ATOM      6  H   UNL     1      11.198  -1.998  23.435  0.00  0.00    +0.000 HD
ATOM      7  C   UNL     1       9.437  -1.687  24.007  0.00  0.00    +0.000 C 
ATOM      8  C   UNL     1       8.851  -1.966  25.158  0.00  0.00    +0.000 C 
ATOM      9  C   UNL     1       8.929  -0.582  25.944  0.00  0.00    +0.000 C 
ATOM     10  F   UNL     1       9.366  -0.883  27.189  0.00  0.00    +0.000 F 
ENDROOT
BRANCH   8  11
ATOM     11  N   UNL     1       7.475  -2.218  24.836  0.00  0.00    +0.000 N 
ATOM     12  H   UNL     1       6.992  -2.082  25.644  0.00  0.00    +0.000 HD
ATOM     13  C   UNL     1       7.396  -3.477  24.423  0.00  0.00    +0.000 C 
ATOM     14  O   UNL     1       7.784  -4.426  25.062  0.00  0.00    +0.000 OA
ATOM     15  N   UNL     1       6.784  -3.615  23.234  0.00  0.00    +0.000 N 
ATOM     16  C   UNL     1       7.123  -4.795  22.417  0.00  0.00    +0.000 C 
ATOM     17  C   UNL     1       6.159  -5.924  22.793  0.00  0.00    +0.000 C 
ATOM     18  N   UNL     1       5.121  -5.499  23.588  0.00  0.00    +0.000 NA
ATOM     19  C   UNL     1       5.205  -5.514  24.966  0.00  0.00    +0.000 C 
ATOM     20  C   UNL     1       4.476  -4.346  23.093  0.00  0.00    +0.000 C 
ATOM     21  C   UNL     1       5.400  -3.142  23.090  0.00  0.00    +0.000 C 
ENDBRANCH   8  11
BRANCH   3  22
ATOM     22  C   UNL     1       8.727   1.075  22.144  0.00  0.00    +0.000 C 
BRANCH  22  23
ATOM     23  C   UNL     1       7.519   0.234  21.989  0.00  0.00    +0.000 C 
BRANCH  23  24
ATOM     24  N   UNL     1       6.401   0.987  22.575  0.00  0.00    +0.000 N 
ATOM     25  H   UNL     1       6.179   1.833  22.181  0.00  0.00    +0.000 HD
ATOM     26  C   UNL     1       6.274   1.057  23.913  0.00  0.00    +0.000 C 
ATOM     27  O   UNL     1       5.813   0.097  24.524  0.00  0.00    +0.000 OA
ATOM     28  C   UNL     1       6.283   2.424  24.545  0.00  0.00    +0.000 C 
ENDBRANCH  23  24
ENDBRANCH  22  23
ENDBRANCH   3  22
TORSDOF 4
ENDMDL
MODEL 8
REMARK VINA RESULT:      -7.3      3.012      7.079
REMARK  Name = 
REMARK  6 active torsions:
REMARK  status: ('A' for Active; 'I' for Inactive)
REMARK    1  A    between atoms: C_4  and  C_5
REMARK    2  A    between atoms: C_5  and  C_8
REMARK    3  A    between atoms: C_8  and  N_11
REMARK    4  A    between atoms: C_13  and  C_15
REMARK    5  A    between atoms: C_24  and  N_25
REMARK    6  A    between atoms: N_36  and  C_37
REMARK                            x       y       z     vdW  Elec       q    Type
REMARK                         _______ _______ _______ _____ _____    ______ ____
ROOT
ATOM      1  C   UNL     1       7.078  -3.677  22.358  0.00  0.00    +0.000 C 
ATOM      2  C   UNL     1       8.169  -3.117  23.107  0.00  0.00    +0.000 C 
ATOM      3  C   UNL     1       9.113  -3.408  24.163  0.00  0.00    +0.000 C 
ATOM      4  C   UNL     1       9.982  -2.360  23.696  0.00  0.00    +0.000 C 
ATOM      5  N   UNL     1       9.602  -1.767  22.415  0.00  0.00    +0.000 N 
ATOM      6  H   UNL     1       9.889  -2.437  21.792  0.00  0.00    +0.000 HD
ATOM      7  C   UNL     1       8.339  -1.706  22.558  0.00  0.00    +0.000 C 
ATOM      8  C   UNL     1       7.249  -1.224  21.988  0.00  0.00    +0.000 C 
ATOM      9  C   UNL     1       6.232  -2.448  22.070  0.00  0.00    +0.000 C 
ATOM     10  F   UNL     1       5.672  -2.552  20.842  0.00  0.00    +0.000 F 
ENDROOT
BRANCH   8  11
ATOM     11  N   UNL     1       6.778  -0.194  22.871  0.00  0.00    +0.000 N 
ATOM     12  H   UNL     1       5.886  -0.009  22.597  0.00  0.00    +0.000 HD
ATOM     13  C   UNL     1       7.572   0.856  22.701  0.00  0.00    +0.000 C 
ATOM     14  O   UNL     1       7.784   1.381  21.634  0.00  0.00    +0.000 OA
ATOM     15  N   UNL     1       8.085   1.331  23.849  0.00  0.00    +0.000 N 
ATOM     16  C   UNL     1       9.363   2.066  23.781  0.00  0.00    +0.000 C 
ATOM     17  C   UNL     1       9.046   3.548  23.569  0.00  0.00    +0.000 C 
ATOM     18  N   UNL     1       7.711   3.838  23.726  0.00  0.00    +0.000 NA
ATOM     19  C   UNL     1       6.828   3.804  22.664  0.00  0.00    +0.000 C 
ATOM     20  C   UNL     1       7.161   3.306  24.911  0.00  0.00    +0.000 C 
ATOM     21  C   UNL     1       7.167   1.788  24.902  0.00  0.00    +0.000 C 
ENDBRANCH   8  11
BRANCH   3  22
ATOM     22  C   UNL     1       8.338  -3.388  25.521  0.00  0.00    +0.000 C 
BRANCH  22  23
ATOM     23  C   UNL     1       8.990  -4.296  26.491  0.00  0.00    +0.000 C 
BRANCH  23  24
ATOM     24  N   UNL     1       8.193  -5.530  26.518  0.00  0.00    +0.000 N 
ATOM     25  H   UNL     1       8.203  -6.084  25.734  0.00  0.00    +0.000 HD
ATOM     26  C   UNL     1       6.958  -5.513  27.052  0.00  0.00    +0.000 C 
ATOM     27  O   UNL     1       6.831  -5.526  28.272  0.00  0.00    +0.000 OA
ATOM     28  C   UNL     1       5.808  -5.916  26.165  0.00  0.00    +0.000 C 
ENDBRANCH  23  24
ENDBRANCH  22  23
ENDBRANCH   3  22
TORSDOF 4
ENDMDL
MODEL 9
REMARK VINA RESULT:      -7.3      3.167      6.370
REMARK  Name = 
REMARK  6 active torsions:
REMARK  status: ('A' for Active; 'I' for Inactive)
REMARK    1  A    between atoms: C_4  and  C_5
REMARK    2  A    between atoms: C_5  and  C_8
REMARK    3  A    between atoms: C_8  and  N_11
REMARK    4  A    between atoms: C_13  and  C_15
REMARK    5  A    between atoms: C_24  and  N_25
REMARK    6  A    between atoms: N_36  and  C_37
REMARK                            x       y       z     vdW  Elec       q    Type
REMARK                         _______ _______ _______ _____ _____    ______ ____
ROOT
ATOM      1  C   UNL     1       7.045  -5.277  23.646  0.00  0.00    +0.000 C 
ATOM      2  C   UNL     1       7.735  -4.926  24.856  0.00  0.00    +0.000 C 
ATOM      3  C   UNL     1       7.843  -5.255  26.260  0.00  0.00    +0.000 C 
ATOM      4  C   UNL     1       9.144  -4.642  26.319  0.00  0.00    +0.000 C 
ATOM      5  N   UNL     1       9.702  -4.249  25.026  0.00  0.00    +0.000 N 
ATOM      6  H   UNL     1       9.990  -5.091  24.669  0.00  0.00    +0.000 HD
ATOM      7  C   UNL     1       8.661  -3.782  24.462  0.00  0.00    +0.000 C 
ATOM      8  C   UNL     1       8.266  -3.128  23.384  0.00  0.00    +0.000 C 
ATOM      9  C   UNL     1       6.977  -3.942  22.925  0.00  0.00    +0.000 C 
ATOM     10  F   UNL     1       7.109  -4.132  21.591  0.00  0.00    +0.000 F 
ENDROOT
BRANCH   8  11
ATOM     11  N   UNL     1       7.837  -1.840  23.853  0.00  0.00    +0.000 N 
ATOM     12  H   UNL     1       7.058  -1.630  23.350  0.00  0.00    +0.000 HD
ATOM     13  C   UNL     1       8.824  -0.988  23.609  0.00  0.00    +0.000 C 
ATOM     14  O   UNL     1       9.317  -0.815  22.520  0.00  0.00    +0.000 OA
ATOM     15  N   UNL     1       9.198  -0.276  24.687  0.00  0.00    +0.000 N 
ATOM     16  C   UNL     1      10.578   0.244  24.724  0.00  0.00    +0.000 C 
ATOM     17  C   UNL     1      10.577   1.635  24.084  0.00  0.00    +0.000 C 
ATOM     18  N   UNL     1       9.311   2.120  23.861  0.00  0.00    +0.000 NA
ATOM     19  C   UNL     1       8.644   1.899  22.672  0.00  0.00    +0.000 C 
ATOM     20  C   UNL     1       8.467   2.017  24.988  0.00  0.00    +0.000 C 
ATOM     21  C   UNL     1       8.202   0.569  25.360  0.00  0.00    +0.000 C 
ENDBRANCH   8  11
BRANCH   3  22
ATOM     22  C   UNL     1       6.566  -4.714  26.981  0.00  0.00    +0.000 C 
BRANCH  22  23
ATOM     23  C   UNL     1       6.565  -3.234  26.968  0.00  0.00    +0.000 C 
BRANCH  23  24
ATOM     24  N   UNL     1       5.176  -2.813  26.739  0.00  0.00    +0.000 N 
ATOM     25  H   UNL     1       4.490  -3.239  27.256  0.00  0.00    +0.000 HD
ATOM     26  C   UNL     1       4.742  -2.609  25.482  0.00  0.00    +0.000 C 
ATOM     27  O   UNL     1       5.044  -1.570  24.902  0.00  0.00    +0.000 OA
ATOM     28  C   UNL     1       3.571  -3.429  25.005  0.00  0.00    +0.000 C 
ENDBRANCH  23  24
ENDBRANCH  22  23
ENDBRANCH   3  22
TORSDOF 4
ENDMDL
