MODEL 1
REMARK VINA RESULT:      -8.7      0.000      0.000
REMARK  Name = 
REMARK  4 active torsions:
REMARK  status: ('A' for Active; 'I' for Inactive)
REMARK    1  A    between atoms: C_9  and  C_10
REMARK    2  A    between atoms: C_20  and  S_22
REMARK    3  A    between atoms: S_22  and  C_25
REMARK    4  A    between atoms: C_25  and  C_28
REMARK                            x       y       z     vdW  Elec       q    Type
REMARK                         _______ _______ _______ _____ _____    ______ ____
ROOT
ATOM      1  C   UNL     1       7.083  -5.112  25.271  0.00  0.00    +0.000 C 
ATOM      2  O   UNL     1       6.427  -5.960  25.816  0.00  0.00    +0.000 OA
ATOM      3  N   UNL     1       7.875  -4.265  25.988  0.00  0.00    +0.000 N 
ATOM      4  C   UNL     1       7.474  -2.893  26.219  0.00  0.00    +0.000 C 
ATOM      5  C   UNL     1       8.482  -1.950  25.552  0.00  0.00    +0.000 C 
ATOM      6  N   UNL     1       9.017  -2.572  24.343  0.00  0.00    +0.000 N 
ATOM      7  C   UNL     1       9.398  -1.906  23.276  0.00  0.00    +0.000 C 
ATOM      8  O   UNL     1      10.526  -2.026  22.764  0.00  0.00    +0.000 OA
ATOM      9  C   UNL     1       9.816  -3.804  24.636  0.00  0.00    +0.000 C 
ATOM     10  C   UNL     1       9.320  -4.508  25.858  0.00  0.00    +0.000 C 
ENDROOT
BRANCH   1  16
ATOM     11  C   UNL     1       6.744  -6.184  21.978  0.00  0.00    +0.000 A 
ATOM     12  C   UNL     1       5.261  -6.173  22.148  0.00  0.00    +0.000 A 
ATOM     13  C   UNL     1       4.385  -5.556  23.183  0.00  0.00    +0.000 A 
ATOM     14 CL   UNL     1       4.086  -6.831  24.335  0.00  0.00    +0.000 Cl
ATOM     15  C   UNL     1       5.328  -4.672  23.961  0.00  0.00    +0.000 A 
ATOM     16  C   UNL     1       6.710  -4.481  24.057  0.00  0.00    +0.000 A 
ATOM     17  C   UNL     1       7.372  -5.174  22.875  0.00  0.00    +0.000 A 
ENDBRANCH   1  16
BRANCH   7  18
ATOM     18  S   UNL     1       8.490  -0.780  22.398  0.00  0.00    +0.000 S 
ATOM     19  O   UNL     1       7.065  -1.271  22.505  0.00  0.00    +0.000 OA
ATOM     20  O   UNL     1       8.853  -0.697  21.002  0.00  0.00    +0.000 OA
BRANCH  18  21
ATOM     21  C   UNL     1       8.443   0.903  23.003  0.00  0.00    +0.000 C 
BRANCH  21  22
ATOM     22  C   UNL     1       8.993   1.845  21.947  0.00  0.00    +0.000 C 
ATOM     23  N   UNL     1      10.468   2.166  22.403  0.00  0.00    +0.000 NA
ATOM     24  C   UNL     1      10.372   2.930  23.490  0.00  0.00    +0.000 A 
ATOM     25  C   UNL     1      11.538   3.884  23.321  0.00  0.00    +0.000 A 
ATOM     26  C   UNL     1      11.494   5.328  23.591  0.00  0.00    +0.000 A 
ATOM     27  C   UNL     1      10.102   5.687  23.967  0.00  0.00    +0.000 A 
ATOM     28  C   UNL     1       8.837   5.038  23.942  0.00  0.00    +0.000 A 
ATOM     29  C   UNL     1       9.024   3.627  23.495  0.00  0.00    +0.000 A 
ATOM     30  N   UNL     1       8.365   3.226  22.288  0.00  0.00    +0.000 N 
ATOM     31  H   UNL     1       8.722   3.860  21.621  0.00  0.00    +0.000 HD
ENDBRANCH  21  22
ENDBRANCH  18  21
ENDBRANCH   7  18
TORSDOF 4
ENDMDL
MODEL 2
REMARK VINA RESULT:      -8.1      2.778      3.611
REMARK  Name = 
REMARK  4 active torsions:
REMARK  status: ('A' for Active; 'I' for Inactive)
REMARK    1  A    between atoms: C_9  and  C_10
REMARK    2  A    between atoms: C_20  and  S_22
REMARK    3  A    between atoms: S_22  and  C_25
REMARK    4  A    between atoms: C_25  and  C_28
REMARK                            x       y       z     vdW  Elec       q    Type
REMARK                         _______ _______ _______ _____ _____    ______ ____
ROOT
ATOM      1  C   UNL     1       7.152  -5.289  27.074  0.00  0.00    +0.000 C 
ATOM      2  O   UNL     1       7.114  -5.491  28.258  0.00  0.00    +0.000 OA
ATOM      3  N   UNL     1       8.210  -4.645  26.503  0.00  0.00    +0.000 N 
ATOM      4  C   UNL     1       8.096  -3.264  26.082  0.00  0.00    +0.000 C 
ATOM      5  C   UNL     1       8.283  -3.179  24.562  0.00  0.00    +0.000 C 
ATOM      6  N   UNL     1       7.763  -4.390  23.932  0.00  0.00    +0.000 N 
ATOM      7  C   UNL     1       7.231  -4.428  22.730  0.00  0.00    +0.000 C 
ATOM      8  O   UNL     1       7.622  -5.202  21.836  0.00  0.00    +0.000 OA
ATOM      9  C   UNL     1       8.529  -5.616  24.320  0.00  0.00    +0.000 C 
ATOM     10  C   UNL     1       9.096  -5.500  25.699  0.00  0.00    +0.000 C 
ENDROOT
BRANCH   1  16
ATOM     11  C   UNL     1       4.058  -6.861  26.838  0.00  0.00    +0.000 A 
ATOM     12  C   UNL     1       3.439  -5.707  27.555  0.00  0.00    +0.000 A 
ATOM     13  C   UNL     1       3.938  -4.333  27.840  0.00  0.00    +0.000 A 
ATOM     14 CL   UNL     1       4.614  -4.425  29.444  0.00  0.00    +0.000 Cl
ATOM     15  C   UNL     1       5.187  -4.230  27.000  0.00  0.00    +0.000 A 
ATOM     16  C   UNL     1       6.003  -5.097  26.266  0.00  0.00    +0.000 A 
ATOM     17  C   UNL     1       5.260  -6.412  26.082  0.00  0.00    +0.000 A 
ENDBRANCH   1  16
BRANCH   7  18
ATOM     18  S   UNL     1       5.962  -3.475  22.145  0.00  0.00    +0.000 S 
ATOM     19  O   UNL     1       4.782  -3.833  23.017  0.00  0.00    +0.000 OA
ATOM     20  O   UNL     1       5.621  -3.736  20.766  0.00  0.00    +0.000 OA
BRANCH  18  21
ATOM     21  C   UNL     1       6.120  -1.698  22.291  0.00  0.00    +0.000 C 
BRANCH  21  22
ATOM     22  C   UNL     1       6.852  -1.145  21.083  0.00  0.00    +0.000 C 
ATOM     23  N   UNL     1       8.376  -1.129  21.491  0.00  0.00    +0.000 NA
ATOM     24  C   UNL     1       8.513  -0.173  22.409  0.00  0.00    +0.000 A 
ATOM     25  C   UNL     1       9.875   0.403  22.077  0.00  0.00    +0.000 A 
ATOM     26  C   UNL     1      10.205   1.835  22.064  0.00  0.00    +0.000 A 
ATOM     27  C   UNL     1       8.963   2.601  22.343  0.00  0.00    +0.000 A 
ATOM     28  C   UNL     1       7.575   2.301  22.424  0.00  0.00    +0.000 A 
ATOM     29  C   UNL     1       7.385   0.831  22.259  0.00  0.00    +0.000 A 
ATOM     30  N   UNL     1       6.605   0.389  21.142  0.00  0.00    +0.000 N 
ATOM     31  H   UNL     1       7.086   0.773  20.372  0.00  0.00    +0.000 HD
ENDBRANCH  21  22
ENDBRANCH  18  21
ENDBRANCH   7  18
TORSDOF 4
ENDMDL
MODEL 3
REMARK VINA RESULT:      -8.0      1.971      3.536
REMARK  Name = 
REMARK  4 active torsions:
REMARK  status: ('A' for Active; 'I' for Inactive)
REMARK    1  A    between atoms: C_9  and  C_10
REMARK    2  A    between atoms: C_20  and  S_22
REMARK    3  A    between atoms: S_22  and  C_25
REMARK    4  A    between atoms: C_25  and  C_28
REMARK                            x       y       z     vdW  Elec       q    Type
REMARK                         _______ _______ _______ _____ _____    ______ ____
ROOT
ATOM      1  C   UNL     1       5.352  -5.524  24.528  0.00  0.00    +0.000 C 
ATOM      2  O   UNL     1       4.731  -6.404  25.062  0.00  0.00    +0.000 OA
ATOM      3  N   UNL     1       5.679  -5.595  23.206  0.00  0.00    +0.000 N 
ATOM      4  C   UNL     1       7.028  -5.920  22.792  0.00  0.00    +0.000 C 
ATOM      5  C   UNL     1       7.625  -4.732  22.029  0.00  0.00    +0.000 C 
ATOM      6  N   UNL     1       7.092  -3.482  22.564  0.00  0.00    +0.000 N 
ATOM      7  C   UNL     1       7.754  -2.347  22.591  0.00  0.00    +0.000 C 
ATOM      8  O   UNL     1       7.314  -1.289  22.104  0.00  0.00    +0.000 OA
ATOM      9  C   UNL     1       5.617  -3.345  22.345  0.00  0.00    +0.000 C 
ATOM     10  C   UNL     1       4.934  -4.675  22.333  0.00  0.00    +0.000 C 
ENDROOT
BRANCH   1  16
ATOM     11  C   UNL     1       5.183  -3.280  27.181  0.00  0.00    +0.000 A 
ATOM     12  C   UNL     1       5.821  -4.303  28.061  0.00  0.00    +0.000 A 
ATOM     13  C   UNL     1       6.557  -5.560  27.750  0.00  0.00    +0.000 A 
ATOM     14 CL   UNL     1       5.357  -6.821  27.864  0.00  0.00    +0.000 Cl
ATOM     15  C   UNL     1       6.765  -5.487  26.258  0.00  0.00    +0.000 A 
ATOM     16  C   UNL     1       6.298  -4.706  25.195  0.00  0.00    +0.000 A 
ATOM     17  C   UNL     1       5.619  -3.472  25.770  0.00  0.00    +0.000 A 
ENDBRANCH   1  16
BRANCH   7  18
ATOM     18  S   UNL     1       9.287  -2.076  23.253  0.00  0.00    +0.000 S 
ATOM     19  O   UNL     1      10.193  -1.896  22.057  0.00  0.00    +0.000 OA
ATOM     20  O   UNL     1       9.781  -3.172  24.053  0.00  0.00    +0.000 OA
BRANCH  18  21
ATOM     21  C   UNL     1       9.521  -0.597  24.233  0.00  0.00    +0.000 C 
BRANCH  21  22
ATOM     22  C   UNL     1      10.328   0.420  23.446  0.00  0.00    +0.000 C 
ATOM     23  N   UNL     1      10.340   1.721  24.338  0.00  0.00    +0.000 NA
ATOM     24  C   UNL     1       9.102   2.211  24.313  0.00  0.00    +0.000 A 
ATOM     25  C   UNL     1       9.344   3.707  24.313  0.00  0.00    +0.000 A 
ATOM     26  C   UNL     1       8.614   4.680  23.489  0.00  0.00    +0.000 A 
ATOM     27  C   UNL     1       7.677   3.934  22.610  0.00  0.00    +0.000 A 
ATOM     28  C   UNL     1       7.469   2.571  22.262  0.00  0.00    +0.000 A 
ATOM     29  C   UNL     1       8.394   1.718  23.065  0.00  0.00    +0.000 A 
ATOM     30  N   UNL     1       9.351   0.930  22.349  0.00  0.00    +0.000 N 
ATOM     31  H   UNL     1       9.851   1.606  21.832  0.00  0.00    +0.000 HD
ENDBRANCH  21  22
ENDBRANCH  18  21
ENDBRANCH   7  18
TORSDOF 4
ENDMDL
MODEL 4
REMARK VINA RESULT:      -7.9      3.347      7.321
REMARK  Name = 
REMARK  4 active torsions:
REMARK  status: ('A' for Active; 'I' for Inactive)
REMARK    1  A    between atoms: C_9  and  C_10
REMARK    2  A    between atoms: C_20  and  S_22
REMARK    3  A    between atoms: S_22  and  C_25
REMARK    4  A    between atoms: C_25  and  C_28
REMARK                            x       y       z     vdW  Elec       q    Type
REMARK                         _______ _______ _______ _____ _____    ______ ____
ROOT
ATOM      1  C   UNL     1       9.242   0.123  22.310  0.00  0.00    +0.000 C 
ATOM      2  O   UNL     1       9.734   0.198  21.216  0.00  0.00    +0.000 OA
ATOM      3  N   UNL     1       9.868  -0.547  23.320  0.00  0.00    +0.000 N 
ATOM      4  C   UNL     1       9.414  -1.858  23.732  0.00  0.00    +0.000 C 
ATOM      5  C   UNL     1       8.928  -1.794  25.185  0.00  0.00    +0.000 C 
ATOM      6  N   UNL     1       8.347  -0.481  25.454  0.00  0.00    +0.000 N 
ATOM      7  C   UNL     1       7.367  -0.266  26.304  0.00  0.00    +0.000 C 
ATOM      8  O   UNL     1       7.437   0.562  27.231  0.00  0.00    +0.000 OA
ATOM      9  C   UNL     1       9.354   0.623  25.363  0.00  0.00    +0.000 C 
ATOM     10  C   UNL     1      10.432   0.309  24.375  0.00  0.00    +0.000 C 
ENDROOT
BRANCH   1  16
ATOM     11  C   UNL     1       6.642   2.305  21.547  0.00  0.00    +0.000 A 
ATOM     12  C   UNL     1       6.203   1.373  20.466  0.00  0.00    +0.000 A 
ATOM     13  C   UNL     1       6.543  -0.050  20.185  0.00  0.00    +0.000 A 
ATOM     14 CL   UNL     1       7.838   0.021  19.019  0.00  0.00    +0.000 Cl
ATOM     15  C   UNL     1       7.284  -0.487  21.423  0.00  0.00    +0.000 A 
ATOM     16  C   UNL     1       7.845   0.122  22.551  0.00  0.00    +0.000 A 
ATOM     17  C   UNL     1       7.321   1.548  22.634  0.00  0.00    +0.000 A 
ENDBRANCH   1  16
BRANCH   7  18
ATOM     18  S   UNL     1       5.861  -1.035  26.339  0.00  0.00    +0.000 S 
ATOM     19  O   UNL     1       5.075  -0.386  25.223  0.00  0.00    +0.000 OA
ATOM     20  O   UNL     1       5.143  -0.861  27.580  0.00  0.00    +0.000 OA
BRANCH  18  21
ATOM     21  C   UNL     1       5.811  -2.787  25.975  0.00  0.00    +0.000 C 
BRANCH  21  22
ATOM     22  C   UNL     1       4.779  -3.060  24.897  0.00  0.00    +0.000 C 
ATOM     23  N   UNL     1       4.692  -4.632  24.793  0.00  0.00    +0.000 NA
ATOM     24  C   UNL     1       5.837  -5.040  24.246  0.00  0.00    +0.000 A 
ATOM     25  C   UNL     1       5.387  -6.197  23.377  0.00  0.00    +0.000 A 
ATOM     26  C   UNL     1       5.865  -6.465  22.013  0.00  0.00    +0.000 A 
ATOM     27  C   UNL     1       6.782  -5.365  21.619  0.00  0.00    +0.000 A 
ATOM     28  C   UNL     1       7.136  -4.092  22.145  0.00  0.00    +0.000 A 
ATOM     29  C   UNL     1       6.448  -3.899  23.454  0.00  0.00    +0.000 A 
ATOM     30  N   UNL     1       5.530  -2.804  23.560  0.00  0.00    +0.000 N 
ATOM     31  H   UNL     1       4.880  -2.991  22.842  0.00  0.00    +0.000 HD
ENDBRANCH  21  22
ENDBRANCH  18  21
ENDBRANCH   7  18
TORSDOF 4
ENDMDL
MODEL 5
REMARK VINA RESULT:      -7.9      2.786      3.730
REMARK  Name = 
REMARK  4 active torsions:
REMARK  status: ('A' for Active; 'I' for Inactive)
REMARK    1  A    between atoms: C_9  and  C_10
REMARK    2  A    between atoms: C_20  and  S_22
REMARK    3  A    between atoms: S_22  and  C_25
REMARK    4  A    between atoms: C_25  and  C_28
REMARK                            x       y       z     vdW  Elec       q    Type
REMARK                         _______ _______ _______ _____ _____    ______ ____
ROOT
ATOM      1  C   UNL     1       6.680  -5.490  25.590  0.00  0.00    +0.000 C 
ATOM      2  O   UNL     1       5.868  -6.280  25.994  0.00  0.00    +0.000 OA
ATOM      3  N   UNL     1       7.540  -4.866  26.444  0.00  0.00    +0.000 N 
ATOM      4  C   UNL     1       7.335  -3.484  26.823  0.00  0.00    +0.000 C 
ATOM      5  C   UNL     1       8.516  -2.640  26.329  0.00  0.00    +0.000 C 
ATOM      6  N   UNL     1       9.031  -3.196  25.079  0.00  0.00    +0.000 N 
ATOM      7  C   UNL     1       9.579  -2.481  24.122  0.00  0.00    +0.000 C 
ATOM      8  O   UNL     1      10.709  -2.718  23.655  0.00  0.00    +0.000 OA
ATOM      9  C   UNL     1       9.615  -4.564  25.256  0.00  0.00    +0.000 C 
ATOM     10  C   UNL     1       8.937  -5.317  26.356  0.00  0.00    +0.000 C 
ENDROOT
BRANCH   1  16
ATOM     11  C   UNL     1       6.315  -6.117  22.188  0.00  0.00    +0.000 A 
ATOM     12  C   UNL     1       4.852  -5.849  22.315  0.00  0.00    +0.000 A 
ATOM     13  C   UNL     1       4.053  -5.195  23.389  0.00  0.00    +0.000 A 
ATOM     14 CL   UNL     1       3.470  -6.508  24.376  0.00  0.00    +0.000 Cl
ATOM     15  C   UNL     1       5.101  -4.591  24.290  0.00  0.00    +0.000 A 
ATOM     16  C   UNL     1       6.489  -4.673  24.447  0.00  0.00    +0.000 A 
ATOM     17  C   UNL     1       7.071  -5.345  23.213  0.00  0.00    +0.000 A 
ENDBRANCH   1  16
BRANCH   7  18
ATOM     18  S   UNL     1       8.913  -1.133  23.347  0.00  0.00    +0.000 S 
ATOM     19  O   UNL     1       9.983  -0.070  23.441  0.00  0.00    +0.000 OA
ATOM     20  O   UNL     1       7.707  -0.637  23.968  0.00  0.00    +0.000 OA
BRANCH  18  21
ATOM     21  C   UNL     1       8.554  -1.270  21.600  0.00  0.00    +0.000 C 
BRANCH  21  22
ATOM     22  C   UNL     1       8.747   0.077  20.927  0.00  0.00    +0.000 C 
ATOM     23  N   UNL     1       7.477   0.925  21.324  0.00  0.00    +0.000 NA
ATOM     24  C   UNL     1       6.445   0.392  20.674  0.00  0.00    +0.000 A 
ATOM     25  C   UNL     1       5.615   1.610  20.325  0.00  0.00    +0.000 A 
ATOM     26  C   UNL     1       4.953   1.840  19.033  0.00  0.00    +0.000 A 
ATOM     27  C   UNL     1       5.313   0.723  18.122  0.00  0.00    +0.000 A 
ATOM     28  C   UNL     1       6.245  -0.351  18.142  0.00  0.00    +0.000 A 
ATOM     29  C   UNL     1       6.953  -0.356  19.455  0.00  0.00    +0.000 A 
ATOM     30  N   UNL     1       8.373  -0.170  19.439  0.00  0.00    +0.000 N 
ATOM     31  H   UNL     1       8.476   0.699  18.983  0.00  0.00    +0.000 HD
ENDBRANCH  21  22
ENDBRANCH  18  21
ENDBRANCH   7  18
TORSDOF 4
ENDMDL
MODEL 6
REMARK VINA RESULT:      -7.9      3.685      5.707
REMARK  Name = 
REMARK  4 active torsions:
REMARK  status: ('A' for Active; 'I' for Inactive)
REMARK    1  A    between atoms: C_9  and  C_10
REMARK    2  A    between atoms: C_20  and  S_22
REMARK    3  A    between atoms: S_22  and  C_25
REMARK    4  A    between atoms: C_25  and  C_28
REMARK                            x       y       z     vdW  Elec       q    Type
REMARK                         _______ _______ _______ _____ _____    ______ ____
ROOT
ATOM      1  C   UNL     1       8.336  -2.370  26.426  0.00  0.00    +0.000 C 
ATOM      2  O   UNL     1       8.893  -1.554  27.113  0.00  0.00    +0.000 OA
ATOM      3  N   UNL     1       8.672  -3.690  26.488  0.00  0.00    +0.000 N 
ATOM      4  C   UNL     1       9.466  -4.301  25.443  0.00  0.00    +0.000 C 
ATOM      5  C   UNL     1       8.642  -5.392  24.750  0.00  0.00    +0.000 C 
ATOM      6  N   UNL     1       7.229  -5.016  24.746  0.00  0.00    +0.000 N 
ATOM      7  C   UNL     1       6.377  -5.353  23.804  0.00  0.00    +0.000 C 
ATOM      8  O   UNL     1       5.302  -5.938  24.034  0.00  0.00    +0.000 OA
ATOM      9  C   UNL     1       6.649  -4.948  26.125  0.00  0.00    +0.000 C 
ATOM     10  C   UNL     1       7.675  -4.554  27.138  0.00  0.00    +0.000 C 
ENDROOT
BRANCH   1  16
ATOM     11  C   UNL     1       6.780   0.395  24.998  0.00  0.00    +0.000 A 
ATOM     12  C   UNL     1       8.039   0.695  24.254  0.00  0.00    +0.000 A 
ATOM     13  C   UNL     1       9.251  -0.128  23.982  0.00  0.00    +0.000 A 
ATOM     14 CL   UNL     1      10.382   0.314  25.233  0.00  0.00    +0.000 Cl
ATOM     15  C   UNL     1       8.845  -1.511  24.428  0.00  0.00    +0.000 A 
ATOM     16  C   UNL     1       7.794  -2.089  25.147  0.00  0.00    +0.000 A 
ATOM     17  C   UNL     1       6.673  -1.067  25.259  0.00  0.00    +0.000 A 
ENDBRANCH   1  16
BRANCH   7  18
ATOM     18  S   UNL     1       6.539  -5.091  22.140  0.00  0.00    +0.000 S 
ATOM     19  O   UNL     1       5.158  -5.336  21.578  0.00  0.00    +0.000 OA
ATOM     20  O   UNL     1       7.472  -5.985  21.495  0.00  0.00    +0.000 OA
BRANCH  18  21
ATOM     21  C   UNL     1       6.971  -3.442  21.596  0.00  0.00    +0.000 C 
BRANCH  21  22
ATOM     22  C   UNL     1       5.728  -2.573  21.550  0.00  0.00    +0.000 C 
ATOM     23  N   UNL     1       5.467  -2.300  20.018  0.00  0.00    +0.000 NA
ATOM     24  C   UNL     1       6.438  -1.486  19.607  0.00  0.00    +0.000 A 
ATOM     25  C   UNL     1       5.717  -0.595  18.615  0.00  0.00    +0.000 A 
ATOM     26  C   UNL     1       5.892   0.860  18.504  0.00  0.00    +0.000 A 
ATOM     27  C   UNL     1       6.821   1.299  19.578  0.00  0.00    +0.000 A 
ATOM     28  C   UNL     1       7.394   0.707  20.737  0.00  0.00    +0.000 A 
ATOM     29  C   UNL     1       6.995  -0.729  20.798  0.00  0.00    +0.000 A 
ATOM     30  N   UNL     1       6.228  -1.151  21.931  0.00  0.00    +0.000 N 
ATOM     31  H   UNL     1       5.436  -0.564  21.893  0.00  0.00    +0.000 HD
ENDBRANCH  21  22
ENDBRANCH  18  21
ENDBRANCH   7  18
TORSDOF 4
ENDMDL
MODEL 7
REMARK VINA RESULT:      -7.8      1.774      2.740
REMARK  Name = 
REMARK  4 active torsions:
REMARK  status: ('A' for Active; 'I' for Inactive)
REMARK    1  A    between atoms: C_9  and  C_10
REMARK    2  A    between atoms: C_20  and  S_22
REMARK    3  A    between atoms: S_22  and  C_25
REMARK    4  A    between atoms: C_25  and  C_28
REMARK                            x       y       z     vdW  Elec       q    Type
REMARK                         _______ _______ _______ _____ _____    ______ ____
ROOT
ATOM      1  C   UNL     1       6.568  -4.764  24.982  0.00  0.00    +0.000 C 
ATOM      2  O   UNL     1       6.375  -5.685  25.731  0.00  0.00    +0.000 OA
ATOM      3  N   UNL     1       7.697  -4.701  24.221  0.00  0.00    +0.000 N 
ATOM      4  C   UNL     1       8.777  -3.803  24.571  0.00  0.00    +0.000 C 
ATOM      5  C   UNL     1       8.958  -2.766  23.455  0.00  0.00    +0.000 C 
ATOM      6  N   UNL     1       7.666  -2.473  22.839  0.00  0.00    +0.000 N 
ATOM      7  C   UNL     1       7.341  -1.308  22.323  0.00  0.00    +0.000 C 
ATOM      8  O   UNL     1       6.924  -1.172  21.158  0.00  0.00    +0.000 OA
ATOM      9  C   UNL     1       7.081  -3.658  22.137  0.00  0.00    +0.000 C 
ATOM     10  C   UNL     1       7.491  -4.942  22.784  0.00  0.00    +0.000 C 
ENDROOT
BRANCH   1  16
ATOM     11  C   UNL     1       3.414  -3.390  25.496  0.00  0.00    +0.000 A 
ATOM     12  C   UNL     1       3.734  -3.247  26.947  0.00  0.00    +0.000 A 
ATOM     13  C   UNL     1       5.024  -3.307  27.689  0.00  0.00    +0.000 A 
ATOM     14 CL   UNL     1       5.137  -4.952  28.258  0.00  0.00    +0.000 Cl
ATOM     15  C   UNL     1       6.062  -3.303  26.594  0.00  0.00    +0.000 A 
ATOM     16  C   UNL     1       6.084  -3.450  25.203  0.00  0.00    +0.000 A 
ATOM     17  C   UNL     1       4.660  -3.317  24.685  0.00  0.00    +0.000 A 
ENDBRANCH   1  16
BRANCH   7  18
ATOM     18  S   UNL     1       7.419   0.202  23.081  0.00  0.00    +0.000 S 
ATOM     19  O   UNL     1       6.906  -0.047  24.481  0.00  0.00    +0.000 OA
ATOM     20  O   UNL     1       6.600   1.214  22.456  0.00  0.00    +0.000 OA
BRANCH  18  21
ATOM     21  C   UNL     1       9.034   0.937  23.308  0.00  0.00    +0.000 C 
BRANCH  21  22
ATOM     22  C   UNL     1       9.309   1.929  22.193  0.00  0.00    +0.000 C 
ATOM     23  N   UNL     1      10.807   2.380  22.397  0.00  0.00    +0.000 NA
ATOM     24  C   UNL     1      10.832   3.128  23.499  0.00  0.00    +0.000 A 
ATOM     25  C   UNL     1      11.862   4.184  23.153  0.00  0.00    +0.000 A 
ATOM     26  C   UNL     1      11.738   5.617  23.455  0.00  0.00    +0.000 A 
ATOM     27  C   UNL     1      10.405   5.848  24.070  0.00  0.00    +0.000 A 
ATOM     28  C   UNL     1       9.217   5.086  24.247  0.00  0.00    +0.000 A 
ATOM     29  C   UNL     1       9.448   3.700  23.747  0.00  0.00    +0.000 A 
ATOM     30  N   UNL     1       8.630   3.246  22.663  0.00  0.00    +0.000 N 
ATOM     31  H   UNL     1       8.810   3.913  21.958  0.00  0.00    +0.000 HD
ENDBRANCH  21  22
ENDBRANCH  18  21
ENDBRANCH   7  18
TORSDOF 4
ENDMDL
MODEL 8
REMARK VINA RESULT:      -7.6      1.698      2.340
REMARK  Name = 
REMARK  4 active torsions:
REMARK  status: ('A' for Active; 'I' for Inactive)
REMARK    1  A    between atoms: C_9  and  C_10
REMARK    2  A    between atoms: C_20  and  S_22
REMARK    3  A    between atoms: S_22  and  C_25
REMARK    4  A    between atoms: C_25  and  C_28
REMARK                            x       y       z     vdW  Elec       q    Type
REMARK                         _______ _______ _______ _____ _____    ______ ____
ROOT
ATOM      1  C   UNL     1       7.013  -4.890  25.273  0.00  0.00    +0.000 C 
ATOM      2  O   UNL     1       6.350  -5.704  25.860  0.00  0.00    +0.000 OA
ATOM      3  N   UNL     1       7.809  -4.012  25.946  0.00  0.00    +0.000 N 
ATOM      4  C   UNL     1       7.417  -2.628  26.105  0.00  0.00    +0.000 C 
ATOM      5  C   UNL     1       8.432  -1.727  25.393  0.00  0.00    +0.000 C 
ATOM      6  N   UNL     1       8.964  -2.414  24.218  0.00  0.00    +0.000 N 
ATOM      7  C   UNL     1       9.351  -1.807  23.118  0.00  0.00    +0.000 C 
ATOM      8  O   UNL     1      10.480  -1.961  22.615  0.00  0.00    +0.000 OA
ATOM      9  C   UNL     1       9.755  -3.635  24.575  0.00  0.00    +0.000 C 
ATOM     10  C   UNL     1       9.253  -4.271  25.832  0.00  0.00    +0.000 C 
ENDROOT
BRANCH   1  16
ATOM     11  C   UNL     1       6.359  -6.179  22.108  0.00  0.00    +0.000 A 
ATOM     12  C   UNL     1       4.900  -5.975  22.347  0.00  0.00    +0.000 A 
ATOM     13  C   UNL     1       4.164  -5.174  23.365  0.00  0.00    +0.000 A 
ATOM     14 CL   UNL     1       3.786  -6.304  24.638  0.00  0.00    +0.000 Cl
ATOM     15  C   UNL     1       5.247  -4.349  24.016  0.00  0.00    +0.000 A 
ATOM     16  C   UNL     1       6.646  -4.321  24.027  0.00  0.00    +0.000 A 
ATOM     17  C   UNL     1       7.152  -5.183  22.881  0.00  0.00    +0.000 A 
ENDBRANCH   1  16
BRANCH   7  18
ATOM     18  S   UNL     1       8.452  -0.722  22.182  0.00  0.00    +0.000 S 
ATOM     19  O   UNL     1       7.043  -1.266  22.214  0.00  0.00    +0.000 OA
ATOM     20  O   UNL     1       8.888  -0.634  20.808  0.00  0.00    +0.000 OA
BRANCH  18  21
ATOM     21  C   UNL     1       8.309   0.962  22.768  0.00  0.00    +0.000 C 
BRANCH  21  22
ATOM     22  C   UNL     1       7.605   1.812  21.726  0.00  0.00    +0.000 C 
ATOM     23  N   UNL     1       7.826   3.304  22.188  0.00  0.00    +0.000 NA
ATOM     24  C   UNL     1       7.090   3.476  23.285  0.00  0.00    +0.000 A 
ATOM     25  C   UNL     1       6.602   4.902  23.130  0.00  0.00    +0.000 A 
ATOM     26  C   UNL     1       5.237   5.364  23.419  0.00  0.00    +0.000 A 
ATOM     27  C   UNL     1       4.419   4.184  23.799  0.00  0.00    +0.000 A 
ATOM     28  C   UNL     1       4.585   2.772  23.764  0.00  0.00    +0.000 A 
ATOM     29  C   UNL     1       5.966   2.456  23.298  0.00  0.00    +0.000 A 
ATOM     30  N   UNL     1       6.096   1.705  22.085  0.00  0.00    +0.000 N 
ATOM     31  H   UNL     1       5.619   2.264  21.427  0.00  0.00    +0.000 HD
ENDBRANCH  21  22
ENDBRANCH  18  21
ENDBRANCH   7  18
TORSDOF 4
ENDMDL
MODEL 9
REMARK VINA RESULT:      -7.6      3.219      8.276
REMARK  Name = 
REMARK  4 active torsions:
REMARK  status: ('A' for Active; 'I' for Inactive)
REMARK    1  A    between atoms: C_9  and  C_10
REMARK    2  A    between atoms: C_20  and  S_22
REMARK    3  A    between atoms: S_22  and  C_25
REMARK    4  A    between atoms: C_25  and  C_28
REMARK                            x       y       z     vdW  Elec       q    Type
REMARK                         _______ _______ _______ _____ _____    ______ ____
ROOT
ATOM      1  C   UNL     1       7.809   0.754  22.290  0.00  0.00    +0.000 C 
ATOM      2  O   UNL     1       7.421   1.788  21.814  0.00  0.00    +0.000 OA
ATOM      3  N   UNL     1       7.874  -0.385  21.543  0.00  0.00    +0.000 N 
ATOM      4  C   UNL     1       6.886  -1.431  21.700  0.00  0.00    +0.000 C 
ATOM      5  C   UNL     1       7.571  -2.706  22.205  0.00  0.00    +0.000 C 
ATOM      6  N   UNL     1       8.698  -2.354  23.066  0.00  0.00    +0.000 N 
ATOM      7  C   UNL     1       9.110  -3.083  24.080  0.00  0.00    +0.000 C 
ATOM      8  O   UNL     1      10.286  -3.472  24.206  0.00  0.00    +0.000 OA
ATOM      9  C   UNL     1       9.782  -1.632  22.328  0.00  0.00    +0.000 C 
ATOM     10  C   UNL     1       9.235  -0.822  21.196  0.00  0.00    +0.000 C 
ENDROOT
BRANCH   1  16
ATOM     11  C   UNL     1       8.207   2.457  25.298  0.00  0.00    +0.000 A 
ATOM     12  C   UNL     1       6.722   2.561  25.413  0.00  0.00    +0.000 A 
ATOM     13  C   UNL     1       5.620   1.848  24.708  0.00  0.00    +0.000 A 
ATOM     14 CL   UNL     1       5.171   2.905  23.396  0.00  0.00    +0.000 Cl
ATOM     15  C   UNL     1       6.331   0.744  23.966  0.00  0.00    +0.000 A 
ATOM     16  C   UNL     1       7.652   0.404  23.655  0.00  0.00    +0.000 A 
ATOM     17  C   UNL     1       8.579   1.239  24.526  0.00  0.00    +0.000 A 
ENDBRANCH   1  16
BRANCH   7  18
ATOM     18  S   UNL     1       8.181  -3.643  25.379  0.00  0.00    +0.000 S 
ATOM     19  O   UNL     1       7.201  -2.526  25.656  0.00  0.00    +0.000 OA
ATOM     20  O   UNL     1       8.946  -3.902  26.576  0.00  0.00    +0.000 OA
BRANCH  18  21
ATOM     21  C   UNL     1       7.165  -5.090  25.112  0.00  0.00    +0.000 C 
BRANCH  21  22
ATOM     22  C   UNL     1       5.971  -5.061  26.050  0.00  0.00    +0.000 C 
ATOM     23  N   UNL     1       5.370  -6.518  26.003  0.00  0.00    +0.000 NA
ATOM     24  C   UNL     1       4.822  -6.665  24.798  0.00  0.00    +0.000 A 
ATOM     25  C   UNL     1       3.598  -7.507  25.098  0.00  0.00    +0.000 A 
ATOM     26  C   UNL     1       2.265  -7.297  24.515  0.00  0.00    +0.000 A 
ATOM     27  C   UNL     1       2.317  -6.079  23.665  0.00  0.00    +0.000 A 
ATOM     28  C   UNL     1       3.245  -5.024  23.449  0.00  0.00    +0.000 A 
ATOM     29  C   UNL     1       4.485  -5.299  24.231  0.00  0.00    +0.000 A 
ATOM     30  N   UNL     1       4.852  -4.349  25.238  0.00  0.00    +0.000 N 
ATOM     31  H   UNL     1       4.059  -4.332  25.825  0.00  0.00    +0.000 HD
ENDBRANCH  21  22
ENDBRANCH  18  21
ENDBRANCH   7  18
TORSDOF 4
ENDMDL
