MODEL 1
REMARK VINA RESULT:      -8.8      0.000      0.000
REMARK  Name = 
REMARK  4 active torsions:
REMARK  status: ('A' for Active; 'I' for Inactive)
REMARK    1  A    between atoms: C_10  and  C_11
REMARK    2  A    between atoms: C_11  and  C_14
REMARK    3  A    between atoms: C_24  and  C_26
REMARK    4  A    between atoms: C_26  and  C_29
REMARK                            x       y       z     vdW  Elec       q    Type
REMARK                         _______ _______ _______ _____ _____    ______ ____
ROOT
ATOM      1  C   UNL     1       9.083   1.627  23.298  0.00  0.00    +0.000 C 
ATOM      2  O   UNL     1       9.533   2.520  24.107  0.00  0.00    +0.000 OA
ATOM      3  N   UNL     1       9.399   0.352  23.628  0.00  0.00    +0.000 N 
ATOM      4  C   UNL     1      10.444  -0.381  22.911  0.00  0.00    +0.000 C 
ATOM      5  C   UNL     1      10.325  -1.864  23.159  0.00  0.00    +0.000 C 
ATOM      6  N   UNL     1       9.186  -2.154  24.037  0.00  0.00    +0.000 N 
ATOM      7  C   UNL     1       8.822  -3.466  24.202  0.00  0.00    +0.000 C 
ATOM      8  O   UNL     1       9.788  -4.224  24.449  0.00  0.00    +0.000 OA
ATOM      9  C   UNL     1       9.183  -1.404  25.321  0.00  0.00    +0.000 C 
ATOM     10  C   UNL     1       9.364   0.048  25.089  0.00  0.00    +0.000 C 
ENDROOT
BRANCH   1  11
ATOM     11  C   UNL     1       8.638   2.056  21.978  0.00  0.00    +0.000 C 
BRANCH  11  18
ATOM     12  C   UNL     1       5.836  -1.260  19.613  0.00  0.00    +0.000 A 
ATOM     13  N   UNL     1       6.748  -1.216  20.823  0.00  0.00    +0.000 NA
ATOM     14  C   UNL     1       6.814  -0.044  21.194  0.00  0.00    +0.000 A 
ATOM     15  C   UNL     1       6.649   1.444  20.597  0.00  0.00    +0.000 A 
ATOM     16  C   UNL     1       5.689   1.488  19.600  0.00  0.00    +0.000 A 
ATOM     17  C   UNL     1       5.693   0.023  19.007  0.00  0.00    +0.000 A 
ATOM     18  C   UNL     1       7.190   2.274  21.706  0.00  0.00    +0.000 C 
ATOM     19  C   UNL     1       6.451   1.480  22.920  0.00  0.00    +0.000 C 
ATOM     20  N   UNL     1       6.426   0.129  22.538  0.00  0.00    +0.000 N 
ATOM     21  H   UNL     1       5.520  -0.175  22.588  0.00  0.00    +0.000 HD
ENDBRANCH  11  18
ENDBRANCH   1  11
BRANCH   7  22
ATOM     22  C   UNL     1       7.549  -3.954  23.707  0.00  0.00    +0.000 C 
BRANCH  22  23
ATOM     23  C   UNL     1       7.485  -5.480  23.420  0.00  0.00    +0.000 C 
ATOM     24  C   UNL     1       7.246  -5.462  21.851  0.00  0.00    +0.000 C 
ATOM     25  N   UNL     1       5.886  -5.230  21.595  0.00  0.00    +0.000 N 
ATOM     26  H   UNL     1       5.725  -4.383  21.319  0.00  0.00    +0.000 HD
ATOM     27  C   UNL     1       5.086  -5.649  22.624  0.00  0.00    +0.000 A 
ATOM     28  N   UNL     1       4.105  -4.584  22.773  0.00  0.00    +0.000 NA
ATOM     29  C   UNL     1       3.981  -4.273  24.001  0.00  0.00    +0.000 A 
ATOM     30  C   UNL     1       4.711  -4.623  25.190  0.00  0.00    +0.000 A 
ATOM     31  C   UNL     1       5.763  -5.530  25.273  0.00  0.00    +0.000 A 
ATOM     32  C   UNL     1       5.940  -5.831  23.808  0.00  0.00    +0.000 A 
ENDBRANCH  22  23
ENDBRANCH   7  22
TORSDOF 4
ENDMDL
MODEL 2
REMARK VINA RESULT:      -8.5      1.139      1.991
REMARK  Name = 
REMARK  4 active torsions:
REMARK  status: ('A' for Active; 'I' for Inactive)
REMARK    1  A    between atoms: C_10  and  C_11
REMARK    2  A    between atoms: C_11  and  C_14
REMARK    3  A    between atoms: C_24  and  C_26
REMARK    4  A    between atoms: C_26  and  C_29
REMARK                            x       y       z     vdW  Elec       q    Type
REMARK                         _______ _______ _______ _____ _____    ______ ____
ROOT
ATOM      1  C   UNL     1       9.035   1.558  23.160  0.00  0.00    +0.000 C 
ATOM      2  O   UNL     1       9.649   2.513  23.764  0.00  0.00    +0.000 OA
ATOM      3  N   UNL     1       9.439   0.313  23.508  0.00  0.00    +0.000 N 
ATOM      4  C   UNL     1      10.295  -0.481  22.625  0.00  0.00    +0.000 C 
ATOM      5  C   UNL     1      10.260  -1.938  23.013  0.00  0.00    +0.000 C 
ATOM      6  N   UNL     1       9.366  -2.150  24.156  0.00  0.00    +0.000 N 
ATOM      7  C   UNL     1       9.072  -3.443  24.508  0.00  0.00    +0.000 C 
ATOM      8  O   UNL     1      10.080  -4.182  24.580  0.00  0.00    +0.000 OA
ATOM      9  C   UNL     1       9.656  -1.297  25.340  0.00  0.00    +0.000 C 
ATOM     10  C   UNL     1       9.755   0.130  24.955  0.00  0.00    +0.000 C 
ENDROOT
BRANCH   1  11
ATOM     11  C   UNL     1       8.283   1.879  21.953  0.00  0.00    +0.000 C 
BRANCH  11  18
ATOM     12  C   UNL     1       6.296   0.206  17.747  0.00  0.00    +0.000 A 
ATOM     13  N   UNL     1       7.455  -0.140  18.659  0.00  0.00    +0.000 NA
ATOM     14  C   UNL     1       7.202   0.322  19.772  0.00  0.00    +0.000 A 
ATOM     15  C   UNL     1       6.331   1.501  20.442  0.00  0.00    +0.000 A 
ATOM     16  C   UNL     1       5.163   1.734  19.736  0.00  0.00    +0.000 A 
ATOM     17  C   UNL     1       5.515   1.283  18.263  0.00  0.00    +0.000 A 
ATOM     18  C   UNL     1       6.848   1.500  21.837  0.00  0.00    +0.000 C 
ATOM     19  C   UNL     1       6.863  -0.116  22.036  0.00  0.00    +0.000 C 
ATOM     20  N   UNL     1       7.215  -0.655  20.788  0.00  0.00    +0.000 N 
ATOM     21  H   UNL     1       6.545  -1.293  20.543  0.00  0.00    +0.000 HD
ENDBRANCH  11  18
ENDBRANCH   1  11
BRANCH   7  22
ATOM     22  C   UNL     1       7.725  -3.964  24.370  0.00  0.00    +0.000 C 
BRANCH  22  23
ATOM     23  C   UNL     1       6.636  -2.914  24.012  0.00  0.00    +0.000 C 
ATOM     24  C   UNL     1       5.601  -3.171  25.187  0.00  0.00    +0.000 C 
ATOM     25  N   UNL     1       4.809  -4.285  24.866  0.00  0.00    +0.000 N 
ATOM     26  H   UNL     1       5.048  -5.025  25.330  0.00  0.00    +0.000 HD
ATOM     27  C   UNL     1       4.706  -4.477  23.515  0.00  0.00    +0.000 A 
ATOM     28  N   UNL     1       4.849  -5.914  23.344  0.00  0.00    +0.000 NA
ATOM     29  C   UNL     1       5.671  -6.163  22.404  0.00  0.00    +0.000 A 
ATOM     30  C   UNL     1       6.576  -5.348  21.638  0.00  0.00    +0.000 A 
ATOM     31  C   UNL     1       6.700  -3.963  21.711  0.00  0.00    +0.000 A 
ATOM     32  C   UNL     1       5.775  -3.698  22.871  0.00  0.00    +0.000 A 
ENDBRANCH  22  23
ENDBRANCH   7  22
TORSDOF 4
ENDMDL
MODEL 3
REMARK VINA RESULT:      -8.4      2.077      6.519
REMARK  Name = 
REMARK  4 active torsions:
REMARK  status: ('A' for Active; 'I' for Inactive)
REMARK    1  A    between atoms: C_10  and  C_11
REMARK    2  A    between atoms: C_11  and  C_14
REMARK    3  A    between atoms: C_24  and  C_26
REMARK    4  A    between atoms: C_26  and  C_29
REMARK                            x       y       z     vdW  Elec       q    Type
REMARK                         _______ _______ _______ _____ _____    ______ ____
ROOT
ATOM      1  C   UNL     1       5.585  -5.493  26.143  0.00  0.00    +0.000 C 
ATOM      2  O   UNL     1       5.953  -6.500  26.854  0.00  0.00    +0.000 OA
ATOM      3  N   UNL     1       6.330  -4.375  26.314  0.00  0.00    +0.000 N 
ATOM      4  C   UNL     1       5.832  -3.243  27.098  0.00  0.00    +0.000 C 
ATOM      5  C   UNL     1       6.623  -1.995  26.800  0.00  0.00    +0.000 C 
ATOM      6  N   UNL     1       7.659  -2.263  25.797  0.00  0.00    +0.000 N 
ATOM      7  C   UNL     1       8.336  -1.192  25.272  0.00  0.00    +0.000 C 
ATOM      8  O   UNL     1       8.745  -0.387  26.140  0.00  0.00    +0.000 OA
ATOM      9  C   UNL     1       8.566  -3.395  26.126  0.00  0.00    +0.000 C 
ATOM     10  C   UNL     1       7.795  -4.609  26.482  0.00  0.00    +0.000 C 
ENDROOT
BRANCH   1  11
ATOM     11  C   UNL     1       4.254  -5.520  25.550  0.00  0.00    +0.000 C 
BRANCH  11  18
ATOM     12  C   UNL     1       6.928  -5.400  21.394  0.00  0.00    +0.000 A 
ATOM     13  N   UNL     1       6.200  -6.430  22.234  0.00  0.00    +0.000 NA
ATOM     14  C   UNL     1       5.348  -5.834  22.894  0.00  0.00    +0.000 A 
ATOM     15  C   UNL     1       5.064  -4.363  23.490  0.00  0.00    +0.000 A 
ATOM     16  C   UNL     1       5.561  -3.373  22.659  0.00  0.00    +0.000 A 
ATOM     17  C   UNL     1       6.758  -4.079  21.905  0.00  0.00    +0.000 A 
ATOM     18  C   UNL     1       3.922  -4.627  24.406  0.00  0.00    +0.000 C 
ATOM     19  C   UNL     1       3.085  -5.594  23.398  0.00  0.00    +0.000 C 
ATOM     20  N   UNL     1       4.045  -6.327  22.682  0.00  0.00    +0.000 N 
ATOM     21  H   UNL     1       3.871  -6.209  21.749  0.00  0.00    +0.000 HD
ENDBRANCH  11  18
ENDBRANCH   1  11
BRANCH   7  22
ATOM     22  C   UNL     1       8.192  -0.832  23.874  0.00  0.00    +0.000 C 
BRANCH  22  23
ATOM     23  C   UNL     1       9.416  -1.156  22.972  0.00  0.00    +0.000 C 
ATOM     24  C   UNL     1      10.503  -0.197  23.619  0.00  0.00    +0.000 C 
ATOM     25  N   UNL     1      10.323   1.103  23.122  0.00  0.00    +0.000 N 
ATOM     26  H   UNL     1       9.929   1.652  23.724  0.00  0.00    +0.000 HD
ATOM     27  C   UNL     1       9.737   1.109  21.885  0.00  0.00    +0.000 A 
ATOM     28  N   UNL     1       8.762   2.188  21.955  0.00  0.00    +0.000 NA
ATOM     29  C   UNL     1       7.645   1.798  21.486  0.00  0.00    +0.000 A 
ATOM     30  C   UNL     1       7.131   0.515  21.089  0.00  0.00    +0.000 A 
ATOM     31  C   UNL     1       7.842  -0.681  21.049  0.00  0.00    +0.000 A 
ATOM     32  C   UNL     1       9.133  -0.216  21.671  0.00  0.00    +0.000 A 
ENDBRANCH  22  23
ENDBRANCH   7  22
TORSDOF 4
ENDMDL
MODEL 4
REMARK VINA RESULT:      -8.3      1.548      6.322
REMARK  Name = 
REMARK  4 active torsions:
REMARK  status: ('A' for Active; 'I' for Inactive)
REMARK    1  A    between atoms: C_10  and  C_11
REMARK    2  A    between atoms: C_11  and  C_14
REMARK    3  A    between atoms: C_24  and  C_26
REMARK    4  A    between atoms: C_26  and  C_29
REMARK                            x       y       z     vdW  Elec       q    Type
REMARK                         _______ _______ _______ _____ _____    ______ ____
ROOT
ATOM      1  C   UNL     1       7.993  -4.858  25.336  0.00  0.00    +0.000 C 
ATOM      2  O   UNL     1       8.914  -5.754  25.276  0.00  0.00    +0.000 OA
ATOM      3  N   UNL     1       8.443  -3.582  25.380  0.00  0.00    +0.000 N 
ATOM      4  C   UNL     1       8.437  -2.817  26.628  0.00  0.00    +0.000 C 
ATOM      5  C   UNL     1       8.576  -1.341  26.354  0.00  0.00    +0.000 C 
ATOM      6  N   UNL     1       8.662  -1.086  24.912  0.00  0.00    +0.000 N 
ATOM      7  C   UNL     1       8.594   0.215  24.486  0.00  0.00    +0.000 C 
ATOM      8  O   UNL     1       9.342   0.989  25.126  0.00  0.00    +0.000 OA
ATOM      9  C   UNL     1       9.722  -1.855  24.206  0.00  0.00    +0.000 C 
ATOM     10  C   UNL     1       9.632  -3.299  24.522  0.00  0.00    +0.000 C 
ENDROOT
BRANCH   1  11
ATOM     11  C   UNL     1       6.650  -5.277  25.720  0.00  0.00    +0.000 C 
BRANCH  11  18
ATOM     12  C   UNL     1       6.203  -5.508  20.803  0.00  0.00    +0.000 A 
ATOM     13  N   UNL     1       6.458  -6.458  21.955  0.00  0.00    +0.000 NA
ATOM     14  C   UNL     1       6.020  -5.928  22.976  0.00  0.00    +0.000 A 
ATOM     15  C   UNL     1       5.707  -4.458  23.558  0.00  0.00    +0.000 A 
ATOM     16  C   UNL     1       5.295  -3.592  22.558  0.00  0.00    +0.000 A 
ATOM     17  C   UNL     1       5.971  -4.174  21.253  0.00  0.00    +0.000 A 
ATOM     18  C   UNL     1       5.461  -4.750  24.996  0.00  0.00    +0.000 C 
ATOM     19  C   UNL     1       4.537  -6.071  24.769  0.00  0.00    +0.000 C 
ATOM     20  N   UNL     1       5.065  -6.722  23.643  0.00  0.00    +0.000 N 
ATOM     21  H   UNL     1       4.354  -6.852  23.016  0.00  0.00    +0.000 HD
ENDBRANCH  11  18
ENDBRANCH   1  11
BRANCH   7  22
ATOM     22  C   UNL     1       7.469   0.684  23.698  0.00  0.00    +0.000 C 
BRANCH  22  23
ATOM     23  C   UNL     1       7.610   2.120  23.122  0.00  0.00    +0.000 C 
ATOM     24  C   UNL     1       6.082   2.481  22.890  0.00  0.00    +0.000 C 
ATOM     25  N   UNL     1       5.652   1.905  21.684  0.00  0.00    +0.000 N 
ATOM     26  H   UNL     1       5.139   1.170  21.815  0.00  0.00    +0.000 HD
ATOM     27  C   UNL     1       6.680   1.724  20.799  0.00  0.00    +0.000 A 
ATOM     28  N   UNL     1       6.441   0.404  20.235  0.00  0.00    +0.000 NA
ATOM     29  C   UNL     1       7.520  -0.272  20.234  0.00  0.00    +0.000 A 
ATOM     30  C   UNL     1       8.819  -0.065  20.815  0.00  0.00    +0.000 A 
ATOM     31  C   UNL     1       9.244   1.069  21.501  0.00  0.00    +0.000 A 
ATOM     32  C   UNL     1       7.940   1.823  21.554  0.00  0.00    +0.000 A 
ENDBRANCH  22  23
ENDBRANCH   7  22
TORSDOF 4
ENDMDL
MODEL 5
REMARK VINA RESULT:      -7.8      2.778      7.585
REMARK  Name = 
REMARK  4 active torsions:
REMARK  status: ('A' for Active; 'I' for Inactive)
REMARK    1  A    between atoms: C_10  and  C_11
REMARK    2  A    between atoms: C_11  and  C_14
REMARK    3  A    between atoms: C_24  and  C_26
REMARK    4  A    between atoms: C_26  and  C_29
REMARK                            x       y       z     vdW  Elec       q    Type
REMARK                         _______ _______ _______ _____ _____    ______ ____
ROOT
ATOM      1  C   UNL     1       5.964  -2.534  21.750  0.00  0.00    +0.000 C 
ATOM      2  O   UNL     1       5.580  -3.125  20.674  0.00  0.00    +0.000 OA
ATOM      3  N   UNL     1       6.970  -1.643  21.580  0.00  0.00    +0.000 N 
ATOM      4  C   UNL     1       8.342  -1.962  21.976  0.00  0.00    +0.000 C 
ATOM      5  C   UNL     1       9.174  -0.709  22.085  0.00  0.00    +0.000 C 
ATOM      6  N   UNL     1       8.369   0.478  21.778  0.00  0.00    +0.000 N 
ATOM      7  C   UNL     1       8.922   1.709  22.022  0.00  0.00    +0.000 C 
ATOM      8  O   UNL     1      10.088   1.828  21.580  0.00  0.00    +0.000 OA
ATOM      9  C   UNL     1       7.661   0.429  20.471  0.00  0.00    +0.000 C 
ATOM     10  C   UNL     1       6.892  -0.830  20.330  0.00  0.00    +0.000 C 
ENDROOT
BRANCH   1  11
ATOM     11  C   UNL     1       5.581  -3.117  23.030  0.00  0.00    +0.000 C 
BRANCH  11  18
ATOM     12  C   UNL     1       8.955  -4.266  26.455  0.00  0.00    +0.000 A 
ATOM     13  N   UNL     1       7.679  -3.455  26.361  0.00  0.00    +0.000 NA
ATOM     14  C   UNL     1       7.034  -3.889  25.405  0.00  0.00    +0.000 A 
ATOM     15  C   UNL     1       7.275  -4.666  24.014  0.00  0.00    +0.000 A 
ATOM     16  C   UNL     1       8.330  -5.557  24.106  0.00  0.00    +0.000 A 
ATOM     17  C   UNL     1       9.251  -4.938  25.231  0.00  0.00    +0.000 A 
ATOM     18  C   UNL     1       5.948  -4.523  23.357  0.00  0.00    +0.000 C 
ATOM     19  C   UNL     1       5.045  -4.856  24.670  0.00  0.00    +0.000 C 
ATOM     20  N   UNL     1       5.737  -4.310  25.763  0.00  0.00    +0.000 N 
ATOM     21  H   UNL     1       5.860  -5.003  26.410  0.00  0.00    +0.000 HD
ENDBRANCH  11  18
ENDBRANCH   1  11
BRANCH   7  22
ATOM     22  C   UNL     1       8.379   2.581  23.047  0.00  0.00    +0.000 C 
BRANCH  22  23
ATOM     23  C   UNL     1       9.168   2.609  24.385  0.00  0.00    +0.000 C 
ATOM     24  C   UNL     1       8.081   1.991  25.364  0.00  0.00    +0.000 C 
ATOM     25  N   UNL     1       7.172   2.995  25.734  0.00  0.00    +0.000 N 
ATOM     26  H   UNL     1       6.379   2.919  25.304  0.00  0.00    +0.000 HD
ATOM     27  C   UNL     1       7.727   4.245  25.676  0.00  0.00    +0.000 A 
ATOM     28  N   UNL     1       6.693   5.069  25.070  0.00  0.00    +0.000 NA
ATOM     29  C   UNL     1       7.194   5.790  24.148  0.00  0.00    +0.000 A 
ATOM     30  C   UNL     1       8.478   5.819  23.500  0.00  0.00    +0.000 A 
ATOM     31  C   UNL     1       9.585   5.042  23.830  0.00  0.00    +0.000 A 
ATOM     32  C   UNL     1       8.954   4.151  24.869  0.00  0.00    +0.000 A 
ENDBRANCH  22  23
ENDBRANCH   7  22
TORSDOF 4
ENDMDL
MODEL 6
REMARK VINA RESULT:      -7.8      1.576      6.466
REMARK  Name = 
REMARK  4 active torsions:
REMARK  status: ('A' for Active; 'I' for Inactive)
REMARK    1  A    between atoms: C_10  and  C_11
REMARK    2  A    between atoms: C_11  and  C_14
REMARK    3  A    between atoms: C_24  and  C_26
REMARK    4  A    between atoms: C_26  and  C_29
REMARK                            x       y       z     vdW  Elec       q    Type
REMARK                         _______ _______ _______ _____ _____    ______ ____
ROOT
ATOM      1  C   UNL     1       8.282  -4.631  24.471  0.00  0.00    +0.000 C 
ATOM      2  O   UNL     1       9.319  -5.389  24.416  0.00  0.00    +0.000 OA
ATOM      3  N   UNL     1       8.539  -3.337  24.778  0.00  0.00    +0.000 N 
ATOM      4  C   UNL     1       8.262  -2.803  26.112  0.00  0.00    +0.000 C 
ATOM      5  C   UNL     1       8.228  -1.296  26.091  0.00  0.00    +0.000 C 
ATOM      6  N   UNL     1       8.466  -0.790  24.735  0.00  0.00    +0.000 N 
ATOM      7  C   UNL     1       8.274   0.549  24.507  0.00  0.00    +0.000 C 
ATOM      8  O   UNL     1       8.815   1.283  25.365  0.00  0.00    +0.000 OA
ATOM      9  C   UNL     1       9.707  -1.297  24.091  0.00  0.00    +0.000 C 
ATOM     10  C   UNL     1       9.779  -2.775  24.165  0.00  0.00    +0.000 C 
ENDROOT
BRANCH   1  11
ATOM     11  C   UNL     1       6.972  -5.263  24.577  0.00  0.00    +0.000 C 
BRANCH  11  18
ATOM     12  C   UNL     1       2.220  -3.925  24.835  0.00  0.00    +0.000 A 
ATOM     13  N   UNL     1       3.575  -3.329  25.155  0.00  0.00    +0.000 NA
ATOM     14  C   UNL     1       4.412  -3.926  24.476  0.00  0.00    +0.000 A 
ATOM     15  C   UNL     1       4.616  -5.352  23.754  0.00  0.00    +0.000 A 
ATOM     16  C   UNL     1       3.416  -5.859  23.283  0.00  0.00    +0.000 A 
ATOM     17  C   UNL     1       2.334  -5.217  24.239  0.00  0.00    +0.000 A 
ATOM     18  C   UNL     1       6.060  -5.306  23.401  0.00  0.00    +0.000 C 
ATOM     19  C   UNL     1       6.076  -3.774  22.850  0.00  0.00    +0.000 C 
ATOM     20  N   UNL     1       5.171  -3.065  23.657  0.00  0.00    +0.000 N 
ATOM     21  H   UNL     1       4.541  -2.631  23.083  0.00  0.00    +0.000 HD
ENDBRANCH  11  18
ENDBRANCH   1  11
BRANCH   7  22
ATOM     22  C   UNL     1       7.208   1.011  23.639  0.00  0.00    +0.000 C 
BRANCH  22  23
ATOM     23  C   UNL     1       7.411   2.425  23.027  0.00  0.00    +0.000 C 
ATOM     24  C   UNL     1       5.902   2.827  22.742  0.00  0.00    +0.000 C 
ATOM     25  N   UNL     1       5.487   2.231  21.540  0.00  0.00    +0.000 N 
ATOM     26  H   UNL     1       4.948   1.516  21.677  0.00  0.00    +0.000 HD
ATOM     27  C   UNL     1       6.533   1.993  20.691  0.00  0.00    +0.000 A 
ATOM     28  N   UNL     1       6.267   0.666  20.157  0.00  0.00    +0.000 NA
ATOM     29  C   UNL     1       7.323  -0.044  20.205  0.00  0.00    +0.000 A 
ATOM     30  C   UNL     1       8.612   0.138  20.816  0.00  0.00    +0.000 A 
ATOM     31  C   UNL     1       9.054   1.278  21.483  0.00  0.00    +0.000 A 
ATOM     32  C   UNL     1       7.774   2.073  21.477  0.00  0.00    +0.000 A 
ENDBRANCH  22  23
ENDBRANCH   7  22
TORSDOF 4
ENDMDL
MODEL 7
REMARK VINA RESULT:      -7.7      2.480      7.479
REMARK  Name = 
REMARK  4 active torsions:
REMARK  status: ('A' for Active; 'I' for Inactive)
REMARK    1  A    between atoms: C_10  and  C_11
REMARK    2  A    between atoms: C_11  and  C_14
REMARK    3  A    between atoms: C_24  and  C_26
REMARK    4  A    between atoms: C_26  and  C_29
REMARK                            x       y       z     vdW  Elec       q    Type
REMARK                         _______ _______ _______ _____ _____    ______ ____
ROOT
ATOM      1  C   UNL     1       4.526  -4.306  23.543  0.00  0.00    +0.000 C 
ATOM      2  O   UNL     1       4.052  -5.159  22.705  0.00  0.00    +0.000 OA
ATOM      3  N   UNL     1       5.875  -4.181  23.524  0.00  0.00    +0.000 N 
ATOM      4  C   UNL     1       6.707  -4.775  24.572  0.00  0.00    +0.000 C 
ATOM      5  C   UNL     1       8.085  -4.163  24.574  0.00  0.00    +0.000 C 
ATOM      6  N   UNL     1       8.198  -3.134  23.535  0.00  0.00    +0.000 N 
ATOM      7  C   UNL     1       9.321  -2.347  23.532  0.00  0.00    +0.000 C 
ATOM      8  O   UNL     1      10.386  -2.997  23.643  0.00  0.00    +0.000 OA
ATOM      9  C   UNL     1       7.825  -3.586  22.168  0.00  0.00    +0.000 C 
ATOM     10  C   UNL     1       6.499  -4.246  22.169  0.00  0.00    +0.000 C 
ENDROOT
BRANCH   1  11
ATOM     11  C   UNL     1       3.668  -3.863  24.635  0.00  0.00    +0.000 C 
BRANCH  11  18
ATOM     12  C   UNL     1       5.600  -5.674  28.808  0.00  0.00    +0.000 A 
ATOM     13  N   UNL     1       5.291  -4.318  28.208  0.00  0.00    +0.000 NA
ATOM     14  C   UNL     1       4.416  -4.481  27.356  0.00  0.00    +0.000 A 
ATOM     15  C   UNL     1       3.850  -5.635  26.384  0.00  0.00    +0.000 A 
ATOM     16  C   UNL     1       3.950  -6.886  26.969  0.00  0.00    +0.000 A 
ATOM     17  C   UNL     1       5.168  -6.742  27.965  0.00  0.00    +0.000 A 
ATOM     18  C   UNL     1       2.957  -4.857  25.484  0.00  0.00    +0.000 C 
ATOM     19  C   UNL     1       2.264  -3.944  26.640  0.00  0.00    +0.000 C 
ATOM     20  N   UNL     1       3.268  -3.697  27.589  0.00  0.00    +0.000 N 
ATOM     21  H   UNL     1       2.939  -3.967  28.445  0.00  0.00    +0.000 HD
ENDBRANCH  11  18
ENDBRANCH   1  11
BRANCH   7  22
ATOM     22  C   UNL     1       9.236  -0.926  23.816  0.00  0.00    +0.000 C 
BRANCH  22  23
ATOM     23  C   UNL     1      10.455  -0.080  23.356  0.00  0.00    +0.000 C 
ATOM     24  C   UNL     1      10.579   0.923  24.580  0.00  0.00    +0.000 C 
ATOM     25  N   UNL     1       9.643   1.957  24.424  0.00  0.00    +0.000 N 
ATOM     26  H   UNL     1       8.928   1.863  24.971  0.00  0.00    +0.000 HD
ATOM     27  C   UNL     1       9.322   2.173  23.111  0.00  0.00    +0.000 A 
ATOM     28  N   UNL     1       7.879   2.360  23.119  0.00  0.00    +0.000 NA
ATOM     29  C   UNL     1       7.343   1.665  22.198  0.00  0.00    +0.000 A 
ATOM     30  C   UNL     1       7.836   0.645  21.312  0.00  0.00    +0.000 A 
ATOM     31  C   UNL     1       9.156   0.214  21.205  0.00  0.00    +0.000 A 
ATOM     32  C   UNL     1       9.758   0.993  22.346  0.00  0.00    +0.000 A 
ENDBRANCH  22  23
ENDBRANCH   7  22
TORSDOF 4
ENDMDL
MODEL 8
REMARK VINA RESULT:      -7.6      2.155      6.530
REMARK  Name = 
REMARK  4 active torsions:
REMARK  status: ('A' for Active; 'I' for Inactive)
REMARK    1  A    between atoms: C_10  and  C_11
REMARK    2  A    between atoms: C_11  and  C_14
REMARK    3  A    between atoms: C_24  and  C_26
REMARK    4  A    between atoms: C_26  and  C_29
REMARK                            x       y       z     vdW  Elec       q    Type
REMARK                         _______ _______ _______ _____ _____    ______ ____
ROOT
ATOM      1  C   UNL     1       6.796  -4.049  26.499  0.00  0.00    +0.000 C 
ATOM      2  O   UNL     1       7.421  -4.733  27.391  0.00  0.00    +0.000 OA
ATOM      3  N   UNL     1       7.131  -2.738  26.450  0.00  0.00    +0.000 N 
ATOM      4  C   UNL     1       6.249  -1.707  27.000  0.00  0.00    +0.000 C 
ATOM      5  C   UNL     1       6.617  -0.346  26.466  0.00  0.00    +0.000 C 
ATOM      6  N   UNL     1       7.745  -0.441  25.535  0.00  0.00    +0.000 N 
ATOM      7  C   UNL     1       8.076   0.678  24.813  0.00  0.00    +0.000 C 
ATOM      8  O   UNL     1       8.150   1.716  25.508  0.00  0.00    +0.000 OA
ATOM      9  C   UNL     1       8.944  -1.134  26.077  0.00  0.00    +0.000 C 
ATOM     10  C   UNL     1       8.580  -2.446  26.661  0.00  0.00    +0.000 C 
ENDROOT
BRANCH   1  11
ATOM     11  C   UNL     1       5.584  -4.617  25.921  0.00  0.00    +0.000 C 
BRANCH  11  18
ATOM     12  C   UNL     1       1.954  -6.220  22.973  0.00  0.00    +0.000 A 
ATOM     13  N   UNL     1       2.867  -5.016  23.080  0.00  0.00    +0.000 NA
ATOM     14  C   UNL     1       3.858  -5.359  23.725  0.00  0.00    +0.000 A 
ATOM     15  C   UNL     1       4.286  -6.451  24.831  0.00  0.00    +0.000 A 
ATOM     16  C   UNL     1       3.599  -7.641  24.662  0.00  0.00    +0.000 A 
ATOM     17  C   UNL     1       2.250  -7.203  23.965  0.00  0.00    +0.000 A 
ATOM     18  C   UNL     1       5.620  -5.946  25.251  0.00  0.00    +0.000 C 
ATOM     19  C   UNL     1       6.176  -5.605  23.759  0.00  0.00    +0.000 C 
ATOM     20  N   UNL     1       5.066  -5.151  23.029  0.00  0.00    +0.000 N 
ATOM     21  H   UNL     1       5.001  -5.677  22.233  0.00  0.00    +0.000 HD
ENDBRANCH  11  18
ENDBRANCH   1  11
BRANCH   7  22
ATOM     22  C   UNL     1       7.914   0.709  23.371  0.00  0.00    +0.000 C 
BRANCH  22  23
ATOM     23  C   UNL     1       9.212   0.477  22.548  0.00  0.00    +0.000 C 
ATOM     24  C   UNL     1       9.074   1.638  21.475  0.00  0.00    +0.000 C 
ATOM     25  N   UNL     1       8.205   1.221  20.455  0.00  0.00    +0.000 N 
ATOM     26  H   UNL     1       7.387   1.604  20.519  0.00  0.00    +0.000 HD
ATOM     27  C   UNL     1       8.180  -0.141  20.319  0.00  0.00    +0.000 A 
ATOM     28  N   UNL     1       6.772  -0.459  20.137  0.00  0.00    +0.000 NA
ATOM     29  C   UNL     1       6.443  -1.433  20.887  0.00  0.00    +0.000 A 
ATOM     30  C   UNL     1       7.109  -2.128  21.956  0.00  0.00    +0.000 A 
ATOM     31  C   UNL     1       8.416  -1.919  22.387  0.00  0.00    +0.000 A 
ATOM     32  C   UNL     1       8.762  -0.722  21.540  0.00  0.00    +0.000 A 
ENDBRANCH  22  23
ENDBRANCH   7  22
TORSDOF 4
ENDMDL
MODEL 9
REMARK VINA RESULT:      -7.6      2.542      3.744
REMARK  Name = 
REMARK  4 active torsions:
REMARK  status: ('A' for Active; 'I' for Inactive)
REMARK    1  A    between atoms: C_10  and  C_11
REMARK    2  A    between atoms: C_11  and  C_14
REMARK    3  A    between atoms: C_24  and  C_26
REMARK    4  A    between atoms: C_26  and  C_29
REMARK                            x       y       z     vdW  Elec       q    Type
REMARK                         _______ _______ _______ _____ _____    ______ ____
ROOT
ATOM      1  C   UNL     1       9.207   1.349  23.713  0.00  0.00    +0.000 C 
ATOM      2  O   UNL     1      10.005   2.063  23.002  0.00  0.00    +0.000 OA
ATOM      3  N   UNL     1       8.730   0.243  23.093  0.00  0.00    +0.000 N 
ATOM      4  C   UNL     1       7.360   0.192  22.580  0.00  0.00    +0.000 C 
ATOM      5  C   UNL     1       6.935  -1.233  22.327  0.00  0.00    +0.000 C 
ATOM      6  N   UNL     1       8.009  -2.166  22.682  0.00  0.00    +0.000 N 
ATOM      7  C   UNL     1       7.715  -3.506  22.696  0.00  0.00    +0.000 C 
ATOM      8  O   UNL     1       7.099  -3.892  21.677  0.00  0.00    +0.000 OA
ATOM      9  C   UNL     1       9.317  -1.885  22.033  0.00  0.00    +0.000 C 
ATOM     10  C   UNL     1       9.711  -0.469  22.223  0.00  0.00    +0.000 C 
ENDROOT
BRANCH   1  11
ATOM     11  C   UNL     1       8.617   1.952  24.902  0.00  0.00    +0.000 C 
BRANCH  11  18
ATOM     12  C   UNL     1       4.018   3.074  23.479  0.00  0.00    +0.000 A 
ATOM     13  N   UNL     1       4.693   2.178  24.497  0.00  0.00    +0.000 NA
ATOM     14  C   UNL     1       5.817   2.637  24.707  0.00  0.00    +0.000 A 
ATOM     15  C   UNL     1       6.930   3.541  23.972  0.00  0.00    +0.000 A 
ATOM     16  C   UNL     1       6.350   4.501  23.159  0.00  0.00    +0.000 A 
ATOM     17  C   UNL     1       4.960   3.864  22.756  0.00  0.00    +0.000 A 
ATOM     18  C   UNL     1       8.107   3.350  24.861  0.00  0.00    +0.000 C 
ATOM     19  C   UNL     1       7.310   3.505  26.273  0.00  0.00    +0.000 C 
ATOM     20  N   UNL     1       6.046   2.927  26.067  0.00  0.00    +0.000 N 
ATOM     21  H   UNL     1       5.384   3.573  26.310  0.00  0.00    +0.000 HD
ENDBRANCH  11  18
ENDBRANCH   1  11
BRANCH   7  22
ATOM     22  C   UNL     1       7.729  -4.259  23.937  0.00  0.00    +0.000 C 
BRANCH  22  23
ATOM     23  C   UNL     1       8.548  -3.622  25.094  0.00  0.00    +0.000 C 
ATOM     24  C   UNL     1       9.514  -4.830  25.451  0.00  0.00    +0.000 C 
ATOM     25  N   UNL     1       8.829  -5.740  26.270  0.00  0.00    +0.000 N 
ATOM     26  H   UNL     1       8.571  -6.483  25.821  0.00  0.00    +0.000 HD
ATOM     27  C   UNL     1       7.830  -5.142  26.989  0.00  0.00    +0.000 A 
ATOM     28  N   UNL     1       6.717  -6.074  26.904  0.00  0.00    +0.000 NA
ATOM     29  C   UNL     1       5.646  -5.451  26.612  0.00  0.00    +0.000 A 
ATOM     30  C   UNL     1       5.367  -4.103  26.194  0.00  0.00    +0.000 A 
ATOM     31  C   UNL     1       6.290  -3.066  26.089  0.00  0.00    +0.000 A 
ATOM     32  C   UNL     1       7.554  -3.837  26.368  0.00  0.00    +0.000 A 
ENDBRANCH  22  23
ENDBRANCH   7  22
TORSDOF 4
ENDMDL
