MODEL 1
REMARK VINA RESULT:      -8.6      0.000      0.000
REMARK  Name = 
REMARK  7 active torsions:
REMARK  status: ('A' for Active; 'I' for Inactive)
REMARK    1  A    between atoms: C_3  and  S_4
REMARK    2  A    between atoms: S_4  and  N_7
REMARK    3  A    between atoms: C_15  and  C_17
REMARK    4  A    between atoms: C_30  and  C_31
REMARK    5  A    between atoms: C_31  and  C_34
REMARK    6  A    between atoms: C_34  and  N_37
REMARK    7  A    between atoms: C_39  and  C_41
REMARK                            x       y       z     vdW  Elec       q    Type
REMARK                         _______ _______ _______ _____ _____    ______ ____
ROOT
ATOM      1  C   UNL     1      10.619   0.151  24.536  0.00  0.00    +0.000 A 
ATOM      2  C   UNL     1       9.905  -1.144  23.749  0.00  0.00    +0.000 A 
ATOM      3  C   UNL     1       9.669  -0.786  22.377  0.00  0.00    +0.000 A 
ATOM      4  C   UNL     1       9.447   0.514  21.584  0.00  0.00    +0.000 A 
ATOM      5  C   UNL     1       7.975   0.776  21.169  0.00  0.00    +0.000 C 
ATOM      6  C   UNL     1       7.882   2.260  21.632  0.00  0.00    +0.000 C 
ATOM      7  N   UNL     1       9.064   2.684  22.206  0.00  0.00    +0.000 N 
ATOM      8  H   UNL     1       9.075   3.466  22.619  0.00  0.00    +0.000 HD
ATOM      9  C   UNL     1      10.024   1.764  22.416  0.00  0.00    +0.000 A 
ATOM     10  C   UNL     1      10.406   1.397  23.823  0.00  0.00    +0.000 A 
ENDROOT
BRANCH   2  11
ATOM     11  S   UNL     1       8.493  -1.421  24.806  0.00  0.00    +0.000 S 
ATOM     12  O   UNL     1       8.717  -0.574  25.974  0.00  0.00    +0.000 OA
ATOM     13  O   UNL     1       7.283  -1.023  24.094  0.00  0.00    +0.000 OA
BRANCH  11  14
ATOM     14  N   UNL     1       8.414  -2.950  25.229  0.00  0.00    +0.000 NA
ATOM     15  C   UNL     1       9.550  -3.736  24.969  0.00  0.00    +0.000 C 
ATOM     16  C   UNL     1       9.235  -5.234  25.043  0.00  0.00    +0.000 C 
ATOM     17  N   UNL     1       7.761  -5.318  25.263  0.00  0.00    +0.000 N 
ATOM     18  C   UNL     1       7.007  -4.935  24.181  0.00  0.00    +0.000 C 
ATOM     19  O   UNL     1       6.131  -4.088  24.293  0.00  0.00    +0.000 OA
ATOM     20  C   UNL     1       7.378  -4.709  26.557  0.00  0.00    +0.000 C 
ATOM     21  C   UNL     1       7.829  -3.245  26.479  0.00  0.00    +0.000 C 
BRANCH  18  22
ATOM     22  C   UNL     1       7.288  -5.511  22.840  0.00  0.00    +0.000 C 
ATOM     23 CL   UNL     1       5.734  -5.944  22.024  0.00  0.00    +0.000 Cl
ENDBRANCH  18  22
ENDBRANCH  11  14
ENDBRANCH   2  11
BRANCH   5  24
ATOM     24  C   UNL     1       7.572   0.652  19.774  0.00  0.00    +0.000 C 
BRANCH  24  25
ATOM     25  C   UNL     1       6.194   0.426  19.399  0.00  0.00    +0.000 C 
BRANCH  25  26
ATOM     26  N   UNL     1       5.570  -0.830  19.360  0.00  0.00    +0.000 N 
ATOM     27  H   UNL     1       4.644  -0.794  18.961  0.00  0.00    +0.000 HD
ATOM     28  C   UNL     1       5.819  -2.079  19.664  0.00  0.00    +0.000 C 
ATOM     29  O   UNL     1       5.316  -2.979  18.908  0.00  0.00    +0.000 OA
ATOM     30  C   UNL     1       5.917  -2.510  21.118  0.00  0.00    +0.000 C 
ENDBRANCH  25  26
ENDBRANCH  24  25
ENDBRANCH   5  24
TORSDOF 6
ENDMDL
MODEL 2
REMARK VINA RESULT:      -7.3      2.085      2.577
REMARK  Name = 
REMARK  7 active torsions:
REMARK  status: ('A' for Active; 'I' for Inactive)
REMARK    1  A    between atoms: C_3  and  S_4
REMARK    2  A    between atoms: S_4  and  N_7
REMARK    3  A    between atoms: C_15  and  C_17
REMARK    4  A    between atoms: C_30  and  C_31
REMARK    5  A    between atoms: C_31  and  C_34
REMARK    6  A    between atoms: C_34  and  N_37
REMARK    7  A    between atoms: C_39  and  C_41
REMARK                            x       y       z     vdW  Elec       q    Type
REMARK                         _______ _______ _______ _____ _____    ______ ____
ROOT
ATOM      1  C   UNL     1       9.707  -2.081  22.931  0.00  0.00    +0.000 A 
ATOM      2  C   UNL     1       8.043  -2.117  22.746  0.00  0.00    +0.000 A 
ATOM      3  C   UNL     1       7.645  -1.038  21.882  0.00  0.00    +0.000 A 
ATOM      4  C   UNL     1       8.200   0.343  21.489  0.00  0.00    +0.000 A 
ATOM      5  C   UNL     1       7.477   1.544  22.153  0.00  0.00    +0.000 C 
ATOM      6  C   UNL     1       8.742   2.318  22.632  0.00  0.00    +0.000 C 
ATOM      7  N   UNL     1       9.900   1.640  22.310  0.00  0.00    +0.000 N 
ATOM      8  H   UNL     1      10.664   1.926  22.651  0.00  0.00    +0.000 HD
ATOM      9  C   UNL     1       9.779   0.401  21.797  0.00  0.00    +0.000 A 
ATOM     10  C   UNL     1      10.259  -0.782  22.590  0.00  0.00    +0.000 A 
ENDROOT
BRANCH   2  11
ATOM     11  S   UNL     1       7.531  -2.065  24.454  0.00  0.00    +0.000 S 
ATOM     12  O   UNL     1       8.694  -2.509  25.217  0.00  0.00    +0.000 OA
ATOM     13  O   UNL     1       7.169  -0.694  24.800  0.00  0.00    +0.000 OA
BRANCH  11  14
ATOM     14  N   UNL     1       6.300  -3.041  24.690  0.00  0.00    +0.000 NA
ATOM     15  C   UNL     1       6.551  -4.202  25.443  0.00  0.00    +0.000 C 
ATOM     16  C   UNL     1       5.437  -5.240  25.276  0.00  0.00    +0.000 C 
ATOM     17  N   UNL     1       4.511  -4.668  24.254  0.00  0.00    +0.000 N 
ATOM     18  C   UNL     1       5.033  -4.623  22.984  0.00  0.00    +0.000 C 
ATOM     19  O   UNL     1       5.040  -3.581  22.343  0.00  0.00    +0.000 OA
ATOM     20  C   UNL     1       3.894  -3.412  24.736  0.00  0.00    +0.000 C 
ATOM     21  C   UNL     1       5.058  -2.451  25.007  0.00  0.00    +0.000 C 
BRANCH  18  22
ATOM     22  C   UNL     1       5.648  -5.840  22.392  0.00  0.00    +0.000 C 
ATOM     23 CL   UNL     1       7.193  -5.400  21.562  0.00  0.00    +0.000 Cl
ENDBRANCH  18  22
ENDBRANCH  11  14
ENDBRANCH   2  11
BRANCH   5  24
ATOM     24  C   UNL     1       6.618   2.414  21.360  0.00  0.00    +0.000 C 
BRANCH  24  25
ATOM     25  C   UNL     1       5.478   1.899  20.636  0.00  0.00    +0.000 C 
BRANCH  25  26
ATOM     26  N   UNL     1       5.468   1.606  19.263  0.00  0.00    +0.000 N 
ATOM     27  H   UNL     1       4.731   2.086  18.767  0.00  0.00    +0.000 HD
ATOM     28  C   UNL     1       6.140   0.905  18.386  0.00  0.00    +0.000 C 
ATOM     29  O   UNL     1       6.251   1.390  17.208  0.00  0.00    +0.000 OA
ATOM     30  C   UNL     1       6.074  -0.613  18.402  0.00  0.00    +0.000 C 
ENDBRANCH  25  26
ENDBRANCH  24  25
ENDBRANCH   5  24
TORSDOF 6
ENDMDL
MODEL 3
REMARK VINA RESULT:      -7.3      2.287      2.926
REMARK  Name = 
REMARK  7 active torsions:
REMARK  status: ('A' for Active; 'I' for Inactive)
REMARK    1  A    between atoms: C_3  and  S_4
REMARK    2  A    between atoms: S_4  and  N_7
REMARK    3  A    between atoms: C_15  and  C_17
REMARK    4  A    between atoms: C_30  and  C_31
REMARK    5  A    between atoms: C_31  and  C_34
REMARK    6  A    between atoms: C_34  and  N_37
REMARK    7  A    between atoms: C_39  and  C_41
REMARK                            x       y       z     vdW  Elec       q    Type
REMARK                         _______ _______ _______ _____ _____    ______ ____
ROOT
ATOM      1  C   UNL     1      10.225  -1.212  22.533  0.00  0.00    +0.000 A 
ATOM      2  C   UNL     1       8.676  -1.632  22.051  0.00  0.00    +0.000 A 
ATOM      3  C   UNL     1       8.091  -0.527  21.342  0.00  0.00    +0.000 A 
ATOM      4  C   UNL     1       8.267   1.002  21.313  0.00  0.00    +0.000 A 
ATOM      5  C   UNL     1       7.153   1.796  22.046  0.00  0.00    +0.000 C 
ATOM      6  C   UNL     1       8.073   2.741  22.876  0.00  0.00    +0.000 C 
ATOM      7  N   UNL     1       9.408   2.474  22.647  0.00  0.00    +0.000 N 
ATOM      8  H   UNL     1      10.010   2.863  23.165  0.00  0.00    +0.000 HD
ATOM      9  C   UNL     1       9.712   1.394  21.903  0.00  0.00    +0.000 A 
ATOM     10  C   UNL     1      10.415   0.227  22.539  0.00  0.00    +0.000 A 
ENDROOT
BRANCH   2  11
ATOM     11  S   UNL     1       7.969  -2.100  23.621  0.00  0.00    +0.000 S 
ATOM     12  O   UNL     1       9.100  -2.530  24.439  0.00  0.00    +0.000 OA
ATOM     13  O   UNL     1       7.309  -0.938  24.209  0.00  0.00    +0.000 OA
BRANCH  11  14
ATOM     14  N   UNL     1       6.934  -3.289  23.426  0.00  0.00    +0.000 NA
ATOM     15  C   UNL     1       5.573  -2.941  23.386  0.00  0.00    +0.000 C 
ATOM     16  C   UNL     1       4.667  -4.159  23.592  0.00  0.00    +0.000 C 
ATOM     17  N   UNL     1       5.591  -5.296  23.879  0.00  0.00    +0.000 N 
ATOM     18  C   UNL     1       6.220  -5.216  25.097  0.00  0.00    +0.000 C 
ATOM     19  O   UNL     1       7.438  -5.299  25.183  0.00  0.00    +0.000 OA
ATOM     20  C   UNL     1       6.471  -5.574  22.723  0.00  0.00    +0.000 C 
ATOM     21  C   UNL     1       7.264  -4.283  22.480  0.00  0.00    +0.000 C 
BRANCH  18  22
ATOM     22  C   UNL     1       5.425  -4.971  26.329  0.00  0.00    +0.000 C 
ATOM     23 CL   UNL     1       5.981  -3.444  27.121  0.00  0.00    +0.000 Cl
ENDBRANCH  18  22
ENDBRANCH  11  14
ENDBRANCH   2  11
BRANCH   5  24
ATOM     24  C   UNL     1       6.182   2.570  21.285  0.00  0.00    +0.000 C 
BRANCH  24  25
ATOM     25  C   UNL     1       5.165   1.932  20.479  0.00  0.00    +0.000 C 
BRANCH  25  26
ATOM     26  N   UNL     1       5.297   1.631  19.115  0.00  0.00    +0.000 N 
ATOM     27  H   UNL     1       4.607   2.096  18.544  0.00  0.00    +0.000 HD
ATOM     28  C   UNL     1       6.066   0.937  18.315  0.00  0.00    +0.000 C 
ATOM     29  O   UNL     1       6.286   1.417  17.150  0.00  0.00    +0.000 OA
ATOM     30  C   UNL     1       6.022  -0.582  18.334  0.00  0.00    +0.000 C 
ENDBRANCH  25  26
ENDBRANCH  24  25
ENDBRANCH   5  24
TORSDOF 6
ENDMDL
MODEL 4
REMARK VINA RESULT:      -7.3      2.557      6.073
REMARK  Name = 
REMARK  7 active torsions:
REMARK  status: ('A' for Active; 'I' for Inactive)
REMARK    1  A    between atoms: C_3  and  S_4
REMARK    2  A    between atoms: S_4  and  N_7
REMARK    3  A    between atoms: C_15  and  C_17
REMARK    4  A    between atoms: C_30  and  C_31
REMARK    5  A    between atoms: C_31  and  C_34
REMARK    6  A    between atoms: C_34  and  N_37
REMARK    7  A    between atoms: C_39  and  C_41
REMARK                            x       y       z     vdW  Elec       q    Type
REMARK                         _______ _______ _______ _____ _____    ______ ____
ROOT
ATOM      1  C   UNL     1       7.652  -1.699  26.696  0.00  0.00    +0.000 A 
ATOM      2  C   UNL     1       7.420  -1.021  25.182  0.00  0.00    +0.000 A 
ATOM      3  C   UNL     1       6.792  -1.992  24.327  0.00  0.00    +0.000 A 
ATOM      4  C   UNL     1       6.711  -3.526  24.248  0.00  0.00    +0.000 A 
ATOM      5  C   UNL     1       7.593  -4.165  23.142  0.00  0.00    +0.000 C 
ATOM      6  C   UNL     1       8.256  -5.275  24.010  0.00  0.00    +0.000 C 
ATOM      7  N   UNL     1       7.830  -5.212  25.322  0.00  0.00    +0.000 N 
ATOM      8  H   UNL     1       8.243  -5.711  25.923  0.00  0.00    +0.000 HD
ATOM      9  C   UNL     1       7.066  -4.164  25.682  0.00  0.00    +0.000 A 
ATOM     10  C   UNL     1       7.606  -3.149  26.651  0.00  0.00    +0.000 A 
ENDROOT
BRANCH   2  11
ATOM     11  S   UNL     1       9.088  -0.513  24.801  0.00  0.00    +0.000 S 
ATOM     12  O   UNL     1       9.672  -0.125  26.082  0.00  0.00    +0.000 OA
ATOM     13  O   UNL     1       9.806  -1.641  24.217  0.00  0.00    +0.000 OA
BRANCH  11  14
ATOM     14  N   UNL     1       9.071   0.717  23.796  0.00  0.00    +0.000 NA
ATOM     15  C   UNL     1       7.986   1.604  23.902  0.00  0.00    +0.000 C 
ATOM     16  C   UNL     1       7.859   2.499  22.664  0.00  0.00    +0.000 C 
ATOM     17  N   UNL     1       8.904   2.014  21.716  0.00  0.00    +0.000 N 
ATOM     18  C   UNL     1       8.649   0.775  21.182  0.00  0.00    +0.000 C 
ATOM     19  O   UNL     1       9.480  -0.121  21.244  0.00  0.00    +0.000 OA
ATOM     20  C   UNL     1      10.262   2.201  22.275  0.00  0.00    +0.000 C 
ATOM     21  C   UNL     1      10.294   1.387  23.575  0.00  0.00    +0.000 C 
BRANCH  18  22
ATOM     22  C   UNL     1       7.326   0.491  20.566  0.00  0.00    +0.000 C 
ATOM     23 CL   UNL     1       7.539   0.108  18.811  0.00  0.00    +0.000 Cl
ENDBRANCH  18  22
ENDBRANCH  11  14
ENDBRANCH   2  11
BRANCH   5  24
ATOM     24  C   UNL     1       6.978  -4.746  21.956  0.00  0.00    +0.000 C 
BRANCH  24  25
ATOM     25  C   UNL     1       6.609  -6.143  21.898  0.00  0.00    +0.000 C 
BRANCH  25  26
ATOM     26  N   UNL     1       5.547  -6.720  22.610  0.00  0.00    +0.000 N 
ATOM     27  H   UNL     1       5.361  -7.672  22.331  0.00  0.00    +0.000 HD
ATOM     28  C   UNL     1       4.705  -6.420  23.566  0.00  0.00    +0.000 C 
ATOM     29  O   UNL     1       4.362  -7.360  24.363  0.00  0.00    +0.000 OA
ATOM     30  C   UNL     1       3.595  -5.411  23.324  0.00  0.00    +0.000 C 
ENDBRANCH  25  26
ENDBRANCH  24  25
ENDBRANCH   5  24
TORSDOF 6
ENDMDL
MODEL 5
REMARK VINA RESULT:      -7.2      2.349      4.146
REMARK  Name = 
REMARK  7 active torsions:
REMARK  status: ('A' for Active; 'I' for Inactive)
REMARK    1  A    between atoms: C_3  and  S_4
REMARK    2  A    between atoms: S_4  and  N_7
REMARK    3  A    between atoms: C_15  and  C_17
REMARK    4  A    between atoms: C_30  and  C_31
REMARK    5  A    between atoms: C_31  and  C_34
REMARK    6  A    between atoms: C_34  and  N_37
REMARK    7  A    between atoms: C_39  and  C_41
REMARK                            x       y       z     vdW  Elec       q    Type
REMARK                         _______ _______ _______ _____ _____    ______ ____
ROOT
ATOM      1  C   UNL     1       8.816  -1.219  21.592  0.00  0.00    +0.000 A 
ATOM      2  C   UNL     1       8.104  -1.175  23.107  0.00  0.00    +0.000 A 
ATOM      3  C   UNL     1       7.775   0.187  23.430  0.00  0.00    +0.000 A 
ATOM      4  C   UNL     1       8.286   1.584  23.035  0.00  0.00    +0.000 A 
ATOM      5  C   UNL     1       9.160   2.282  24.111  0.00  0.00    +0.000 C 
ATOM      6  C   UNL     1      10.330   2.724  23.183  0.00  0.00    +0.000 C 
ATOM      7  N   UNL     1      10.126   2.312  21.881  0.00  0.00    +0.000 N 
ATOM      8  H   UNL     1      10.790   2.396  21.303  0.00  0.00    +0.000 HD
ATOM      9  C   UNL     1       9.082   1.497  21.639  0.00  0.00    +0.000 A 
ATOM     10  C   UNL     1       9.330   0.081  21.201  0.00  0.00    +0.000 A 
ENDROOT
BRANCH   2  11
ATOM     11  S   UNL     1       9.359  -1.993  24.075  0.00  0.00    +0.000 S 
ATOM     12  O   UNL     1      10.258  -2.605  23.099  0.00  0.00    +0.000 OA
ATOM     13  O   UNL     1      10.060  -0.999  24.882  0.00  0.00    +0.000 OA
BRANCH  11  14
ATOM     14  N   UNL     1       8.703  -3.102  25.004  0.00  0.00    +0.000 NA
ATOM     15  C   UNL     1       9.357  -4.344  25.063  0.00  0.00    +0.000 C 
ATOM     16  C   UNL     1       8.455  -5.436  25.648  0.00  0.00    +0.000 C 
ATOM     17  N   UNL     1       7.126  -4.786  25.849  0.00  0.00    +0.000 N 
ATOM     18  C   UNL     1       6.465  -4.484  24.684  0.00  0.00    +0.000 C 
ATOM     19  O   UNL     1       6.050  -3.353  24.472  0.00  0.00    +0.000 OA
ATOM     20  C   UNL     1       7.212  -3.689  26.838  0.00  0.00    +0.000 C 
ATOM     21  C   UNL     1       8.221  -2.686  26.264  0.00  0.00    +0.000 C 
BRANCH  18  22
ATOM     22  C   UNL     1       6.295  -5.524  23.636  0.00  0.00    +0.000 C 
ATOM     23 CL   UNL     1       7.245  -5.070  22.165  0.00  0.00    +0.000 Cl
ENDBRANCH  18  22
ENDBRANCH  11  14
ENDBRANCH   2  11
BRANCH   5  24
ATOM     24  C   UNL     1       8.639   3.423  24.852  0.00  0.00    +0.000 C 
BRANCH  24  25
ATOM     25  C   UNL     1       7.584   3.276  25.830  0.00  0.00    +0.000 C 
BRANCH  25  26
ATOM     26  N   UNL     1       7.544   2.284  26.821  0.00  0.00    +0.000 N 
ATOM     27  H   UNL     1       8.454   2.080  27.206  0.00  0.00    +0.000 HD
ATOM     28  C   UNL     1       6.676   1.527  27.443  0.00  0.00    +0.000 C 
ATOM     29  O   UNL     1       6.904   1.261  28.673  0.00  0.00    +0.000 OA
ATOM     30  C   UNL     1       5.978   0.394  26.709  0.00  0.00    +0.000 C 
ENDBRANCH  25  26
ENDBRANCH  24  25
ENDBRANCH   5  24
TORSDOF 6
ENDMDL
MODEL 6
REMARK VINA RESULT:      -7.2      2.387      3.258
REMARK  Name = 
REMARK  7 active torsions:
REMARK  status: ('A' for Active; 'I' for Inactive)
REMARK    1  A    between atoms: C_3  and  S_4
REMARK    2  A    between atoms: S_4  and  N_7
REMARK    3  A    between atoms: C_15  and  C_17
REMARK    4  A    between atoms: C_30  and  C_31
REMARK    5  A    between atoms: C_31  and  C_34
REMARK    6  A    between atoms: C_34  and  N_37
REMARK    7  A    between atoms: C_39  and  C_41
REMARK                            x       y       z     vdW  Elec       q    Type
REMARK                         _______ _______ _______ _____ _____    ______ ____
ROOT
ATOM      1  C   UNL     1       8.427  -2.582  26.119  0.00  0.00    +0.000 A 
ATOM      2  C   UNL     1       7.621  -3.054  24.728  0.00  0.00    +0.000 A 
ATOM      3  C   UNL     1       8.031  -2.208  23.640  0.00  0.00    +0.000 A 
ATOM      4  C   UNL     1       8.590  -0.783  23.481  0.00  0.00    +0.000 A 
ATOM      5  C   UNL     1       7.561   0.263  22.977  0.00  0.00    +0.000 C 
ATOM      6  C   UNL     1       7.854   1.376  24.027  0.00  0.00    +0.000 C 
ATOM      7  N   UNL     1       8.824   0.979  24.926  0.00  0.00    +0.000 N 
ATOM      8  H   UNL     1       8.969   1.482  25.638  0.00  0.00    +0.000 HD
ATOM      9  C   UNL     1       9.245  -0.298  24.869  0.00  0.00    +0.000 A 
ATOM     10  C   UNL     1       8.946  -1.231  26.009  0.00  0.00    +0.000 A 
ENDROOT
BRANCH   2  11
ATOM     11  S   UNL     1       5.930  -2.949  25.289  0.00  0.00    +0.000 S 
ATOM     12  O   UNL     1       6.004  -3.021  26.746  0.00  0.00    +0.000 OA
ATOM     13  O   UNL     1       5.364  -1.676  24.854  0.00  0.00    +0.000 OA
BRANCH  11  14
ATOM     14  N   UNL     1       5.083  -4.161  24.710  0.00  0.00    +0.000 NA
ATOM     15  C   UNL     1       5.336  -5.429  25.263  0.00  0.00    +0.000 C 
ATOM     16  C   UNL     1       4.776  -6.555  24.387  0.00  0.00    +0.000 C 
ATOM     17  N   UNL     1       4.242  -5.879  23.167  0.00  0.00    +0.000 N 
ATOM     18  C   UNL     1       5.209  -5.352  22.347  0.00  0.00    +0.000 C 
ATOM     19  O   UNL     1       5.165  -4.181  21.994  0.00  0.00    +0.000 OA
ATOM     20  C   UNL     1       3.126  -4.969  23.506  0.00  0.00    +0.000 C 
ATOM     21  C   UNL     1       3.707  -3.938  24.482  0.00  0.00    +0.000 C 
BRANCH  18  22
ATOM     22  C   UNL     1       6.359  -6.192  21.920  0.00  0.00    +0.000 C 
ATOM     23 CL   UNL     1       7.847  -5.692  22.817  0.00  0.00    +0.000 Cl
ENDBRANCH  18  22
ENDBRANCH  11  14
ENDBRANCH   2  11
BRANCH   5  24
ATOM     24  C   UNL     1       7.661   0.799  21.626  0.00  0.00    +0.000 C 
BRANCH  24  25
ATOM     25  C   UNL     1       7.946  -0.050  20.491  0.00  0.00    +0.000 C 
BRANCH  25  26
ATOM     26  N   UNL     1       7.320   0.052  19.239  0.00  0.00    +0.000 N 
ATOM     27  H   UNL     1       7.980   0.122  18.478  0.00  0.00    +0.000 HD
ATOM     28  C   UNL     1       6.119   0.063  18.720  0.00  0.00    +0.000 C 
ATOM     29  O   UNL     1       5.969  -0.483  17.574  0.00  0.00    +0.000 OA
ATOM     30  C   UNL     1       5.200   1.254  18.937  0.00  0.00    +0.000 C 
ENDBRANCH  25  26
ENDBRANCH  24  25
ENDBRANCH   5  24
TORSDOF 6
ENDMDL
MODEL 7
REMARK VINA RESULT:      -7.2      2.794      4.004
REMARK  Name = 
REMARK  7 active torsions:
REMARK  status: ('A' for Active; 'I' for Inactive)
REMARK    1  A    between atoms: C_3  and  S_4
REMARK    2  A    between atoms: S_4  and  N_7
REMARK    3  A    between atoms: C_15  and  C_17
REMARK    4  A    between atoms: C_30  and  C_31
REMARK    5  A    between atoms: C_31  and  C_34
REMARK    6  A    between atoms: C_34  and  N_37
REMARK    7  A    between atoms: C_39  and  C_41
REMARK                            x       y       z     vdW  Elec       q    Type
REMARK                         _______ _______ _______ _____ _____    ______ ____
ROOT
ATOM      1  C   UNL     1       8.759  -4.250  24.437  0.00  0.00    +0.000 A 
ATOM      2  C   UNL     1       7.375  -3.980  23.534  0.00  0.00    +0.000 A 
ATOM      3  C   UNL     1       7.656  -2.987  22.532  0.00  0.00    +0.000 A 
ATOM      4  C   UNL     1       8.646  -1.821  22.362  0.00  0.00    +0.000 A 
ATOM      5  C   UNL     1       8.030  -0.413  22.576  0.00  0.00    +0.000 C 
ATOM      6  C   UNL     1       9.123   0.157  23.529  0.00  0.00    +0.000 C 
ATOM      7  N   UNL     1      10.103  -0.780  23.789  0.00  0.00    +0.000 N 
ATOM      8  H   UNL     1      10.697  -0.604  24.420  0.00  0.00    +0.000 HD
ATOM      9  C   UNL     1       9.909  -2.033  23.336  0.00  0.00    +0.000 A 
ATOM     10  C   UNL     1       9.704  -3.154  24.316  0.00  0.00    +0.000 A 
ENDROOT
BRANCH   2  11
ATOM     11  S   UNL     1       6.221  -3.569  24.831  0.00  0.00    +0.000 S 
ATOM     12  O   UNL     1       7.027  -3.480  26.046  0.00  0.00    +0.000 OA
ATOM     13  O   UNL     1       5.596  -2.287  24.521  0.00  0.00    +0.000 OA
BRANCH  11  14
ATOM     14  N   UNL     1       5.121  -4.706  24.970  0.00  0.00    +0.000 NA
ATOM     15  C   UNL     1       3.800  -4.283  25.197  0.00  0.00    +0.000 C 
ATOM     16  C   UNL     1       2.913  -5.426  25.700  0.00  0.00    +0.000 C 
ATOM     17  N   UNL     1       3.831  -6.590  25.877  0.00  0.00    +0.000 N 
ATOM     18  C   UNL     1       4.717  -6.455  26.918  0.00  0.00    +0.000 C 
ATOM     19  O   UNL     1       5.919  -6.604  26.744  0.00  0.00    +0.000 OA
ATOM     20  C   UNL     1       4.421  -7.007  24.586  0.00  0.00    +0.000 C 
ATOM     21  C   UNL     1       5.192  -5.788  24.065  0.00  0.00    +0.000 C 
BRANCH  18  22
ATOM     22  C   UNL     1       4.225  -6.071  28.266  0.00  0.00    +0.000 C 
ATOM     23 CL   UNL     1       4.899  -4.458  28.726  0.00  0.00    +0.000 Cl
ENDBRANCH  18  22
ENDBRANCH  11  14
ENDBRANCH   2  11
BRANCH   5  24
ATOM     24  C   UNL     1       7.828   0.480  21.443  0.00  0.00    +0.000 C 
BRANCH  24  25
ATOM     25  C   UNL     1       8.238   0.116  20.105  0.00  0.00    +0.000 C 
BRANCH  25  26
ATOM     26  N   UNL     1       7.438   0.245  18.960  0.00  0.00    +0.000 N 
ATOM     27  H   UNL     1       7.979   0.396  18.121  0.00  0.00    +0.000 HD
ATOM     28  C   UNL     1       6.176   0.211  18.613  0.00  0.00    +0.000 C 
ATOM     29  O   UNL     1       5.896  -0.282  17.467  0.00  0.00    +0.000 OA
ATOM     30  C   UNL     1       5.235   1.330  19.026  0.00  0.00    +0.000 C 
ENDBRANCH  25  26
ENDBRANCH  24  25
ENDBRANCH   5  24
TORSDOF 6
ENDMDL
MODEL 8
REMARK VINA RESULT:      -7.0      2.354      3.847
REMARK  Name = 
REMARK  7 active torsions:
REMARK  status: ('A' for Active; 'I' for Inactive)
REMARK    1  A    between atoms: C_3  and  S_4
REMARK    2  A    between atoms: S_4  and  N_7
REMARK    3  A    between atoms: C_15  and  C_17
REMARK    4  A    between atoms: C_30  and  C_31
REMARK    5  A    between atoms: C_31  and  C_34
REMARK    6  A    between atoms: C_34  and  N_37
REMARK    7  A    between atoms: C_39  and  C_41
REMARK                            x       y       z     vdW  Elec       q    Type
REMARK                         _______ _______ _______ _____ _____    ______ ____
ROOT
ATOM      1  C   UNL     1       8.851  -1.158  21.565  0.00  0.00    +0.000 A 
ATOM      2  C   UNL     1       8.131  -1.121  23.077  0.00  0.00    +0.000 A 
ATOM      3  C   UNL     1       7.806   0.240  23.408  0.00  0.00    +0.000 A 
ATOM      4  C   UNL     1       8.323   1.637  23.025  0.00  0.00    +0.000 A 
ATOM      5  C   UNL     1       9.194   2.325  24.110  0.00  0.00    +0.000 C 
ATOM      6  C   UNL     1      10.371   2.769  23.191  0.00  0.00    +0.000 C 
ATOM      7  N   UNL     1      10.172   2.366  21.886  0.00  0.00    +0.000 N 
ATOM      8  H   UNL     1      10.839   2.452  21.312  0.00  0.00    +0.000 HD
ATOM      9  C   UNL     1       9.126   1.557  21.633  0.00  0.00    +0.000 A 
ATOM     10  C   UNL     1       9.372   0.143  21.186  0.00  0.00    +0.000 A 
ENDROOT
BRANCH   2  11
ATOM     11  S   UNL     1       9.379  -1.951  24.046  0.00  0.00    +0.000 S 
ATOM     12  O   UNL     1      10.273  -2.569  23.070  0.00  0.00    +0.000 OA
ATOM     13  O   UNL     1      10.086  -0.964  24.854  0.00  0.00    +0.000 OA
BRANCH  11  14
ATOM     14  N   UNL     1       8.712  -3.055  24.972  0.00  0.00    +0.000 NA
ATOM     15  C   UNL     1       9.378  -4.290  25.063  0.00  0.00    +0.000 C 
ATOM     16  C   UNL     1       8.474  -5.384  25.640  0.00  0.00    +0.000 C 
ATOM     17  N   UNL     1       7.134  -4.747  25.801  0.00  0.00    +0.000 N 
ATOM     18  C   UNL     1       6.498  -4.466  24.616  0.00  0.00    +0.000 C 
ATOM     19  O   UNL     1       6.075  -3.342  24.380  0.00  0.00    +0.000 OA
ATOM     20  C   UNL     1       7.184  -3.637  26.778  0.00  0.00    +0.000 C 
ATOM     21  C   UNL     1       8.196  -2.630  26.216  0.00  0.00    +0.000 C 
BRANCH  18  22
ATOM     22  C   UNL     1       6.365  -5.521  23.578  0.00  0.00    +0.000 C 
ATOM     23 CL   UNL     1       7.244  -5.018  22.080  0.00  0.00    +0.000 Cl
ENDBRANCH  18  22
ENDBRANCH  11  14
ENDBRANCH   2  11
BRANCH   5  24
ATOM     24  C   UNL     1       8.674   3.462  24.857  0.00  0.00    +0.000 C 
BRANCH  24  25
ATOM     25  C   UNL     1       7.271   3.576  25.189  0.00  0.00    +0.000 C 
BRANCH  25  26
ATOM     26  N   UNL     1       6.338   4.338  24.468  0.00  0.00    +0.000 N 
ATOM     27  H   UNL     1       5.825   4.980  25.053  0.00  0.00    +0.000 HD
ATOM     28  C   UNL     1       5.921   4.505  23.240  0.00  0.00    +0.000 C 
ATOM     29  O   UNL     1       5.572   5.686  22.894  0.00  0.00    +0.000 OA
ATOM     30  C   UNL     1       5.113   3.420  22.548  0.00  0.00    +0.000 C 
ENDBRANCH  25  26
ENDBRANCH  24  25
ENDBRANCH   5  24
TORSDOF 6
ENDMDL
MODEL 9
REMARK VINA RESULT:      -6.7      3.145      7.407
REMARK  Name = 
REMARK  7 active torsions:
REMARK  status: ('A' for Active; 'I' for Inactive)
REMARK    1  A    between atoms: C_3  and  S_4
REMARK    2  A    between atoms: S_4  and  N_7
REMARK    3  A    between atoms: C_15  and  C_17
REMARK    4  A    between atoms: C_30  and  C_31
REMARK    5  A    between atoms: C_31  and  C_34
REMARK    6  A    between atoms: C_34  and  N_37
REMARK    7  A    between atoms: C_39  and  C_41
REMARK                            x       y       z     vdW  Elec       q    Type
REMARK                         _______ _______ _______ _____ _____    ______ ____
ROOT
ATOM      1  C   UNL     1       7.161  -4.909  21.992  0.00  0.00    +0.000 A 
ATOM      2  C   UNL     1       7.210  -4.049  23.429  0.00  0.00    +0.000 A 
ATOM      3  C   UNL     1       6.376  -4.709  24.398  0.00  0.00    +0.000 A 
ATOM      4  C   UNL     1       5.151  -5.639  24.369  0.00  0.00    +0.000 A 
ATOM      5  C   UNL     1       3.807  -4.951  24.725  0.00  0.00    +0.000 C 
ATOM      6  C   UNL     1       2.962  -5.503  23.538  0.00  0.00    +0.000 C 
ATOM      7  N   UNL     1       3.722  -6.299  22.705  0.00  0.00    +0.000 N 
ATOM      8  H   UNL     1       3.374  -6.554  21.934  0.00  0.00    +0.000 HD
ATOM      9  C   UNL     1       5.047  -6.358  22.933  0.00  0.00    +0.000 A 
ATOM     10  C   UNL     1       6.001  -5.779  21.925  0.00  0.00    +0.000 A 
ENDROOT
BRANCH   2  11
ATOM     11  S   UNL     1       6.718  -2.434  22.851  0.00  0.00    +0.000 S 
ATOM     12  O   UNL     1       5.884  -2.684  21.678  0.00  0.00    +0.000 OA
ATOM     13  O   UNL     1       5.957  -1.765  23.902  0.00  0.00    +0.000 OA
BRANCH  11  14
ATOM     14  N   UNL     1       7.996  -1.577  22.458  0.00  0.00    +0.000 NA
ATOM     15  C   UNL     1       9.249  -2.174  22.684  0.00  0.00    +0.000 C 
ATOM     16  C   UNL     1      10.384  -1.145  22.650  0.00  0.00    +0.000 C 
ATOM     17  N   UNL     1       9.714   0.179  22.492  0.00  0.00    +0.000 N 
ATOM     18  C   UNL     1       9.010   0.589  23.597  0.00  0.00    +0.000 C 
ATOM     19  O   UNL     1       7.836   0.924  23.507  0.00  0.00    +0.000 OA
ATOM     20  C   UNL     1       8.987   0.261  21.205  0.00  0.00    +0.000 C 
ATOM     21  C   UNL     1       7.949  -0.868  21.239  0.00  0.00    +0.000 C 
BRANCH  18  22
ATOM     22  C   UNL     1       9.657   0.577  24.935  0.00  0.00    +0.000 C 
ATOM     23 CL   UNL     1       8.860  -0.658  25.988  0.00  0.00    +0.000 Cl
ENDBRANCH  18  22
ENDBRANCH  11  14
ENDBRANCH   2  11
BRANCH   5  24
ATOM     24  C   UNL     1       3.149  -5.236  25.994  0.00  0.00    +0.000 C 
BRANCH  24  25
ATOM     25  C   UNL     1       3.258  -6.529  26.632  0.00  0.00    +0.000 C 
BRANCH  25  26
ATOM     26  N   UNL     1       4.130  -6.828  27.690  0.00  0.00    +0.000 N 
ATOM     27  H   UNL     1       3.671  -7.303  28.452  0.00  0.00    +0.000 HD
ATOM     28  C   UNL     1       5.394  -6.706  28.008  0.00  0.00    +0.000 C 
ATOM     29  O   UNL     1       5.917  -7.641  28.705  0.00  0.00    +0.000 OA
ATOM     30  C   UNL     1       5.980  -5.337  28.312  0.00  0.00    +0.000 C 
ENDBRANCH  25  26
ENDBRANCH  24  25
ENDBRANCH   5  24
TORSDOF 6
ENDMDL
