MODEL 1
REMARK VINA RESULT:      -8.6      0.000      0.000
REMARK  Name = 
REMARK  7 active torsions:
REMARK  status: ('A' for Active; 'I' for Inactive)
REMARK    1  A    between atoms: C_7  and  S_8
REMARK    2  A    between atoms: S_8  and  N_11
REMARK    3  A    between atoms: C_19  and  C_21
REMARK    4  A    between atoms: C_21  and  C_24
REMARK    5  A    between atoms: C_24  and  C_26
REMARK    6  A    between atoms: C_31  and  N_32
REMARK    7  A    between atoms: C_34  and  C_36
REMARK                            x       y       z     vdW  Elec       q    Type
REMARK                         _______ _______ _______ _____ _____    ______ ____
ROOT
ATOM      1  N   UNL     1       6.786  -5.016  27.273  0.00  0.00    +0.000 NA
ATOM      2  C   UNL     1       8.104  -5.271  26.943  0.00  0.00    +0.000 C 
ATOM      3  C   UNL     1       8.309  -5.259  25.429  0.00  0.00    +0.000 C 
ATOM      4  N   UNL     1       7.841  -3.946  24.901  0.00  0.00    +0.000 N 
ATOM      5  C   UNL     1       8.027  -3.838  23.534  0.00  0.00    +0.000 C 
ATOM      6  O   UNL     1       7.476  -4.721  22.861  0.00  0.00    +0.000 OA
ATOM      7  C   UNL     1       6.499  -3.553  25.335  0.00  0.00    +0.000 C 
ATOM      8  C   UNL     1       6.334  -3.761  26.830  0.00  0.00    +0.000 C 
ENDROOT
BRANCH   1   9
ATOM      9  S   UNL     1       5.970  -5.757  28.351  0.00  0.00    +0.000 S 
ATOM     10  O   UNL     1       5.703  -4.877  29.509  0.00  0.00    +0.000 OA
ATOM     11  O   UNL     1       6.657  -6.977  28.796  0.00  0.00    +0.000 OA
BRANCH   9  15
ATOM     12  C   UNL     1       2.827  -5.182  25.615  0.00  0.00    +0.000 A 
ATOM     13  C   UNL     1       3.861  -6.227  25.428  0.00  0.00    +0.000 A 
ATOM     14  C   UNL     1       4.679  -6.919  26.450  0.00  0.00    +0.000 A 
ATOM     15  C   UNL     1       4.327  -6.359  27.856  0.00  0.00    +0.000 A 
ATOM     16  C   UNL     1       3.221  -5.531  28.240  0.00  0.00    +0.000 A 
ATOM     17  F   UNL     1       2.335  -6.185  29.056  0.00  0.00    +0.000 F 
ATOM     18  C   UNL     1       2.358  -5.069  27.028  0.00  0.00    +0.000 A 
ENDBRANCH   9  15
ENDBRANCH   1   9
BRANCH   5  19
ATOM     19  C   UNL     1       8.477  -2.600  22.902  0.00  0.00    +0.000 C 
BRANCH  19  20
ATOM     20  C   UNL     1       9.772  -2.014  23.518  0.00  0.00    +0.000 C 
ATOM     21  O   UNL     1      10.736  -1.989  22.739  0.00  0.00    +0.000 OA
BRANCH  20  22
ATOM     22  C   UNL     1       9.423  -0.802  24.229  0.00  0.00    +0.000 A 
ATOM     23  C   UNL     1      10.390   0.160  23.632  0.00  0.00    +0.000 A 
ATOM     24  C   UNL     1      10.103   1.396  22.918  0.00  0.00    +0.000 A 
ATOM     25  C   UNL     1       8.582   1.517  22.632  0.00  0.00    +0.000 A 
ATOM     26  C   UNL     1       7.510   0.848  23.399  0.00  0.00    +0.000 A 
ATOM     27  C   UNL     1       8.025  -0.341  24.249  0.00  0.00    +0.000 A 
BRANCH  25  28
ATOM     28  N   UNL     1       8.536   1.621  21.205  0.00  0.00    +0.000 N 
ATOM     29  H   UNL     1       9.421   1.837  20.917  0.00  0.00    +0.000 HD
ATOM     30  C   UNL     1       8.190   0.405  20.709  0.00  0.00    +0.000 C 
ATOM     31  O   UNL     1       9.063  -0.408  20.466  0.00  0.00    +0.000 OA
BRANCH  30  32
ATOM     32  C   UNL     1       6.831   0.342  20.155  0.00  0.00    +0.000 C 
ATOM     33  O   UNL     1       6.198   1.630  20.216  0.00  0.00    +0.000 OA
ATOM     34  C   UNL     1       5.094   1.579  19.333  0.00  0.00    +0.000 C 
ATOM     35  C   UNL     1       5.427   0.559  18.241  0.00  0.00    +0.000 C 
ATOM     36  C   UNL     1       6.819  -0.004  18.674  0.00  0.00    +0.000 C 
ENDBRANCH  30  32
ENDBRANCH  25  28
ENDBRANCH  20  22
ENDBRANCH  19  20
ENDBRANCH   5  19
TORSDOF 7
ENDMDL
MODEL 2
REMARK VINA RESULT:      -8.0      2.495      3.433
REMARK  Name = 
REMARK  7 active torsions:
REMARK  status: ('A' for Active; 'I' for Inactive)
REMARK    1  A    between atoms: C_7  and  S_8
REMARK    2  A    between atoms: S_8  and  N_11
REMARK    3  A    between atoms: C_19  and  C_21
REMARK    4  A    between atoms: C_21  and  C_24
REMARK    5  A    between atoms: C_24  and  C_26
REMARK    6  A    between atoms: C_31  and  N_32
REMARK    7  A    between atoms: C_34  and  C_36
REMARK                            x       y       z     vdW  Elec       q    Type
REMARK                         _______ _______ _______ _____ _____    ______ ____
ROOT
ATOM      1  N   UNL     1       5.767  -4.550  24.705  0.00  0.00    +0.000 NA
ATOM      2  C   UNL     1       5.295  -3.415  24.073  0.00  0.00    +0.000 C 
ATOM      3  C   UNL     1       5.411  -2.189  24.977  0.00  0.00    +0.000 C 
ATOM      4  N   UNL     1       6.835  -2.048  25.398  0.00  0.00    +0.000 N 
ATOM      5  C   UNL     1       7.036  -0.934  26.193  0.00  0.00    +0.000 C 
ATOM      6  O   UNL     1       6.345  -0.895  27.222  0.00  0.00    +0.000 OA
ATOM      7  C   UNL     1       7.437  -3.266  25.945  0.00  0.00    +0.000 C 
ATOM      8  C   UNL     1       7.122  -4.464  25.067  0.00  0.00    +0.000 C 
ENDROOT
BRANCH   1   9
ATOM      9  S   UNL     1       5.097  -5.939  24.675  0.00  0.00    +0.000 S 
ATOM     10  O   UNL     1       5.441  -6.717  25.884  0.00  0.00    +0.000 OA
ATOM     11  O   UNL     1       5.477  -6.690  23.471  0.00  0.00    +0.000 OA
BRANCH   9  15
ATOM     12  C   UNL     1       1.759  -8.296  23.674  0.00  0.00    +0.000 A 
ATOM     13  C   UNL     1       2.260  -8.178  25.064  0.00  0.00    +0.000 A 
ATOM     14  C   UNL     1       3.017  -7.069  25.688  0.00  0.00    +0.000 A 
ATOM     15  C   UNL     1       3.279  -5.964  24.627  0.00  0.00    +0.000 A 
ATOM     16  C   UNL     1       2.690  -5.809  23.330  0.00  0.00    +0.000 A 
ATOM     17  F   UNL     1       1.881  -4.706  23.249  0.00  0.00    +0.000 F 
ATOM     18  C   UNL     1       1.758  -6.996  22.940  0.00  0.00    +0.000 A 
ENDBRANCH   9  15
ENDBRANCH   1   9
BRANCH   5  19
ATOM     19  C   UNL     1       8.218  -0.086  26.066  0.00  0.00    +0.000 C 
BRANCH  19  20
ATOM     20  C   UNL     1       8.060   1.063  25.038  0.00  0.00    +0.000 C 
ATOM     21  O   UNL     1       7.383   2.018  25.447  0.00  0.00    +0.000 OA
BRANCH  20  22
ATOM     22  C   UNL     1       9.360   1.331  24.461  0.00  0.00    +0.000 A 
ATOM     23  C   UNL     1       9.878  -0.055  24.285  0.00  0.00    +0.000 A 
ATOM     24  C   UNL     1      10.305  -0.705  23.055  0.00  0.00    +0.000 A 
ATOM     25  C   UNL     1       9.943   0.170  21.825  0.00  0.00    +0.000 A 
ATOM     26  C   UNL     1       9.735   1.633  21.846  0.00  0.00    +0.000 A 
ATOM     27  C   UNL     1       9.471   2.187  23.269  0.00  0.00    +0.000 A 
BRANCH  25  28
ATOM     28  N   UNL     1       9.108  -0.699  21.052  0.00  0.00    +0.000 N 
ATOM     29  H   UNL     1       9.188  -1.570  21.437  0.00  0.00    +0.000 HD
ATOM     30  C   UNL     1       7.827  -0.270  21.182  0.00  0.00    +0.000 C 
ATOM     31  O   UNL     1       7.149  -0.692  22.101  0.00  0.00    +0.000 OA
BRANCH  30  32
ATOM     32  C   UNL     1       7.274   0.359  19.975  0.00  0.00    +0.000 C 
ATOM     33  O   UNL     1       6.620  -0.617  19.149  0.00  0.00    +0.000 OA
ATOM     34  C   UNL     1       5.800   0.102  18.248  0.00  0.00    +0.000 C 
ATOM     35  C   UNL     1       5.411   1.416  18.929  0.00  0.00    +0.000 C 
ATOM     36  C   UNL     1       6.181   1.369  20.288  0.00  0.00    +0.000 C 
ENDBRANCH  30  32
ENDBRANCH  25  28
ENDBRANCH  20  22
ENDBRANCH  19  20
ENDBRANCH   5  19
TORSDOF 7
ENDMDL
MODEL 3
REMARK VINA RESULT:      -8.0      1.305      1.756
REMARK  Name = 
REMARK  7 active torsions:
REMARK  status: ('A' for Active; 'I' for Inactive)
REMARK    1  A    between atoms: C_7  and  S_8
REMARK    2  A    between atoms: S_8  and  N_11
REMARK    3  A    between atoms: C_19  and  C_21
REMARK    4  A    between atoms: C_21  and  C_24
REMARK    5  A    between atoms: C_24  and  C_26
REMARK    6  A    between atoms: C_31  and  N_32
REMARK    7  A    between atoms: C_34  and  C_36
REMARK                            x       y       z     vdW  Elec       q    Type
REMARK                         _______ _______ _______ _____ _____    ______ ____
ROOT
ATOM      1  N   UNL     1       5.626  -5.390  26.514  0.00  0.00    +0.000 NA
ATOM      2  C   UNL     1       6.343  -4.396  27.154  0.00  0.00    +0.000 C 
ATOM      3  C   UNL     1       7.728  -4.225  26.534  0.00  0.00    +0.000 C 
ATOM      4  N   UNL     1       7.562  -3.949  25.078  0.00  0.00    +0.000 N 
ATOM      5  C   UNL     1       8.774  -3.743  24.444  0.00  0.00    +0.000 C 
ATOM      6  O   UNL     1       9.583  -4.677  24.549  0.00  0.00    +0.000 OA
ATOM      7  C   UNL     1       6.691  -4.891  24.370  0.00  0.00    +0.000 C 
ATOM      8  C   UNL     1       5.410  -5.129  25.149  0.00  0.00    +0.000 C 
ENDROOT
BRANCH   1   9
ATOM      9  S   UNL     1       4.763  -6.464  27.206  0.00  0.00    +0.000 S 
ATOM     10  O   UNL     1       5.592  -7.323  28.080  0.00  0.00    +0.000 OA
ATOM     11  O   UNL     1       4.047  -7.289  26.224  0.00  0.00    +0.000 OA
BRANCH   9  15
ATOM     12  C   UNL     1       3.124  -3.018  28.977  0.00  0.00    +0.000 A 
ATOM     13  C   UNL     1       2.574  -3.611  27.736  0.00  0.00    +0.000 A 
ATOM     14  C   UNL     1       2.636  -5.015  27.269  0.00  0.00    +0.000 A 
ATOM     15  C   UNL     1       3.437  -5.863  28.296  0.00  0.00    +0.000 A 
ATOM     16  C   UNL     1       3.837  -5.516  29.627  0.00  0.00    +0.000 A 
ATOM     17  F   UNL     1       3.191  -6.261  30.580  0.00  0.00    +0.000 F 
ATOM     18  C   UNL     1       3.497  -4.041  29.999  0.00  0.00    +0.000 A 
ENDBRANCH   9  15
ENDBRANCH   1   9
BRANCH   5  19
ATOM     19  C   UNL     1       8.955  -2.722  23.416  0.00  0.00    +0.000 C 
BRANCH  19  20
ATOM     20  C   UNL     1      10.127  -1.748  23.696  0.00  0.00    +0.000 C 
ATOM     21  O   UNL     1      10.907  -1.608  22.742  0.00  0.00    +0.000 OA
BRANCH  20  22
ATOM     22  C   UNL     1       9.586  -0.564  24.329  0.00  0.00    +0.000 A 
ATOM     23  C   UNL     1      10.446   0.492  23.728  0.00  0.00    +0.000 A 
ATOM     24  C   UNL     1      10.034   1.646  22.942  0.00  0.00    +0.000 A 
ATOM     25  C   UNL     1       8.526   1.549  22.584  0.00  0.00    +0.000 A 
ATOM     26  C   UNL     1       7.516   0.776  23.336  0.00  0.00    +0.000 A 
ATOM     27  C   UNL     1       8.141  -0.295  24.266  0.00  0.00    +0.000 A 
BRANCH  25  28
ATOM     28  N   UNL     1       8.537   1.583  21.153  0.00  0.00    +0.000 N 
ATOM     29  H   UNL     1       9.437   1.765  20.890  0.00  0.00    +0.000 HD
ATOM     30  C   UNL     1       8.182   0.352  20.704  0.00  0.00    +0.000 C 
ATOM     31  O   UNL     1       9.045  -0.490  20.534  0.00  0.00    +0.000 OA
BRANCH  30  32
ATOM     32  C   UNL     1       6.845   0.291  20.099  0.00  0.00    +0.000 C 
ATOM     33  O   UNL     1       6.181   1.559  20.208  0.00  0.00    +0.000 OA
ATOM     34  C   UNL     1       5.109   1.534  19.285  0.00  0.00    +0.000 C 
ATOM     35  C   UNL     1       5.501   0.582  18.152  0.00  0.00    +0.000 C 
ATOM     36  C   UNL     1       6.890   0.025  18.602  0.00  0.00    +0.000 C 
ENDBRANCH  30  32
ENDBRANCH  25  28
ENDBRANCH  20  22
ENDBRANCH  19  20
ENDBRANCH   5  19
TORSDOF 7
ENDMDL
MODEL 4
REMARK VINA RESULT:      -8.0      2.347      3.723
REMARK  Name = 
REMARK  7 active torsions:
REMARK  status: ('A' for Active; 'I' for Inactive)
REMARK    1  A    between atoms: C_7  and  S_8
REMARK    2  A    between atoms: S_8  and  N_11
REMARK    3  A    between atoms: C_19  and  C_21
REMARK    4  A    between atoms: C_21  and  C_24
REMARK    5  A    between atoms: C_24  and  C_26
REMARK    6  A    between atoms: C_31  and  N_32
REMARK    7  A    between atoms: C_34  and  C_36
REMARK                            x       y       z     vdW  Elec       q    Type
REMARK                         _______ _______ _______ _____ _____    ______ ____
ROOT
ATOM      1  N   UNL     1       6.769  -4.438  26.573  0.00  0.00    +0.000 NA
ATOM      2  C   UNL     1       6.118  -3.429  25.888  0.00  0.00    +0.000 C 
ATOM      3  C   UNL     1       6.753  -2.069  26.168  0.00  0.00    +0.000 C 
ATOM      4  N   UNL     1       8.201  -2.145  25.816  0.00  0.00    +0.000 N 
ATOM      5  C   UNL     1       8.847  -0.936  26.006  0.00  0.00    +0.000 C 
ATOM      6  O   UNL     1       8.774  -0.480  27.156  0.00  0.00    +0.000 OA
ATOM      7  C   UNL     1       8.916  -3.282  26.400  0.00  0.00    +0.000 C 
ATOM      8  C   UNL     1       8.124  -4.565  26.222  0.00  0.00    +0.000 C 
ENDROOT
BRANCH   1   9
ATOM      9  S   UNL     1       6.087  -5.603  27.320  0.00  0.00    +0.000 S 
ATOM     10  O   UNL     1       6.989  -6.171  28.346  0.00  0.00    +0.000 OA
ATOM     11  O   UNL     1       5.658  -6.655  26.391  0.00  0.00    +0.000 OA
BRANCH   9  15
ATOM     12  C   UNL     1       2.674  -3.143  27.317  0.00  0.00    +0.000 A 
ATOM     13  C   UNL     1       2.649  -4.536  26.813  0.00  0.00    +0.000 A 
ATOM     14  C   UNL     1       3.517  -5.676  27.188  0.00  0.00    +0.000 A 
ATOM     15  C   UNL     1       4.566  -5.203  28.233  0.00  0.00    +0.000 A 
ATOM     16  C   UNL     1       4.595  -3.982  28.983  0.00  0.00    +0.000 A 
ATOM     17  F   UNL     1       4.395  -4.186  30.324  0.00  0.00    +0.000 F 
ATOM     18  C   UNL     1       3.466  -2.989  28.574  0.00  0.00    +0.000 A 
ENDBRANCH   9  15
ENDBRANCH   1   9
BRANCH   5  19
ATOM     19  C   UNL     1       9.855  -0.435  25.075  0.00  0.00    +0.000 C 
BRANCH  19  20
ATOM     20  C   UNL     1       9.365   0.735  24.186  0.00  0.00    +0.000 C 
ATOM     21  O   UNL     1       9.671   1.858  24.614  0.00  0.00    +0.000 OA
BRANCH  20  22
ATOM     22  C   UNL     1       9.669   0.410  22.809  0.00  0.00    +0.000 A 
ATOM     23  C   UNL     1       9.454  -1.063  22.815  0.00  0.00    +0.000 A 
ATOM     24  C   UNL     1       8.529  -1.840  22.002  0.00  0.00    +0.000 A 
ATOM     25  C   UNL     1       7.569  -0.899  21.224  0.00  0.00    +0.000 A 
ATOM     26  C   UNL     1       7.847   0.509  20.875  0.00  0.00    +0.000 A 
ATOM     27  C   UNL     1       8.990   1.129  21.719  0.00  0.00    +0.000 A 
BRANCH  25  28
ATOM     28  N   UNL     1       6.278  -1.324  21.672  0.00  0.00    +0.000 N 
ATOM     29  H   UNL     1       5.652  -0.672  21.364  0.00  0.00    +0.000 HD
ATOM     30  C   UNL     1       6.004  -2.517  21.084  0.00  0.00    +0.000 C 
ATOM     31  O   UNL     1       5.458  -2.532  19.996  0.00  0.00    +0.000 OA
BRANCH  30  32
ATOM     32  C   UNL     1       6.043  -3.666  21.999  0.00  0.00    +0.000 C 
ATOM     33  O   UNL     1       4.727  -3.974  22.483  0.00  0.00    +0.000 OA
ATOM     34  C   UNL     1       4.788  -5.283  23.015  0.00  0.00    +0.000 C 
ATOM     35  C   UNL     1       5.898  -6.029  22.269  0.00  0.00    +0.000 C 
ATOM     36  C   UNL     1       6.492  -4.946  21.313  0.00  0.00    +0.000 C 
ENDBRANCH  30  32
ENDBRANCH  25  28
ENDBRANCH  20  22
ENDBRANCH  19  20
ENDBRANCH   5  19
TORSDOF 7
ENDMDL
MODEL 5
REMARK VINA RESULT:      -8.0      2.364      3.403
REMARK  Name = 
REMARK  7 active torsions:
REMARK  status: ('A' for Active; 'I' for Inactive)
REMARK    1  A    between atoms: C_7  and  S_8
REMARK    2  A    between atoms: S_8  and  N_11
REMARK    3  A    between atoms: C_19  and  C_21
REMARK    4  A    between atoms: C_21  and  C_24
REMARK    5  A    between atoms: C_24  and  C_26
REMARK    6  A    between atoms: C_31  and  N_32
REMARK    7  A    between atoms: C_34  and  C_36
REMARK                            x       y       z     vdW  Elec       q    Type
REMARK                         _______ _______ _______ _____ _____    ______ ____
ROOT
ATOM      1  N   UNL     1       6.781  -3.119  26.718  0.00  0.00    +0.000 NA
ATOM      2  C   UNL     1       5.647  -2.381  26.431  0.00  0.00    +0.000 C 
ATOM      3  C   UNL     1       5.708  -0.997  27.075  0.00  0.00    +0.000 C 
ATOM      4  N   UNL     1       6.953  -0.318  26.613  0.00  0.00    +0.000 N 
ATOM      5  C   UNL     1       7.068   0.963  27.123  0.00  0.00    +0.000 C 
ATOM      6  O   UNL     1       7.048   1.036  28.361  0.00  0.00    +0.000 OA
ATOM      7  C   UNL     1       8.176  -1.111  26.760  0.00  0.00    +0.000 C 
ATOM      8  C   UNL     1       7.965  -2.525  26.248  0.00  0.00    +0.000 C 
ENDROOT
BRANCH   1   9
ATOM      9  S   UNL     1       6.807  -4.610  27.112  0.00  0.00    +0.000 S 
ATOM     10  O   UNL     1       6.101  -4.830  28.393  0.00  0.00    +0.000 OA
ATOM     11  O   UNL     1       8.184  -5.113  27.205  0.00  0.00    +0.000 OA
BRANCH   9  15
ATOM     12  C   UNL     1       4.341  -4.862  23.713  0.00  0.00    +0.000 A 
ATOM     13  C   UNL     1       5.818  -4.945  23.630  0.00  0.00    +0.000 A 
ATOM     14  C   UNL     1       6.783  -5.394  24.659  0.00  0.00    +0.000 A 
ATOM     15  C   UNL     1       6.014  -5.769  25.957  0.00  0.00    +0.000 A 
ATOM     16  C   UNL     1       4.606  -5.962  26.140  0.00  0.00    +0.000 A 
ATOM     17  F   UNL     1       4.286  -7.266  26.416  0.00  0.00    +0.000 F 
ATOM     18  C   UNL     1       3.775  -5.626  24.865  0.00  0.00    +0.000 A 
ENDBRANCH   9  15
ENDBRANCH   1   9
BRANCH   5  19
ATOM     19  C   UNL     1       7.567   2.080  26.326  0.00  0.00    +0.000 C 
BRANCH  19  20
ATOM     20  C   UNL     1       7.644   1.783  24.807  0.00  0.00    +0.000 C 
ATOM     21  O   UNL     1       6.681   2.216  24.158  0.00  0.00    +0.000 OA
BRANCH  20  22
ATOM     22  C   UNL     1       8.983   2.097  24.355  0.00  0.00    +0.000 A 
ATOM     23  C   UNL     1       9.625   0.755  24.428  0.00  0.00    +0.000 A 
ATOM     24  C   UNL     1      10.254   0.001  23.355  0.00  0.00    +0.000 A 
ATOM     25  C   UNL     1       9.987   0.681  21.985  0.00  0.00    +0.000 A 
ATOM     26  C   UNL     1       9.666   2.109  21.785  0.00  0.00    +0.000 A 
ATOM     27  C   UNL     1       9.179   2.807  23.081  0.00  0.00    +0.000 A 
BRANCH  25  28
ATOM     28  N   UNL     1       9.328  -0.351  21.243  0.00  0.00    +0.000 N 
ATOM     29  H   UNL     1       9.505  -1.172  21.698  0.00  0.00    +0.000 HD
ATOM     30  C   UNL     1       7.994  -0.101  21.276  0.00  0.00    +0.000 C 
ATOM     31  O   UNL     1       7.328  -0.550  22.192  0.00  0.00    +0.000 OA
BRANCH  30  32
ATOM     32  C   UNL     1       7.432   0.355  19.998  0.00  0.00    +0.000 C 
ATOM     33  O   UNL     1       6.784  -0.728  19.313  0.00  0.00    +0.000 OA
ATOM     34  C   UNL     1       5.955  -0.143  18.327  0.00  0.00    +0.000 C 
ATOM     35  C   UNL     1       5.556   1.247  18.829  0.00  0.00    +0.000 C 
ATOM     36  C   UNL     1       6.330   1.388  20.178  0.00  0.00    +0.000 C 
ENDBRANCH  30  32
ENDBRANCH  25  28
ENDBRANCH  20  22
ENDBRANCH  19  20
ENDBRANCH   5  19
TORSDOF 7
ENDMDL
MODEL 6
REMARK VINA RESULT:      -7.9      1.779      2.026
REMARK  Name = 
REMARK  7 active torsions:
REMARK  status: ('A' for Active; 'I' for Inactive)
REMARK    1  A    between atoms: C_7  and  S_8
REMARK    2  A    between atoms: S_8  and  N_11
REMARK    3  A    between atoms: C_19  and  C_21
REMARK    4  A    between atoms: C_21  and  C_24
REMARK    5  A    between atoms: C_24  and  C_26
REMARK    6  A    between atoms: C_31  and  N_32
REMARK    7  A    between atoms: C_34  and  C_36
REMARK                            x       y       z     vdW  Elec       q    Type
REMARK                         _______ _______ _______ _____ _____    ______ ____
ROOT
ATOM      1  N   UNL     1       5.420  -4.987  26.844  0.00  0.00    +0.000 NA
ATOM      2  C   UNL     1       6.750  -4.784  27.167  0.00  0.00    +0.000 C 
ATOM      3  C   UNL     1       7.509  -4.142  26.008  0.00  0.00    +0.000 C 
ATOM      4  N   UNL     1       6.819  -2.871  25.639  0.00  0.00    +0.000 N 
ATOM      5  C   UNL     1       7.468  -2.204  24.616  0.00  0.00    +0.000 C 
ATOM      6  O   UNL     1       7.610  -2.858  23.573  0.00  0.00    +0.000 OA
ATOM      7  C   UNL     1       5.376  -2.997  25.425  0.00  0.00    +0.000 C 
ATOM      8  C   UNL     1       4.733  -3.799  26.543  0.00  0.00    +0.000 C 
ENDROOT
BRANCH   1   9
ATOM      9  S   UNL     1       4.601  -6.254  27.165  0.00  0.00    +0.000 S 
ATOM     10  O   UNL     1       3.502  -5.947  28.106  0.00  0.00    +0.000 OA
ATOM     11  O   UNL     1       5.453  -7.315  27.718  0.00  0.00    +0.000 OA
BRANCH   9  15
ATOM     12  C   UNL     1       2.916  -5.585  23.369  0.00  0.00    +0.000 A 
ATOM     13  C   UNL     1       4.298  -6.089  23.547  0.00  0.00    +0.000 A 
ATOM     14  C   UNL     1       4.870  -6.857  24.676  0.00  0.00    +0.000 A 
ATOM     15  C   UNL     1       3.777  -7.065  25.762  0.00  0.00    +0.000 A 
ATOM     16  C   UNL     1       2.363  -6.851  25.663  0.00  0.00    +0.000 A 
ATOM     17  F   UNL     1       1.650  -8.019  25.728  0.00  0.00    +0.000 F 
ATOM     18  C   UNL     1       1.938  -6.216  24.305  0.00  0.00    +0.000 A 
ENDBRANCH   9  15
ENDBRANCH   1   9
BRANCH   5  19
ATOM     19  C   UNL     1       7.615  -0.751  24.602  0.00  0.00    +0.000 C 
BRANCH  19  20
ATOM     20  C   UNL     1       8.955  -0.248  25.197  0.00  0.00    +0.000 C 
ATOM     21  O   UNL     1       9.951  -0.867  24.794  0.00  0.00    +0.000 OA
BRANCH  20  22
ATOM     22  C   UNL     1       8.962   1.198  25.130  0.00  0.00    +0.000 A 
ATOM     23  C   UNL     1      10.241   1.438  24.405  0.00  0.00    +0.000 A 
ATOM     24  C   UNL     1      10.441   2.132  23.142  0.00  0.00    +0.000 A 
ATOM     25  C   UNL     1       9.076   2.436  22.468  0.00  0.00    +0.000 A 
ATOM     26  C   UNL     1       7.780   2.549  23.169  0.00  0.00    +0.000 A 
ATOM     27  C   UNL     1       7.798   1.911  24.581  0.00  0.00    +0.000 A 
BRANCH  25  28
ATOM     28  N   UNL     1       9.193   1.773  21.204  0.00  0.00    +0.000 N 
ATOM     29  H   UNL     1      10.127   1.658  21.040  0.00  0.00    +0.000 HD
ATOM     30  C   UNL     1       8.607   0.554  21.316  0.00  0.00    +0.000 C 
ATOM     31  O   UNL     1       9.271  -0.392  21.697  0.00  0.00    +0.000 OA
BRANCH  30  32
ATOM     32  C   UNL     1       7.334   0.427  20.593  0.00  0.00    +0.000 C 
ATOM     33  O   UNL     1       7.532   0.603  19.182  0.00  0.00    +0.000 OA
ATOM     34  C   UNL     1       6.379   0.087  18.545  0.00  0.00    +0.000 C 
ATOM     35  C   UNL     1       5.800  -0.999  19.455  0.00  0.00    +0.000 C 
ATOM     36  C   UNL     1       6.731  -0.965  20.710  0.00  0.00    +0.000 C 
ENDBRANCH  30  32
ENDBRANCH  25  28
ENDBRANCH  20  22
ENDBRANCH  19  20
ENDBRANCH   5  19
TORSDOF 7
ENDMDL
MODEL 7
REMARK VINA RESULT:      -7.8      2.698      3.843
REMARK  Name = 
REMARK  7 active torsions:
REMARK  status: ('A' for Active; 'I' for Inactive)
REMARK    1  A    between atoms: C_7  and  S_8
REMARK    2  A    between atoms: S_8  and  N_11
REMARK    3  A    between atoms: C_19  and  C_21
REMARK    4  A    between atoms: C_21  and  C_24
REMARK    5  A    between atoms: C_24  and  C_26
REMARK    6  A    between atoms: C_31  and  N_32
REMARK    7  A    between atoms: C_34  and  C_36
REMARK                            x       y       z     vdW  Elec       q    Type
REMARK                         _______ _______ _______ _____ _____    ______ ____
ROOT
ATOM      1  N   UNL     1       5.596  -3.773  23.960  0.00  0.00    +0.000 NA
ATOM      2  C   UNL     1       6.047  -2.950  24.975  0.00  0.00    +0.000 C 
ATOM      3  C   UNL     1       7.565  -3.037  25.125  0.00  0.00    +0.000 C 
ATOM      4  N   UNL     1       8.188  -2.702  23.812  0.00  0.00    +0.000 N 
ATOM      5  C   UNL     1       9.570  -2.720  23.870  0.00  0.00    +0.000 C 
ATOM      6  O   UNL     1      10.062  -3.794  24.246  0.00  0.00    +0.000 OA
ATOM      7  C   UNL     1       7.646  -3.442  22.670  0.00  0.00    +0.000 C 
ATOM      8  C   UNL     1       6.129  -3.446  22.701  0.00  0.00    +0.000 C 
ENDROOT
BRANCH   1   9
ATOM      9  S   UNL     1       4.347  -4.675  24.022  0.00  0.00    +0.000 S 
ATOM     10  O   UNL     1       3.998  -5.187  22.679  0.00  0.00    +0.000 OA
ATOM     11  O   UNL     1       3.201  -3.963  24.601  0.00  0.00    +0.000 OA
BRANCH   9  15
ATOM     12  C   UNL     1       2.208  -7.205  26.616  0.00  0.00    +0.000 A 
ATOM     13  C   UNL     1       2.405  -7.521  25.181  0.00  0.00    +0.000 A 
ATOM     14  C   UNL     1       3.495  -7.092  24.276  0.00  0.00    +0.000 A 
ATOM     15  C   UNL     1       4.475  -6.169  25.052  0.00  0.00    +0.000 A 
ATOM     16  C   UNL     1       4.565  -5.944  26.464  0.00  0.00    +0.000 A 
ATOM     17  F   UNL     1       5.723  -6.442  27.002  0.00  0.00    +0.000 F 
ATOM     18  C   UNL     1       3.434  -6.653  27.267  0.00  0.00    +0.000 A 
ENDBRANCH   9  15
ENDBRANCH   1   9
BRANCH   5  19
ATOM     19  C   UNL     1      10.394  -1.731  23.182  0.00  0.00    +0.000 C 
BRANCH  19  20
ATOM     20  C   UNL     1      10.100  -0.267  23.598  0.00  0.00    +0.000 C 
ATOM     21  O   UNL     1      10.706   0.100  24.616  0.00  0.00    +0.000 OA
BRANCH  20  22
ATOM     22  C   UNL     1      10.171   0.560  22.413  0.00  0.00    +0.000 A 
ATOM     23  C   UNL     1       9.311  -0.218  21.478  0.00  0.00    +0.000 A 
ATOM     24  C   UNL     1       8.104   0.220  20.792  0.00  0.00    +0.000 A 
ATOM     25  C   UNL     1       7.646   1.602  21.329  0.00  0.00    +0.000 A 
ATOM     26  C   UNL     1       8.518   2.599  21.985  0.00  0.00    +0.000 A 
ATOM     27  C   UNL     1       9.849   1.993  22.499  0.00  0.00    +0.000 A 
BRANCH  25  28
ATOM     28  N   UNL     1       6.320   1.335  21.800  0.00  0.00    +0.000 N 
ATOM     29  H   UNL     1       6.092   0.459  21.495  0.00  0.00    +0.000 HD
ATOM     30  C   UNL     1       6.351   1.340  23.157  0.00  0.00    +0.000 C 
ATOM     31  O   UNL     1       6.601   0.306  23.750  0.00  0.00    +0.000 OA
BRANCH  30  32
ATOM     32  C   UNL     1       5.696   2.502  23.773  0.00  0.00    +0.000 C 
ATOM     33  O   UNL     1       4.395   2.148  24.266  0.00  0.00    +0.000 OA
ATOM     34  C   UNL     1       4.012   3.172  25.164  0.00  0.00    +0.000 C 
ATOM     35  C   UNL     1       5.293   3.772  25.750  0.00  0.00    +0.000 C 
ATOM     36  C   UNL     1       6.433   3.005  25.005  0.00  0.00    +0.000 C 
ENDBRANCH  30  32
ENDBRANCH  25  28
ENDBRANCH  20  22
ENDBRANCH  19  20
ENDBRANCH   5  19
TORSDOF 7
ENDMDL
MODEL 8
REMARK VINA RESULT:      -7.8      2.717      3.634
REMARK  Name = 
REMARK  7 active torsions:
REMARK  status: ('A' for Active; 'I' for Inactive)
REMARK    1  A    between atoms: C_7  and  S_8
REMARK    2  A    between atoms: S_8  and  N_11
REMARK    3  A    between atoms: C_19  and  C_21
REMARK    4  A    between atoms: C_21  and  C_24
REMARK    5  A    between atoms: C_24  and  C_26
REMARK    6  A    between atoms: C_31  and  N_32
REMARK    7  A    between atoms: C_34  and  C_36
REMARK                            x       y       z     vdW  Elec       q    Type
REMARK                         _______ _______ _______ _____ _____    ______ ____
ROOT
ATOM      1  N   UNL     1       7.300  -4.145  22.943  0.00  0.00    +0.000 NA
ATOM      2  C   UNL     1       7.555  -3.067  22.116  0.00  0.00    +0.000 C 
ATOM      3  C   UNL     1       7.424  -1.746  22.872  0.00  0.00    +0.000 C 
ATOM      4  N   UNL     1       8.343  -1.783  24.047  0.00  0.00    +0.000 N 
ATOM      5  C   UNL     1       8.314  -0.603  24.769  0.00  0.00    +0.000 C 
ATOM      6  O   UNL     1       7.194  -0.276  25.189  0.00  0.00    +0.000 OA
ATOM      7  C   UNL     1       8.219  -2.978  24.884  0.00  0.00    +0.000 C 
ATOM      8  C   UNL     1       8.185  -4.233  24.031  0.00  0.00    +0.000 C 
ENDROOT
BRANCH   1   9
ATOM      9  S   UNL     1       6.460  -5.384  22.571  0.00  0.00    +0.000 S 
ATOM     10  O   UNL     1       7.328  -6.558  22.333  0.00  0.00    +0.000 OA
ATOM     11  O   UNL     1       5.627  -5.129  21.389  0.00  0.00    +0.000 OA
BRANCH   9  15
ATOM     12  C   UNL     1       3.163  -4.204  24.903  0.00  0.00    +0.000 A 
ATOM     13  C   UNL     1       3.010  -4.942  23.627  0.00  0.00    +0.000 A 
ATOM     14  C   UNL     1       3.962  -5.865  22.967  0.00  0.00    +0.000 A 
ATOM     15  C   UNL     1       5.262  -5.956  23.813  0.00  0.00    +0.000 A 
ATOM     16  C   UNL     1       5.492  -5.502  25.153  0.00  0.00    +0.000 A 
ATOM     17  F   UNL     1       5.689  -6.536  26.031  0.00  0.00    +0.000 F 
ATOM     18  C   UNL     1       4.282  -4.720  25.747  0.00  0.00    +0.000 A 
ENDBRANCH   9  15
ENDBRANCH   1   9
BRANCH   5  19
ATOM     19  C   UNL     1       9.519  -0.004  25.334  0.00  0.00    +0.000 C 
BRANCH  19  20
ATOM     20  C   UNL     1      10.577   0.401  24.276  0.00  0.00    +0.000 C 
ATOM     21  O   UNL     1      10.748  -0.443  23.384  0.00  0.00    +0.000 OA
BRANCH  20  22
ATOM     22  C   UNL     1      10.326   1.774  23.893  0.00  0.00    +0.000 A 
ATOM     23  C   UNL     1      10.074   1.615  22.434  0.00  0.00    +0.000 A 
ATOM     24  C   UNL     1       8.882   1.982  21.682  0.00  0.00    +0.000 A 
ATOM     25  C   UNL     1       7.736   2.388  22.648  0.00  0.00    +0.000 A 
ATOM     26  C   UNL     1       7.914   2.885  24.028  0.00  0.00    +0.000 A 
ATOM     27  C   UNL     1       9.313   2.562  24.612  0.00  0.00    +0.000 A 
BRANCH  25  28
ATOM     28  N   UNL     1       6.694   1.467  22.306  0.00  0.00    +0.000 N 
ATOM     29  H   UNL     1       6.058   1.495  23.019  0.00  0.00    +0.000 HD
ATOM     30  C   UNL     1       6.104   1.909  21.166  0.00  0.00    +0.000 C 
ATOM     31  O   UNL     1       5.174   2.691  21.242  0.00  0.00    +0.000 OA
BRANCH  30  32
ATOM     32  C   UNL     1       6.399   1.096  19.978  0.00  0.00    +0.000 C 
ATOM     33  O   UNL     1       6.141  -0.292  20.237  0.00  0.00    +0.000 OA
ATOM     34  C   UNL     1       6.064  -0.931  18.978  0.00  0.00    +0.000 C 
ATOM     35  C   UNL     1       5.592   0.113  17.962  0.00  0.00    +0.000 C 
ATOM     36  C   UNL     1       5.492   1.426  18.803  0.00  0.00    +0.000 C 
ENDBRANCH  30  32
ENDBRANCH  25  28
ENDBRANCH  20  22
ENDBRANCH  19  20
ENDBRANCH   5  19
TORSDOF 7
ENDMDL
MODEL 9
REMARK VINA RESULT:      -7.7      2.550      3.520
REMARK  Name = 
REMARK  7 active torsions:
REMARK  status: ('A' for Active; 'I' for Inactive)
REMARK    1  A    between atoms: C_7  and  S_8
REMARK    2  A    between atoms: S_8  and  N_11
REMARK    3  A    between atoms: C_19  and  C_21
REMARK    4  A    between atoms: C_21  and  C_24
REMARK    5  A    between atoms: C_24  and  C_26
REMARK    6  A    between atoms: C_31  and  N_32
REMARK    7  A    between atoms: C_34  and  C_36
REMARK                            x       y       z     vdW  Elec       q    Type
REMARK                         _______ _______ _______ _____ _____    ______ ____
ROOT
ATOM      1  N   UNL     1       6.224  -2.732  25.022  0.00  0.00    +0.000 NA
ATOM      2  C   UNL     1       7.113  -2.351  26.010  0.00  0.00    +0.000 C 
ATOM      3  C   UNL     1       8.552  -2.368  25.497  0.00  0.00    +0.000 C 
ATOM      4  N   UNL     1       8.634  -1.485  24.297  0.00  0.00    +0.000 N 
ATOM      5  C   UNL     1       9.918  -1.414  23.788  0.00  0.00    +0.000 C 
ATOM      6  O   UNL     1      10.417  -2.505  23.476  0.00  0.00    +0.000 OA
ATOM      7  C   UNL     1       7.619  -1.748  23.272  0.00  0.00    +0.000 C 
ATOM      8  C   UNL     1       6.244  -1.886  23.899  0.00  0.00    +0.000 C 
ENDROOT
BRANCH   1   9
ATOM      9  S   UNL     1       5.024  -3.682  25.211  0.00  0.00    +0.000 S 
ATOM     10  O   UNL     1       3.777  -3.062  24.712  0.00  0.00    +0.000 OA
ATOM     11  O   UNL     1       4.864  -4.067  26.619  0.00  0.00    +0.000 OA
BRANCH   9  15
ATOM     12  C   UNL     1       6.742  -5.679  21.931  0.00  0.00    +0.000 A 
ATOM     13  C   UNL     1       7.297  -5.779  23.301  0.00  0.00    +0.000 A 
ATOM     14  C   UNL     1       6.603  -5.622  24.599  0.00  0.00    +0.000 A 
ATOM     15  C   UNL     1       5.108  -5.279  24.345  0.00  0.00    +0.000 A 
ATOM     16  C   UNL     1       4.365  -5.363  23.123  0.00  0.00    +0.000 A 
ATOM     17  F   UNL     1       3.404  -6.339  23.159  0.00  0.00    +0.000 F 
ATOM     18  C   UNL     1       5.250  -5.743  21.898  0.00  0.00    +0.000 A 
ENDBRANCH   9  15
ENDBRANCH   1   9
BRANCH   5  19
ATOM     19  C   UNL     1      10.491  -0.168  23.285  0.00  0.00    +0.000 C 
BRANCH  19  20
ATOM     20  C   UNL     1      10.753   0.893  24.384  0.00  0.00    +0.000 C 
ATOM     21  O   UNL     1      11.821   0.736  24.994  0.00  0.00    +0.000 OA
BRANCH  20  22
ATOM     22  C   UNL     1      10.455   2.196  23.829  0.00  0.00    +0.000 A 
ATOM     23  C   UNL     1      10.254   1.850  22.395  0.00  0.00    +0.000 A 
ATOM     24  C   UNL     1       9.071   2.067  21.575  0.00  0.00    +0.000 A 
ATOM     25  C   UNL     1       7.880   2.534  22.455  0.00  0.00    +0.000 A 
ATOM     26  C   UNL     1       7.994   3.201  23.768  0.00  0.00    +0.000 A 
ATOM     27  C   UNL     1       9.388   3.018  24.421  0.00  0.00    +0.000 A 
BRANCH  25  28
ATOM     28  N   UNL     1       6.889   1.531  22.203  0.00  0.00    +0.000 N 
ATOM     29  H   UNL     1       6.325   1.502  22.973  0.00  0.00    +0.000 HD
ATOM     30  C   UNL     1       6.158   1.927  21.130  0.00  0.00    +0.000 C 
ATOM     31  O   UNL     1       5.179   2.628  21.304  0.00  0.00    +0.000 OA
BRANCH  30  32
ATOM     32  C   UNL     1       6.403   1.146  19.909  0.00  0.00    +0.000 C 
ATOM     33  O   UNL     1       6.288  -0.260  20.175  0.00  0.00    +0.000 OA
ATOM     34  C   UNL     1       6.144  -0.898  18.921  0.00  0.00    +0.000 C 
ATOM     35  C   UNL     1       5.490   0.107  17.968  0.00  0.00    +0.000 C 
ATOM     36  C   UNL     1       5.363   1.404  18.831  0.00  0.00    +0.000 C 
ENDBRANCH  30  32
ENDBRANCH  25  28
ENDBRANCH  20  22
ENDBRANCH  19  20
ENDBRANCH   5  19
TORSDOF 7
ENDMDL
