MODEL 1
REMARK VINA RESULT:      -9.7      0.000      0.000
REMARK  Name = 
REMARK  4 active torsions:
REMARK  status: ('A' for Active; 'I' for Inactive)
REMARK    1  A    between atoms: C_7  and  C_8
REMARK    2  A    between atoms: C_24  and  S_26
REMARK    3  A    between atoms: S_26  and  C_29
REMARK    4  A    between atoms: N_38  and  C_39
REMARK                            x       y       z     vdW  Elec       q    Type
REMARK                         _______ _______ _______ _____ _____    ______ ____
ROOT
ATOM      1  C   UNL     1       8.327   1.071  21.251  0.00  0.00    +0.000 C 
ATOM      2  C   UNL     1       8.687   2.287  22.086  0.00  0.00    +0.000 A 
ATOM      3  C   UNL     1       7.907   2.898  22.969  0.00  0.00    +0.000 A 
ATOM      4  C   UNL     1       8.411   3.990  23.732  0.00  0.00    +0.000 A 
ATOM      5  C   UNL     1       9.934   3.912  23.796  0.00  0.00    +0.000 A 
ATOM      6  C   UNL     1      10.848   2.918  23.283  0.00  0.00    +0.000 A 
ATOM      7  C   UNL     1      10.076   1.868  22.787  0.00  0.00    +0.000 A 
ATOM      8  C   UNL     1      10.307   0.395  23.384  0.00  0.00    +0.000 C 
ATOM      9  N   UNL     1       9.980  -0.558  22.541  0.00  0.00    +0.000 N 
ATOM     10  C   UNL     1       8.933  -1.532  22.761  0.00  0.00    +0.000 C 
ATOM     11  O   UNL     1       9.153  -2.525  22.075  0.00  0.00    +0.000 OA
ATOM     12  C   UNL     1       9.443   0.033  21.292  0.00  0.00    +0.000 C 
ENDROOT
BRANCH   1  16
ATOM     13  C   UNL     1       5.139   0.043  18.495  0.00  0.00    +0.000 A 
ATOM     14  C   UNL     1       5.286   1.411  19.123  0.00  0.00    +0.000 A 
ATOM     15  C   UNL     1       6.178   1.868  20.184  0.00  0.00    +0.000 A 
ATOM     16  C   UNL     1       7.330   0.584  20.370  0.00  0.00    +0.000 A 
ATOM     17  C   UNL     1       6.791  -0.761  20.474  0.00  0.00    +0.000 A 
ATOM     18  C   UNL     1       5.917  -0.983  19.298  0.00  0.00    +0.000 A 
ENDBRANCH   1  16
BRANCH  10  19
ATOM     19  S   UNL     1       9.186  -2.222  24.388  0.00  0.00    +0.000 S 
ATOM     20  O   UNL     1      10.391  -3.063  24.099  0.00  0.00    +0.000 OA
ATOM     21  O   UNL     1       9.478  -1.212  25.356  0.00  0.00    +0.000 OA
BRANCH  19  22
ATOM     22  C   UNL     1       7.839  -3.155  24.972  0.00  0.00    +0.000 A 
ATOM     23  C   UNL     1       8.493  -4.555  24.974  0.00  0.00    +0.000 A 
ATOM     24  C   UNL     1       8.274  -5.647  24.032  0.00  0.00    +0.000 A 
ATOM     25  C   UNL     1       7.195  -5.326  23.229  0.00  0.00    +0.000 A 
ATOM     26  C   UNL     1       6.096  -4.176  23.444  0.00  0.00    +0.000 A 
ATOM     27  C   UNL     1       6.499  -3.215  24.386  0.00  0.00    +0.000 A 
ATOM     28  N   UNL     1       4.881  -4.947  23.637  0.00  0.00    +0.000 N 
ATOM     29  C   UNL     1       3.902  -4.008  23.913  0.00  0.00    +0.000 C 
ATOM     30  C   UNL     1       5.009  -5.968  22.748  0.00  0.00    +0.000 C 
ATOM     31  C   UNL     1       5.802  -5.753  21.480  0.00  0.00    +0.000 C 
ATOM     32  C   UNL     1       7.220  -5.550  21.645  0.00  0.00    +0.000 C 
ENDBRANCH  19  22
ENDBRANCH  10  19
TORSDOF 3
ENDMDL
MODEL 2
REMARK VINA RESULT:      -8.9      2.672      4.311
REMARK  Name = 
REMARK  4 active torsions:
REMARK  status: ('A' for Active; 'I' for Inactive)
REMARK    1  A    between atoms: C_7  and  C_8
REMARK    2  A    between atoms: C_24  and  S_26
REMARK    3  A    between atoms: S_26  and  C_29
REMARK    4  A    between atoms: N_38  and  C_39
REMARK                            x       y       z     vdW  Elec       q    Type
REMARK                         _______ _______ _______ _____ _____    ______ ____
ROOT
ATOM      1  C   UNL     1       8.453   1.276  21.205  0.00  0.00    +0.000 C 
ATOM      2  C   UNL     1       8.862   2.495  22.014  0.00  0.00    +0.000 A 
ATOM      3  C   UNL     1       8.052   3.315  22.672  0.00  0.00    +0.000 A 
ATOM      4  C   UNL     1       8.591   4.380  23.449  0.00  0.00    +0.000 A 
ATOM      5  C   UNL     1      10.032   4.057  23.833  0.00  0.00    +0.000 A 
ATOM      6  C   UNL     1      10.830   2.877  23.589  0.00  0.00    +0.000 A 
ATOM      7  C   UNL     1       9.989   1.925  23.014  0.00  0.00    +0.000 A 
ATOM      8  C   UNL     1       9.826   0.503  23.744  0.00  0.00    +0.000 C 
ATOM      9  N   UNL     1       9.498  -0.463  22.917  0.00  0.00    +0.000 N 
ATOM     10  C   UNL     1       8.268  -1.221  22.979  0.00  0.00    +0.000 C 
ATOM     11  O   UNL     1       8.429  -2.303  22.422  0.00  0.00    +0.000 OA
ATOM     12  C   UNL     1       9.330   0.077  21.547  0.00  0.00    +0.000 C 
ENDROOT
BRANCH   1  16
ATOM     13  C   UNL     1       5.469   0.411  18.179  0.00  0.00    +0.000 A 
ATOM     14  C   UNL     1       5.232   1.359  19.332  0.00  0.00    +0.000 A 
ATOM     15  C   UNL     1       6.047   1.626  20.513  0.00  0.00    +0.000 A 
ATOM     16  C   UNL     1       7.573   0.874  20.171  0.00  0.00    +0.000 A 
ATOM     17  C   UNL     1       7.525  -0.492  19.678  0.00  0.00    +0.000 A 
ATOM     18  C   UNL     1       6.635  -0.507  18.493  0.00  0.00    +0.000 A 
ENDBRANCH   1  16
BRANCH  10  19
ATOM     19  S   UNL     1       8.071  -1.773  24.666  0.00  0.00    +0.000 S 
ATOM     20  O   UNL     1       8.174  -3.250  24.440  0.00  0.00    +0.000 OA
ATOM     21  O   UNL     1       9.125  -1.301  25.507  0.00  0.00    +0.000 OA
BRANCH  19  22
ATOM     22  C   UNL     1       6.557  -1.307  25.385  0.00  0.00    +0.000 A 
ATOM     23  C   UNL     1       6.121  -0.232  24.366  0.00  0.00    +0.000 A 
ATOM     24  C   UNL     1       6.141   1.218  24.529  0.00  0.00    +0.000 A 
ATOM     25  C   UNL     1       6.408   1.508  25.854  0.00  0.00    +0.000 A 
ATOM     26  C   UNL     1       6.357   0.526  27.122  0.00  0.00    +0.000 A 
ATOM     27  C   UNL     1       6.352  -0.830  26.754  0.00  0.00    +0.000 A 
ATOM     28  N   UNL     1       5.271   1.091  27.903  0.00  0.00    +0.000 N 
ATOM     29  C   UNL     1       5.120   0.234  28.979  0.00  0.00    +0.000 C 
ATOM     30  C   UNL     1       5.444   2.433  27.762  0.00  0.00    +0.000 C 
ATOM     31  C   UNL     1       6.834   2.982  27.536  0.00  0.00    +0.000 C 
ATOM     32  C   UNL     1       7.455   2.641  26.280  0.00  0.00    +0.000 C 
ENDBRANCH  19  22
ENDBRANCH  10  19
TORSDOF 3
ENDMDL
MODEL 3
REMARK VINA RESULT:      -8.8      2.937      4.110
REMARK  Name = 
REMARK  4 active torsions:
REMARK  status: ('A' for Active; 'I' for Inactive)
REMARK    1  A    between atoms: C_7  and  C_8
REMARK    2  A    between atoms: C_24  and  S_26
REMARK    3  A    between atoms: S_26  and  C_29
REMARK    4  A    between atoms: N_38  and  C_39
REMARK                            x       y       z     vdW  Elec       q    Type
REMARK                         _______ _______ _______ _____ _____    ______ ____
ROOT
ATOM      1  C   UNL     1       7.809  -0.049  24.081  0.00  0.00    +0.000 C 
ATOM      2  C   UNL     1       6.939   0.406  25.240  0.00  0.00    +0.000 A 
ATOM      3  C   UNL     1       5.637   0.188  25.383  0.00  0.00    +0.000 A 
ATOM      4  C   UNL     1       4.967   0.617  26.564  0.00  0.00    +0.000 A 
ATOM      5  C   UNL     1       5.975   0.761  27.702  0.00  0.00    +0.000 A 
ATOM      6  C   UNL     1       7.390   0.476  27.748  0.00  0.00    +0.000 A 
ATOM      7  C   UNL     1       7.725  -0.132  26.539  0.00  0.00    +0.000 A 
ATOM      8  C   UNL     1       8.398  -1.591  26.572  0.00  0.00    +0.000 C 
ATOM      9  N   UNL     1       9.145  -1.835  25.521  0.00  0.00    +0.000 N 
ATOM     10  C   UNL     1       8.894  -2.881  24.553  0.00  0.00    +0.000 C 
ATOM     11  O   UNL     1       9.943  -3.169  23.985  0.00  0.00    +0.000 OA
ATOM     12  C   UNL     1       9.099  -0.685  24.587  0.00  0.00    +0.000 C 
ENDROOT
BRANCH   1  16
ATOM     13  C   UNL     1       7.584  -0.188  19.752  0.00  0.00    +0.000 A 
ATOM     14  C   UNL     1       6.643  -0.949  20.657  0.00  0.00    +0.000 A 
ATOM     15  C   UNL     1       6.685  -1.151  22.103  0.00  0.00    +0.000 A 
ATOM     16  C   UNL     1       7.878  -0.023  22.667  0.00  0.00    +0.000 A 
ATOM     17  C   UNL     1       9.141  -0.004  21.950  0.00  0.00    +0.000 A 
ATOM     18  C   UNL     1       8.837   0.202  20.514  0.00  0.00    +0.000 A 
ENDBRANCH   1  16
BRANCH  10  19
ATOM     19  S   UNL     1       8.618  -4.391  25.466  0.00  0.00    +0.000 S 
ATOM     20  O   UNL     1       9.745  -5.206  24.911  0.00  0.00    +0.000 OA
ATOM     21  O   UNL     1       8.761  -4.196  26.874  0.00  0.00    +0.000 OA
BRANCH  19  22
ATOM     22  C   UNL     1       7.061  -5.111  25.177  0.00  0.00    +0.000 A 
ATOM     23  C   UNL     1       6.344  -3.900  24.540  0.00  0.00    +0.000 A 
ATOM     24  C   UNL     1       5.340  -3.033  25.146  0.00  0.00    +0.000 A 
ATOM     25  C   UNL     1       4.938  -3.595  26.343  0.00  0.00    +0.000 A 
ATOM     26  C   UNL     1       5.187  -5.086  26.881  0.00  0.00    +0.000 A 
ATOM     27  C   UNL     1       6.199  -5.754  26.171  0.00  0.00    +0.000 A 
ATOM     28  N   UNL     1       3.838  -5.620  26.937  0.00  0.00    +0.000 N 
ATOM     29  C   UNL     1       3.991  -6.942  27.317  0.00  0.00    +0.000 C 
ATOM     30  C   UNL     1       3.100  -4.571  27.389  0.00  0.00    +0.000 C 
ATOM     31  C   UNL     1       3.748  -3.539  28.283  0.00  0.00    +0.000 C 
ATOM     32  C   UNL     1       4.770  -2.723  27.674  0.00  0.00    +0.000 C 
ENDBRANCH  19  22
ENDBRANCH  10  19
TORSDOF 3
ENDMDL
MODEL 4
REMARK VINA RESULT:      -8.7      2.166      6.947
REMARK  Name = 
REMARK  4 active torsions:
REMARK  status: ('A' for Active; 'I' for Inactive)
REMARK    1  A    between atoms: C_7  and  C_8
REMARK    2  A    between atoms: C_24  and  S_26
REMARK    3  A    between atoms: S_26  and  C_29
REMARK    4  A    between atoms: N_38  and  C_39
REMARK                            x       y       z     vdW  Elec       q    Type
REMARK                         _______ _______ _______ _____ _____    ______ ____
ROOT
ATOM      1  C   UNL     1       5.985  -4.354  25.464  0.00  0.00    +0.000 C 
ATOM      2  C   UNL     1       6.045  -5.098  24.141  0.00  0.00    +0.000 A 
ATOM      3  C   UNL     1       5.344  -4.823  23.048  0.00  0.00    +0.000 A 
ATOM      4  C   UNL     1       5.560  -5.570  21.855  0.00  0.00    +0.000 A 
ATOM      5  C   UNL     1       6.954  -6.192  21.884  0.00  0.00    +0.000 A 
ATOM      6  C   UNL     1       8.017  -6.074  22.854  0.00  0.00    +0.000 A 
ATOM      7  C   UNL     1       7.616  -5.119  23.788  0.00  0.00    +0.000 A 
ATOM      8  C   UNL     1       8.548  -3.831  24.020  0.00  0.00    +0.000 C 
ATOM      9  N   UNL     1       8.413  -3.309  25.217  0.00  0.00    +0.000 N 
ATOM     10  C   UNL     1       7.924  -1.975  25.486  0.00  0.00    +0.000 C 
ATOM     11  O   UNL     1       8.329  -1.607  26.585  0.00  0.00    +0.000 OA
ATOM     12  C   UNL     1       7.387  -4.056  25.983  0.00  0.00    +0.000 C 
ENDROOT
BRANCH   1  16
ATOM     13  C   UNL     1       2.961  -2.697  28.094  0.00  0.00    +0.000 A 
ATOM     14  C   UNL     1       3.206  -2.195  26.689  0.00  0.00    +0.000 A 
ATOM     15  C   UNL     1       4.276  -2.513  25.749  0.00  0.00    +0.000 A 
ATOM     16  C   UNL     1       5.067  -3.895  26.440  0.00  0.00    +0.000 A 
ATOM     17  C   UNL     1       5.409  -3.808  27.849  0.00  0.00    +0.000 A 
ATOM     18  C   UNL     1       4.171  -3.467  28.588  0.00  0.00    +0.000 A 
ENDBRANCH   1  16
BRANCH  10  19
ATOM     19  S   UNL     1       8.835  -0.855  24.435  0.00  0.00    +0.000 S 
ATOM     20  O   UNL     1       8.141   0.421  24.798  0.00  0.00    +0.000 OA
ATOM     21  O   UNL     1      10.221  -0.810  24.780  0.00  0.00    +0.000 OA
BRANCH  19  22
ATOM     22  C   UNL     1       8.715  -1.228  22.740  0.00  0.00    +0.000 A 
ATOM     23  C   UNL     1       9.598  -0.093  22.175  0.00  0.00    +0.000 A 
ATOM     24  C   UNL     1       9.167   1.119  21.489  0.00  0.00    +0.000 A 
ATOM     25  C   UNL     1       7.818   1.009  21.205  0.00  0.00    +0.000 A 
ATOM     26  C   UNL     1       6.892  -0.301  21.245  0.00  0.00    +0.000 A 
ATOM     27  C   UNL     1       7.482  -1.357  21.960  0.00  0.00    +0.000 A 
ATOM     28  N   UNL     1       6.524  -0.459  19.850  0.00  0.00    +0.000 N 
ATOM     29  C   UNL     1       5.787  -1.629  19.803  0.00  0.00    +0.000 C 
ATOM     30  C   UNL     1       6.325   0.819  19.428  0.00  0.00    +0.000 C 
ATOM     31  C   UNL     1       5.860   1.863  20.418  0.00  0.00    +0.000 C 
ATOM     32  C   UNL     1       6.798   2.216  21.455  0.00  0.00    +0.000 C 
ENDBRANCH  19  22
ENDBRANCH  10  19
TORSDOF 3
ENDMDL
MODEL 5
REMARK VINA RESULT:      -8.7      1.910      2.253
REMARK  Name = 
REMARK  4 active torsions:
REMARK  status: ('A' for Active; 'I' for Inactive)
REMARK    1  A    between atoms: C_7  and  C_8
REMARK    2  A    between atoms: C_24  and  S_26
REMARK    3  A    between atoms: S_26  and  C_29
REMARK    4  A    between atoms: N_38  and  C_39
REMARK                            x       y       z     vdW  Elec       q    Type
REMARK                         _______ _______ _______ _____ _____    ______ ____
ROOT
ATOM      1  C   UNL     1       8.427   1.009  21.206  0.00  0.00    +0.000 C 
ATOM      2  C   UNL     1       9.000   2.109  22.082  0.00  0.00    +0.000 A 
ATOM      3  C   UNL     1       8.312   3.050  22.718  0.00  0.00    +0.000 A 
ATOM      4  C   UNL     1       8.986   3.977  23.564  0.00  0.00    +0.000 A 
ATOM      5  C   UNL     1      10.313   3.380  24.026  0.00  0.00    +0.000 A 
ATOM      6  C   UNL     1      10.893   2.078  23.790  0.00  0.00    +0.000 A 
ATOM      7  C   UNL     1       9.931   1.315  23.129  0.00  0.00    +0.000 A 
ATOM      8  C   UNL     1       9.457  -0.069  23.795  0.00  0.00    +0.000 C 
ATOM      9  N   UNL     1       9.013  -0.936  22.915  0.00  0.00    +0.000 N 
ATOM     10  C   UNL     1       7.662  -1.452  22.873  0.00  0.00    +0.000 C 
ATOM     11  O   UNL     1       7.658  -2.531  22.288  0.00  0.00    +0.000 OA
ATOM     12  C   UNL     1       9.042  -0.342  21.558  0.00  0.00    +0.000 C 
ENDROOT
BRANCH   1  16
ATOM     13  C   UNL     1       5.489   0.727  18.027  0.00  0.00    +0.000 A 
ATOM     14  C   UNL     1       5.251   1.483  19.315  0.00  0.00    +0.000 A 
ATOM     15  C   UNL     1       6.046   1.534  20.538  0.00  0.00    +0.000 A 
ATOM     16  C   UNL     1       7.560   0.803  20.105  0.00  0.00    +0.000 A 
ATOM     17  C   UNL     1       7.489  -0.463  19.397  0.00  0.00    +0.000 A 
ATOM     18  C   UNL     1       6.625  -0.262  18.209  0.00  0.00    +0.000 A 
ENDBRANCH   1  16
BRANCH  10  19
ATOM     19  S   UNL     1       7.253  -1.997  24.523  0.00  0.00    +0.000 S 
ATOM     20  O   UNL     1       8.057  -3.260  24.556  0.00  0.00    +0.000 OA
ATOM     21  O   UNL     1       7.697  -1.071  25.516  0.00  0.00    +0.000 OA
BRANCH  19  22
ATOM     22  C   UNL     1       5.553  -2.277  24.769  0.00  0.00    +0.000 A 
ATOM     23  C   UNL     1       5.538  -2.355  26.311  0.00  0.00    +0.000 A 
ATOM     24  C   UNL     1       5.404  -3.544  27.146  0.00  0.00    +0.000 A 
ATOM     25  C   UNL     1       5.060  -4.612  26.340  0.00  0.00    +0.000 A 
ATOM     26  C   UNL     1       4.525  -4.591  24.826  0.00  0.00    +0.000 A 
ATOM     27  C   UNL     1       4.754  -3.359  24.191  0.00  0.00    +0.000 A 
ATOM     28  N   UNL     1       3.179  -5.117  24.970  0.00  0.00    +0.000 N 
ATOM     29  C   UNL     1       2.629  -5.046  23.703  0.00  0.00    +0.000 C 
ATOM     30  C   UNL     1       3.321  -6.098  25.902  0.00  0.00    +0.000 C 
ATOM     31  C   UNL     1       4.640  -6.827  26.017  0.00  0.00    +0.000 C 
ATOM     32  C   UNL     1       5.758  -6.045  26.485  0.00  0.00    +0.000 C 
ENDBRANCH  19  22
ENDBRANCH  10  19
TORSDOF 3
ENDMDL
MODEL 6
REMARK VINA RESULT:      -8.6      2.511      7.268
REMARK  Name = 
REMARK  4 active torsions:
REMARK  status: ('A' for Active; 'I' for Inactive)
REMARK    1  A    between atoms: C_7  and  C_8
REMARK    2  A    between atoms: C_24  and  S_26
REMARK    3  A    between atoms: S_26  and  C_29
REMARK    4  A    between atoms: N_38  and  C_39
REMARK                            x       y       z     vdW  Elec       q    Type
REMARK                         _______ _______ _______ _____ _____    ______ ____
ROOT
ATOM      1  C   UNL     1       6.349  -5.268  25.666  0.00  0.00    +0.000 C 
ATOM      2  C   UNL     1       6.078  -5.581  24.204  0.00  0.00    +0.000 A 
ATOM      3  C   UNL     1       5.089  -5.097  23.463  0.00  0.00    +0.000 A 
ATOM      4  C   UNL     1       5.004  -5.429  22.081  0.00  0.00    +0.000 A 
ATOM      5  C   UNL     1       6.381  -5.841  21.567  0.00  0.00    +0.000 A 
ATOM      6  C   UNL     1       7.664  -5.869  22.229  0.00  0.00    +0.000 A 
ATOM      7  C   UNL     1       7.490  -5.289  23.485  0.00  0.00    +0.000 A 
ATOM      8  C   UNL     1       8.384  -4.012  23.873  0.00  0.00    +0.000 C 
ATOM      9  N   UNL     1       8.559  -3.883  25.168  0.00  0.00    +0.000 N 
ATOM     10  C   UNL     1       8.096  -2.761  25.956  0.00  0.00    +0.000 C 
ATOM     11  O   UNL     1       8.771  -2.678  26.979  0.00  0.00    +0.000 OA
ATOM     12  C   UNL     1       7.824  -4.949  25.889  0.00  0.00    +0.000 C 
ENDROOT
BRANCH   1  16
ATOM     13  C   UNL     1       4.083  -4.875  29.343  0.00  0.00    +0.000 A 
ATOM     14  C   UNL     1       3.878  -3.980  28.141  0.00  0.00    +0.000 A 
ATOM     15  C   UNL     1       4.658  -3.862  26.912  0.00  0.00    +0.000 A 
ATOM     16  C   UNL     1       5.715  -5.238  26.932  0.00  0.00    +0.000 A 
ATOM     17  C   UNL     1       6.437  -5.484  28.168  0.00  0.00    +0.000 A 
ATOM     18  C   UNL     1       5.438  -5.552  29.261  0.00  0.00    +0.000 A 
ENDBRANCH   1  16
BRANCH  10  19
ATOM     19  S   UNL     1       8.624  -1.274  25.121  0.00  0.00    +0.000 S 
ATOM     20  O   UNL     1       9.339  -0.611  26.257  0.00  0.00    +0.000 OA
ATOM     21  O   UNL     1       9.515  -1.557  24.041  0.00  0.00    +0.000 OA
BRANCH  19  22
ATOM     22  C   UNL     1       7.313  -0.314  24.501  0.00  0.00    +0.000 A 
ATOM     23  C   UNL     1       6.520  -1.422  23.774  0.00  0.00    +0.000 A 
ATOM     24  C   UNL     1       6.436  -1.669  22.338  0.00  0.00    +0.000 A 
ATOM     25  C   UNL     1       7.009  -0.602  21.674  0.00  0.00    +0.000 A 
ATOM     26  C   UNL     1       7.392   0.847  22.250  0.00  0.00    +0.000 A 
ATOM     27  C   UNL     1       7.426   0.876  23.655  0.00  0.00    +0.000 A 
ATOM     28  N   UNL     1       6.497   1.717  21.508  0.00  0.00    +0.000 N 
ATOM     29  C   UNL     1       6.719   2.982  22.023  0.00  0.00    +0.000 C 
ATOM     30  C   UNL     1       6.491   1.175  20.260  0.00  0.00    +0.000 C 
ATOM     31  C   UNL     1       7.711   0.430  19.769  0.00  0.00    +0.000 C 
ATOM     32  C   UNL     1       8.013  -0.809  20.444  0.00  0.00    +0.000 C 
ENDBRANCH  19  22
ENDBRANCH  10  19
TORSDOF 3
ENDMDL
MODEL 7
REMARK VINA RESULT:      -8.4      3.028      6.017
REMARK  Name = 
REMARK  4 active torsions:
REMARK  status: ('A' for Active; 'I' for Inactive)
REMARK    1  A    between atoms: C_7  and  C_8
REMARK    2  A    between atoms: C_24  and  S_26
REMARK    3  A    between atoms: S_26  and  C_29
REMARK    4  A    between atoms: N_38  and  C_39
REMARK                            x       y       z     vdW  Elec       q    Type
REMARK                         _______ _______ _______ _____ _____    ______ ____
ROOT
ATOM      1  C   UNL     1       8.713  -2.181  23.581  0.00  0.00    +0.000 C 
ATOM      2  C   UNL     1       9.499  -0.920  23.269  0.00  0.00    +0.000 A 
ATOM      3  C   UNL     1       9.101   0.091  22.507  0.00  0.00    +0.000 A 
ATOM      4  C   UNL     1       9.923   1.245  22.364  0.00  0.00    +0.000 A 
ATOM      5  C   UNL     1      10.872   1.350  23.556  0.00  0.00    +0.000 A 
ATOM      6  C   UNL     1      10.985   0.536  24.744  0.00  0.00    +0.000 A 
ATOM      7  C   UNL     1       9.925  -0.370  24.723  0.00  0.00    +0.000 A 
ATOM      8  C   UNL     1       8.902  -0.386  25.962  0.00  0.00    +0.000 C 
ATOM      9  N   UNL     1       8.317  -1.549  26.129  0.00  0.00    +0.000 N 
ATOM     10  C   UNL     1       6.893  -1.781  26.020  0.00  0.00    +0.000 C 
ATOM     11  O   UNL     1       6.596  -2.789  26.654  0.00  0.00    +0.000 OA
ATOM     12  C   UNL     1       8.754  -2.493  25.073  0.00  0.00    +0.000 C 
ENDROOT
BRANCH   1  16
ATOM     13  C   UNL     1       6.271  -5.050  21.432  0.00  0.00    +0.000 A 
ATOM     14  C   UNL     1       5.933  -3.580  21.530  0.00  0.00    +0.000 A 
ATOM     15  C   UNL     1       6.537  -2.528  22.342  0.00  0.00    +0.000 A 
ATOM     16  C   UNL     1       8.002  -3.232  22.950  0.00  0.00    +0.000 A 
ATOM     17  C   UNL     1       7.891  -4.556  23.535  0.00  0.00    +0.000 A 
ATOM     18  C   UNL     1       7.244  -5.434  22.531  0.00  0.00    +0.000 A 
ENDBRANCH   1  16
BRANCH  10  19
ATOM     19  S   UNL     1       6.078  -0.543  27.015  0.00  0.00    +0.000 S 
ATOM     20  O   UNL     1       5.286  -1.448  27.908  0.00  0.00    +0.000 OA
ATOM     21  O   UNL     1       7.011   0.239  27.763  0.00  0.00    +0.000 OA
BRANCH  19  22
ATOM     22  C   UNL     1       5.075   0.545  26.100  0.00  0.00    +0.000 A 
ATOM     23  C   UNL     1       5.706   0.345  24.704  0.00  0.00    +0.000 A 
ATOM     24  C   UNL     1       6.589   1.254  23.982  0.00  0.00    +0.000 A 
ATOM     25  C   UNL     1       6.614   2.466  24.647  0.00  0.00    +0.000 A 
ATOM     26  C   UNL     1       5.621   2.999  25.790  0.00  0.00    +0.000 A 
ATOM     27  C   UNL     1       4.861   1.969  26.368  0.00  0.00    +0.000 A 
ATOM     28  N   UNL     1       4.976   4.123  25.134  0.00  0.00    +0.000 N 
ATOM     29  C   UNL     1       4.040   4.580  26.044  0.00  0.00    +0.000 C 
ATOM     30  C   UNL     1       5.985   4.697  24.425  0.00  0.00    +0.000 C 
ATOM     31  C   UNL     1       7.405   4.582  24.928  0.00  0.00    +0.000 C 
ATOM     32  C   UNL     1       7.978   3.258  24.916  0.00  0.00    +0.000 C 
ENDBRANCH  19  22
ENDBRANCH  10  19
TORSDOF 3
ENDMDL
MODEL 8
REMARK VINA RESULT:      -8.3      2.524      6.520
REMARK  Name = 
REMARK  4 active torsions:
REMARK  status: ('A' for Active; 'I' for Inactive)
REMARK    1  A    between atoms: C_7  and  C_8
REMARK    2  A    between atoms: C_24  and  S_26
REMARK    3  A    between atoms: S_26  and  C_29
REMARK    4  A    between atoms: N_38  and  C_39
REMARK                            x       y       z     vdW  Elec       q    Type
REMARK                         _______ _______ _______ _____ _____    ______ ____
ROOT
ATOM      1  C   UNL     1       5.741  -1.828  25.719  0.00  0.00    +0.000 C 
ATOM      2  C   UNL     1       5.275  -3.131  25.091  0.00  0.00    +0.000 A 
ATOM      3  C   UNL     1       4.726  -3.277  23.891  0.00  0.00    +0.000 A 
ATOM      4  C   UNL     1       4.404  -4.577  23.408  0.00  0.00    +0.000 A 
ATOM      5  C   UNL     1       5.256  -5.618  24.129  0.00  0.00    +0.000 A 
ATOM      6  C   UNL     1       6.307  -5.462  25.106  0.00  0.00    +0.000 A 
ATOM      7  C   UNL     1       6.559  -4.095  25.222  0.00  0.00    +0.000 A 
ATOM      8  C   UNL     1       8.047  -3.560  24.936  0.00  0.00    +0.000 C 
ATOM      9  N   UNL     1       8.320  -2.442  25.567  0.00  0.00    +0.000 N 
ATOM     10  C   UNL     1       8.635  -1.185  24.922  0.00  0.00    +0.000 C 
ATOM     11  O   UNL     1       9.274  -0.480  25.697  0.00  0.00    +0.000 OA
ATOM     12  C   UNL     1       7.132  -1.984  26.325  0.00  0.00    +0.000 C 
ENDROOT
BRANCH   1  16
ATOM     13  C   UNL     1       4.090   1.993  26.938  0.00  0.00    +0.000 A 
ATOM     14  C   UNL     1       3.488   0.663  27.333  0.00  0.00    +0.000 A 
ATOM     15  C   UNL     1       3.806  -0.686  26.876  0.00  0.00    +0.000 A 
ATOM     16  C   UNL     1       5.299  -0.514  26.009  0.00  0.00    +0.000 A 
ATOM     17  C   UNL     1       5.362   0.561  25.035  0.00  0.00    +0.000 A 
ATOM     18  C   UNL     1       4.992   1.816  25.731  0.00  0.00    +0.000 A 
ENDBRANCH   1  16
BRANCH  10  19
ATOM     19  S   UNL     1       9.896  -1.518  23.703  0.00  0.00    +0.000 S 
ATOM     20  O   UNL     1      10.908  -0.502  24.133  0.00  0.00    +0.000 OA
ATOM     21  O   UNL     1      10.412  -2.846  23.818  0.00  0.00    +0.000 OA
BRANCH  19  22
ATOM     22  C   UNL     1       9.366  -1.287  22.062  0.00  0.00    +0.000 A 
ATOM     23  C   UNL     1      10.108   0.031  21.748  0.00  0.00    +0.000 A 
ATOM     24  C   UNL     1       9.547   1.374  21.653  0.00  0.00    +0.000 A 
ATOM     25  C   UNL     1       8.168   1.278  21.668  0.00  0.00    +0.000 A 
ATOM     26  C   UNL     1       7.255  -0.025  21.455  0.00  0.00    +0.000 A 
ATOM     27  C   UNL     1       7.980  -1.220  21.594  0.00  0.00    +0.000 A 
ATOM     28  N   UNL     1       6.560   0.287  20.219  0.00  0.00    +0.000 N 
ATOM     29  C   UNL     1       5.812  -0.842  19.934  0.00  0.00    +0.000 C 
ATOM     30  C   UNL     1       6.288   1.615  20.335  0.00  0.00    +0.000 C 
ATOM     31  C   UNL     1       6.094   2.215  21.707  0.00  0.00    +0.000 C 
ATOM     32  C   UNL     1       7.259   2.250  22.557  0.00  0.00    +0.000 C 
ENDBRANCH  19  22
ENDBRANCH  10  19
TORSDOF 3
ENDMDL
MODEL 9
REMARK VINA RESULT:      -8.3      3.208      7.758
REMARK  Name = 
REMARK  4 active torsions:
REMARK  status: ('A' for Active; 'I' for Inactive)
REMARK    1  A    between atoms: C_7  and  C_8
REMARK    2  A    between atoms: C_24  and  S_26
REMARK    3  A    between atoms: S_26  and  C_29
REMARK    4  A    between atoms: N_38  and  C_39
REMARK                            x       y       z     vdW  Elec       q    Type
REMARK                         _______ _______ _______ _____ _____    ______ ____
ROOT
ATOM      1  C   UNL     1       4.076  -4.942  27.022  0.00  0.00    +0.000 C 
ATOM      2  C   UNL     1       3.391  -5.125  25.678  0.00  0.00    +0.000 A 
ATOM      3  C   UNL     1       3.017  -4.162  24.845  0.00  0.00    +0.000 A 
ATOM      4  C   UNL     1       2.447  -4.492  23.583  0.00  0.00    +0.000 A 
ATOM      5  C   UNL     1       2.875  -5.900  23.179  0.00  0.00    +0.000 A 
ATOM      6  C   UNL     1       3.765  -6.836  23.825  0.00  0.00    +0.000 A 
ATOM      7  C   UNL     1       4.343  -6.172  24.907  0.00  0.00    +0.000 A 
ATOM      8  C   UNL     1       5.944  -6.063  24.977  0.00  0.00    +0.000 C 
ATOM      9  N   UNL     1       6.397  -5.939  26.203  0.00  0.00    +0.000 N 
ATOM     10  C   UNL     1       7.125  -4.792  26.701  0.00  0.00    +0.000 C 
ATOM     11  O   UNL     1       7.796  -5.129  27.672  0.00  0.00    +0.000 OA
ATOM     12  C   UNL     1       5.266  -5.887  27.159  0.00  0.00    +0.000 C 
ENDROOT
BRANCH   1  16
ATOM     13  C   UNL     1       3.659  -2.389  30.503  0.00  0.00    +0.000 A 
ATOM     14  C   UNL     1       3.918  -1.860  29.110  0.00  0.00    +0.000 A 
ATOM     15  C   UNL     1       4.253  -2.572  27.880  0.00  0.00    +0.000 A 
ATOM     16  C   UNL     1       3.952  -4.241  28.246  0.00  0.00    +0.000 A 
ATOM     17  C   UNL     1       4.510  -4.743  29.489  0.00  0.00    +0.000 A 
ATOM     18  C   UNL     1       4.039  -3.856  30.580  0.00  0.00    +0.000 A 
ENDBRANCH   1  16
BRANCH  10  19
ATOM     19  S   UNL     1       8.431  -4.446  25.534  0.00  0.00    +0.000 S 
ATOM     20  O   UNL     1       9.609  -4.741  26.409  0.00  0.00    +0.000 OA
ATOM     21  O   UNL     1       8.386  -5.325  24.408  0.00  0.00    +0.000 OA
BRANCH  19  22
ATOM     22  C   UNL     1       8.426  -2.810  24.940  0.00  0.00    +0.000 A 
ATOM     23  C   UNL     1       6.968  -2.430  25.279  0.00  0.00    +0.000 A 
ATOM     24  C   UNL     1       5.841  -2.298  24.363  0.00  0.00    +0.000 A 
ATOM     25  C   UNL     1       6.318  -2.349  23.067  0.00  0.00    +0.000 A 
ATOM     26  C   UNL     1       7.832  -2.206  22.553  0.00  0.00    +0.000 A 
ATOM     27  C   UNL     1       8.770  -2.373  23.586  0.00  0.00    +0.000 A 
ATOM     28  N   UNL     1       7.780  -0.976  21.784  0.00  0.00    +0.000 N 
ATOM     29  C   UNL     1       9.083  -0.750  21.379  0.00  0.00    +0.000 C 
ATOM     30  C   UNL     1       6.577  -1.048  21.153  0.00  0.00    +0.000 C 
ATOM     31  C   UNL     1       5.997  -2.401  20.814  0.00  0.00    +0.000 C 
ATOM     32  C   UNL     1       5.602  -3.221  21.933  0.00  0.00    +0.000 C 
ENDBRANCH  19  22
ENDBRANCH  10  19
TORSDOF 3
ENDMDL
