MODEL 1
REMARK VINA RESULT:      -8.6      0.000      0.000
REMARK  Name = 
REMARK  6 active torsions:
REMARK  status: ('A' for Active; 'I' for Inactive)
REMARK    1  A    between atoms: C_11  and  N_13
REMARK    2  A    between atoms: N_13  and  C_47
REMARK    3  A    between atoms: C_14  and  C_16
REMARK    4  A    between atoms: C_16  and  N_19
REMARK    5  A    between atoms: N_19  and  C_21
REMARK    6  A    between atoms: C_28  and  C_29
REMARK                            x       y       z     vdW  Elec       q    Type
REMARK                         _______ _______ _______ _____ _____    ______ ____
ROOT
ATOM      1  C   UNL     1       9.202  -2.747  23.622  0.00  0.00    +0.000 C 
ENDROOT
BRANCH   1   3
ATOM      2  N   UNL     1       7.770  -3.729  25.283  0.00  0.00    +0.000 N 
ATOM      3  C   UNL     1       9.025  -3.613  24.886  0.00  0.00    +0.000 C 
ATOM      4  O   UNL     1       9.737  -4.657  24.891  0.00  0.00    +0.000 OA
BRANCH   2  11
ATOM      5  C   UNL     1       6.525  -2.848  23.338  0.00  0.00    +0.000 C 
ATOM      6  C   UNL     1       5.966  -3.106  22.072  0.00  0.00    +0.000 C 
ATOM      7  S   UNL     1       5.959  -4.970  22.059  0.00  0.00    +0.000 S 
ATOM      8  O   UNL     1       4.646  -5.376  22.316  0.00  0.00    +0.000 OA
ATOM      9  O   UNL     1       6.712  -5.406  20.988  0.00  0.00    +0.000 OA
ATOM     10  C   UNL     1       6.914  -5.287  23.598  0.00  0.00    +0.000 C 
ATOM     11  C   UNL     1       6.691  -3.988  24.381  0.00  0.00    +0.000 C 
ENDBRANCH   2  11
BRANCH   2  12
ATOM     12  C   UNL     1       7.594  -4.059  26.590  0.00  0.00    +0.000 A 
ATOM     13  C   UNL     1       6.619  -3.047  27.021  0.00  0.00    +0.000 A 
ATOM     14  C   UNL     1       5.195  -3.217  27.444  0.00  0.00    +0.000 A 
ATOM     15  C   UNL     1       5.006  -4.687  27.585  0.00  0.00    +0.000 A 
ATOM     16  C   UNL     1       5.811  -5.845  27.541  0.00  0.00    +0.000 A 
ATOM     17  C   UNL     1       7.212  -5.401  27.096  0.00  0.00    +0.000 A 
ENDBRANCH   2  12
ENDBRANCH   1   3
BRANCH   1  18
ATOM     18  N   UNL     1       9.765  -1.460  23.966  0.00  0.00    +0.000 N 
ATOM     19  H   UNL     1      10.354  -1.430  24.753  0.00  0.00    +0.000 HD
BRANCH  18  20
ATOM     20  C   UNL     1      10.422  -0.706  23.012  0.00  0.00    +0.000 A 
ATOM     21  C   UNL     1      10.852   0.377  24.001  0.00  0.00    +0.000 A 
ATOM     22  C   UNL     1      10.457   1.800  24.035  0.00  0.00    +0.000 A 
ATOM     23  C   UNL     1       9.769   2.040  22.735  0.00  0.00    +0.000 A 
ATOM     24  C   UNL     1       9.230   1.350  21.679  0.00  0.00    +0.000 A 
ATOM     25  C   UNL     1       9.716  -0.145  21.853  0.00  0.00    +0.000 A 
BRANCH  24  26
ATOM     26  C   UNL     1       7.843   1.398  21.759  0.00  0.00    +0.000 C 
ATOM     27  O   UNL     1       7.293   1.009  22.816  0.00  0.00    +0.000 OA
ATOM     28  N   UNL     1       7.151   1.134  20.598  0.00  0.00    +0.000 N 
ATOM     29  C   UNL     1       5.886   1.883  20.517  0.00  0.00    +0.000 C 
ATOM     30  C   UNL     1       5.017   1.398  19.385  0.00  0.00    +0.000 C 
ATOM     31  S   UNL     1       5.970   1.208  17.882  0.00  0.00    +0.000 S 
ATOM     32  C   UNL     1       7.153  -0.009  18.442  0.00  0.00    +0.000 C 
ATOM     33  C   UNL     1       7.208  -0.141  19.951  0.00  0.00    +0.000 C 
ENDBRANCH  24  26
ENDBRANCH  18  20
ENDBRANCH   1  18
TORSDOF 6
ENDMDL
MODEL 2
REMARK VINA RESULT:      -8.5      2.153      3.289
REMARK  Name = 
REMARK  6 active torsions:
REMARK  status: ('A' for Active; 'I' for Inactive)
REMARK    1  A    between atoms: C_11  and  N_13
REMARK    2  A    between atoms: N_13  and  C_47
REMARK    3  A    between atoms: C_14  and  C_16
REMARK    4  A    between atoms: C_16  and  N_19
REMARK    5  A    between atoms: N_19  and  C_21
REMARK    6  A    between atoms: C_28  and  C_29
REMARK                            x       y       z     vdW  Elec       q    Type
REMARK                         _______ _______ _______ _____ _____    ______ ____
ROOT
ATOM      1  C   UNL     1       8.665  -1.504  25.766  0.00  0.00    +0.000 C 
ENDROOT
BRANCH   1   3
ATOM      2  N   UNL     1       6.468  -2.439  25.496  0.00  0.00    +0.000 N 
ATOM      3  C   UNL     1       7.167  -1.319  25.450  0.00  0.00    +0.000 C 
ATOM      4  O   UNL     1       6.657  -0.292  25.984  0.00  0.00    +0.000 OA
BRANCH   2  11
ATOM      5  C   UNL     1       5.371  -3.428  27.479  0.00  0.00    +0.000 C 
ATOM      6  C   UNL     1       5.023  -4.596  28.181  0.00  0.00    +0.000 C 
ATOM      7  S   UNL     1       6.128  -5.851  27.356  0.00  0.00    +0.000 S 
ATOM      8  O   UNL     1       7.199  -6.086  28.224  0.00  0.00    +0.000 OA
ATOM      9  O   UNL     1       5.338  -6.841  26.809  0.00  0.00    +0.000 OA
ATOM     10  C   UNL     1       6.785  -4.818  25.984  0.00  0.00    +0.000 C 
ATOM     11  C   UNL     1       6.612  -3.402  26.544  0.00  0.00    +0.000 C 
ENDBRANCH   2  11
BRANCH   2  12
ATOM     12  C   UNL     1       5.302  -2.436  24.798  0.00  0.00    +0.000 A 
ATOM     13  C   UNL     1       5.785  -2.316  23.415  0.00  0.00    +0.000 A 
ATOM     14  C   UNL     1       5.715  -3.303  22.294  0.00  0.00    +0.000 A 
ATOM     15  C   UNL     1       4.817  -4.383  22.785  0.00  0.00    +0.000 A 
ATOM     16  C   UNL     1       3.990  -4.616  23.905  0.00  0.00    +0.000 A 
ATOM     17  C   UNL     1       4.238  -3.467  24.892  0.00  0.00    +0.000 A 
ENDBRANCH   2  12
ENDBRANCH   1   3
BRANCH   1  18
ATOM     18  N   UNL     1       9.424  -0.364  25.301  0.00  0.00    +0.000 N 
ATOM     19  H   UNL     1      10.083   0.015  25.925  0.00  0.00    +0.000 HD
BRANCH  18  20
ATOM     20  C   UNL     1      10.084  -0.411  24.087  0.00  0.00    +0.000 A 
ATOM     21  C   UNL     1      10.806   0.919  24.301  0.00  0.00    +0.000 A 
ATOM     22  C   UNL     1      10.667   2.174  23.533  0.00  0.00    +0.000 A 
ATOM     23  C   UNL     1       9.883   1.801  22.323  0.00  0.00    +0.000 A 
ATOM     24  C   UNL     1       9.113   0.775  21.834  0.00  0.00    +0.000 A 
ATOM     25  C   UNL     1       9.353  -0.443  22.814  0.00  0.00    +0.000 A 
BRANCH  24  26
ATOM     26  C   UNL     1       7.774   1.146  21.876  0.00  0.00    +0.000 C 
ATOM     27  O   UNL     1       7.151   1.006  22.954  0.00  0.00    +0.000 OA
ATOM     28  N   UNL     1       7.039   0.925  20.733  0.00  0.00    +0.000 N 
ATOM     29  C   UNL     1       5.979   1.928  20.545  0.00  0.00    +0.000 C 
ATOM     30  C   UNL     1       5.021   1.537  19.449  0.00  0.00    +0.000 C 
ATOM     31  S   UNL     1       5.904   0.977  17.997  0.00  0.00    +0.000 S 
ATOM     32  C   UNL     1       6.778  -0.411  18.707  0.00  0.00    +0.000 C 
ATOM     33  C   UNL     1       6.802  -0.391  20.222  0.00  0.00    +0.000 C 
ENDBRANCH  24  26
ENDBRANCH  18  20
ENDBRANCH   1  18
TORSDOF 6
ENDMDL
MODEL 3
REMARK VINA RESULT:      -7.9      2.888      4.301
REMARK  Name = 
REMARK  6 active torsions:
REMARK  status: ('A' for Active; 'I' for Inactive)
REMARK    1  A    between atoms: C_11  and  N_13
REMARK    2  A    between atoms: N_13  and  C_47
REMARK    3  A    between atoms: C_14  and  C_16
REMARK    4  A    between atoms: C_16  and  N_19
REMARK    5  A    between atoms: N_19  and  C_21
REMARK    6  A    between atoms: C_28  and  C_29
REMARK                            x       y       z     vdW  Elec       q    Type
REMARK                         _______ _______ _______ _____ _____    ______ ____
ROOT
ATOM      1  C   UNL     1       9.231  -2.011  22.361  0.00  0.00    +0.000 C 
ENDROOT
BRANCH   1   3
ATOM      2  N   UNL     1       7.255  -3.150  23.118  0.00  0.00    +0.000 N 
ATOM      3  C   UNL     1       7.699  -2.185  22.332  0.00  0.00    +0.000 C 
ATOM      4  O   UNL     1       7.062  -1.093  22.335  0.00  0.00    +0.000 OA
BRANCH   2  11
ATOM      5  C   UNL     1       6.680  -2.870  25.506  0.00  0.00    +0.000 C 
ATOM      6  C   UNL     1       6.645  -3.441  26.791  0.00  0.00    +0.000 C 
ATOM      7  S   UNL     1       7.775  -4.906  26.563  0.00  0.00    +0.000 S 
ATOM      8  O   UNL     1       9.002  -4.571  27.144  0.00  0.00    +0.000 OA
ATOM      9  O   UNL     1       7.068  -6.056  26.846  0.00  0.00    +0.000 OA
ATOM     10  C   UNL     1       8.019  -4.817  24.742  0.00  0.00    +0.000 C 
ATOM     11  C   UNL     1       7.725  -3.340  24.456  0.00  0.00    +0.000 C 
ENDBRANCH   2  11
BRANCH   2  12
ATOM     12  C   UNL     1       6.034  -3.655  22.800  0.00  0.00    +0.000 A 
ATOM     13  C   UNL     1       6.306  -4.294  21.504  0.00  0.00    +0.000 A 
ATOM     14  C   UNL     1       6.296  -5.743  21.137  0.00  0.00    +0.000 A 
ATOM     15  C   UNL     1       5.702  -6.436  22.312  0.00  0.00    +0.000 A 
ATOM     16  C   UNL     1       5.086  -6.073  23.529  0.00  0.00    +0.000 A 
ATOM     17  C   UNL     1       5.220  -4.549  23.662  0.00  0.00    +0.000 A 
ENDBRANCH   2  12
ENDBRANCH   1   3
BRANCH   1  18
ATOM     18  N   UNL     1       9.631  -0.911  21.512  0.00  0.00    +0.000 N 
ATOM     19  H   UNL     1       8.931  -0.506  20.952  0.00  0.00    +0.000 HD
BRANCH  18  20
ATOM     20  C   UNL     1      10.321   0.164  22.038  0.00  0.00    +0.000 A 
ATOM     21  C   UNL     1      10.277  -0.365  23.471  0.00  0.00    +0.000 A 
ATOM     22  C   UNL     1       9.600   0.220  24.648  0.00  0.00    +0.000 A 
ATOM     23  C   UNL     1       9.197   1.589  24.219  0.00  0.00    +0.000 A 
ATOM     24  C   UNL     1       9.072   2.349  23.083  0.00  0.00    +0.000 A 
ATOM     25  C   UNL     1       9.802   1.535  21.941  0.00  0.00    +0.000 A 
BRANCH  24  26
ATOM     26  C   UNL     1       7.725   2.483  22.767  0.00  0.00    +0.000 C 
ATOM     27  O   UNL     1       7.342   2.129  21.627  0.00  0.00    +0.000 OA
ATOM     28  N   UNL     1       7.074   3.574  23.300  0.00  0.00    +0.000 N 
ATOM     29  C   UNL     1       5.656   3.298  23.582  0.00  0.00    +0.000 C 
ATOM     30  C   UNL     1       4.893   4.555  23.913  0.00  0.00    +0.000 C 
ATOM     31  S   UNL     1       5.796   5.561  25.086  0.00  0.00    +0.000 S 
ATOM     32  C   UNL     1       7.277   5.859  24.132  0.00  0.00    +0.000 C 
ATOM     33  C   UNL     1       7.431   4.916  22.956  0.00  0.00    +0.000 C 
ENDBRANCH  24  26
ENDBRANCH  18  20
ENDBRANCH   1  18
TORSDOF 6
ENDMDL
MODEL 4
REMARK VINA RESULT:      -7.9      2.895      3.906
REMARK  Name = 
REMARK  6 active torsions:
REMARK  status: ('A' for Active; 'I' for Inactive)
REMARK    1  A    between atoms: C_11  and  N_13
REMARK    2  A    between atoms: N_13  and  C_47
REMARK    3  A    between atoms: C_14  and  C_16
REMARK    4  A    between atoms: C_16  and  N_19
REMARK    5  A    between atoms: N_19  and  C_21
REMARK    6  A    between atoms: C_28  and  C_29
REMARK                            x       y       z     vdW  Elec       q    Type
REMARK                         _______ _______ _______ _____ _____    ______ ____
ROOT
ATOM      1  C   UNL     1       7.616  -2.158  21.989  0.00  0.00    +0.000 C 
ENDROOT
BRANCH   1   3
ATOM      2  N   UNL     1       6.843  -3.624  23.728  0.00  0.00    +0.000 N 
ATOM      3  C   UNL     1       7.270  -3.578  22.478  0.00  0.00    +0.000 C 
ATOM      4  O   UNL     1       6.649  -4.274  21.625  0.00  0.00    +0.000 OA
BRANCH   2  11
ATOM      5  C   UNL     1       4.528  -3.386  24.565  0.00  0.00    +0.000 C 
ATOM      6  C   UNL     1       3.675  -2.878  25.561  0.00  0.00    +0.000 C 
ATOM      7  S   UNL     1       4.801  -1.656  26.407  0.00  0.00    +0.000 S 
ATOM      8  O   UNL     1       4.434  -0.384  25.959  0.00  0.00    +0.000 OA
ATOM      9  O   UNL     1       4.917  -2.010  27.736  0.00  0.00    +0.000 OA
ATOM     10  C   UNL     1       6.383  -2.071  25.564  0.00  0.00    +0.000 C 
ATOM     11  C   UNL     1       5.888  -2.699  24.257  0.00  0.00    +0.000 C 
ENDBRANCH   2  11
BRANCH   2  12
ATOM     12  C   UNL     1       6.969  -4.826  24.351  0.00  0.00    +0.000 A 
ATOM     13  C   UNL     1       8.421  -5.044  24.280  0.00  0.00    +0.000 A 
ATOM     14  C   UNL     1       9.432  -5.083  25.381  0.00  0.00    +0.000 A 
ATOM     15  C   UNL     1       8.635  -5.100  26.638  0.00  0.00    +0.000 A 
ATOM     16  C   UNL     1       7.276  -5.205  27.003  0.00  0.00    +0.000 A 
ATOM     17  C   UNL     1       6.457  -5.153  25.706  0.00  0.00    +0.000 A 
ENDBRANCH   2  12
ENDBRANCH   1   3
BRANCH   1  18
ATOM     18  N   UNL     1       8.942  -1.781  22.427  0.00  0.00    +0.000 N 
ATOM     19  H   UNL     1       9.603  -2.505  22.514  0.00  0.00    +0.000 HD
BRANCH  18  20
ATOM     20  C   UNL     1       9.625  -0.761  21.793  0.00  0.00    +0.000 A 
ATOM     21  C   UNL     1      10.394  -0.345  23.046  0.00  0.00    +0.000 A 
ATOM     22  C   UNL     1      10.322   0.931  23.788  0.00  0.00    +0.000 A 
ATOM     23  C   UNL     1       9.550   1.848  22.903  0.00  0.00    +0.000 A 
ATOM     24  C   UNL     1       8.752   1.819  21.787  0.00  0.00    +0.000 A 
ATOM     25  C   UNL     1       8.922   0.371  21.177  0.00  0.00    +0.000 A 
BRANCH  24  26
ATOM     26  C   UNL     1       7.427   2.010  22.165  0.00  0.00    +0.000 C 
ATOM     27  O   UNL     1       6.524   1.585  21.407  0.00  0.00    +0.000 OA
ATOM     28  N   UNL     1       7.141   3.179  22.833  0.00  0.00    +0.000 N 
ATOM     29  C   UNL     1       6.048   3.016  23.806  0.00  0.00    +0.000 C 
ATOM     30  C   UNL     1       5.565   4.342  24.337  0.00  0.00    +0.000 C 
ATOM     31  S   UNL     1       6.943   5.386  24.800  0.00  0.00    +0.000 S 
ATOM     32  C   UNL     1       7.757   5.510  23.214  0.00  0.00    +0.000 C 
ATOM     33  C   UNL     1       7.295   4.463  22.220  0.00  0.00    +0.000 C 
ENDBRANCH  24  26
ENDBRANCH  18  20
ENDBRANCH   1  18
TORSDOF 6
ENDMDL
MODEL 5
REMARK VINA RESULT:      -7.8      3.072      7.683
REMARK  Name = 
REMARK  6 active torsions:
REMARK  status: ('A' for Active; 'I' for Inactive)
REMARK    1  A    between atoms: C_11  and  N_13
REMARK    2  A    between atoms: N_13  and  C_47
REMARK    3  A    between atoms: C_14  and  C_16
REMARK    4  A    between atoms: C_16  and  N_19
REMARK    5  A    between atoms: N_19  and  C_21
REMARK    6  A    between atoms: C_28  and  C_29
REMARK                            x       y       z     vdW  Elec       q    Type
REMARK                         _______ _______ _______ _____ _____    ______ ____
ROOT
ATOM      1  C   UNL     1       7.553  -1.867  22.209  0.00  0.00    +0.000 C 
ENDROOT
BRANCH   1   3
ATOM      2  N   UNL     1       8.635   0.212  22.741  0.00  0.00    +0.000 N 
ATOM      3  C   UNL     1       8.698  -0.862  21.973  0.00  0.00    +0.000 C 
ATOM      4  O   UNL     1       9.830  -1.404  21.823  0.00  0.00    +0.000 OA
BRANCH   2  11
ATOM      5  C   UNL     1       6.917  -0.401  24.411  0.00  0.00    +0.000 C 
ATOM      6  C   UNL     1       6.619  -1.067  25.613  0.00  0.00    +0.000 C 
ATOM      7  S   UNL     1       8.327  -1.323  26.314  0.00  0.00    +0.000 S 
ATOM      8  O   UNL     1       8.506  -0.364  27.315  0.00  0.00    +0.000 OA
ATOM      9  O   UNL     1       8.535  -2.676  26.486  0.00  0.00    +0.000 OA
ATOM     10  C   UNL     1       9.330  -0.768  24.875  0.00  0.00    +0.000 C 
ATOM     11  C   UNL     1       8.346   0.149  24.140  0.00  0.00    +0.000 C 
ENDBRANCH   2  11
BRANCH   2  12
ATOM     12  C   UNL     1       9.297   1.305  22.281  0.00  0.00    +0.000 A 
ATOM     13  C   UNL     1       8.189   2.149  21.812  0.00  0.00    +0.000 A 
ATOM     14  C   UNL     1       7.697   3.457  22.343  0.00  0.00    +0.000 A 
ATOM     15  C   UNL     1       8.728   3.887  23.327  0.00  0.00    +0.000 A 
ATOM     16  C   UNL     1      10.004   3.456  23.748  0.00  0.00    +0.000 A 
ATOM     17  C   UNL     1      10.274   2.111  23.058  0.00  0.00    +0.000 A 
ENDBRANCH   2  12
ENDBRANCH   1   3
BRANCH   1  18
ATOM     18  N   UNL     1       8.084  -3.155  22.597  0.00  0.00    +0.000 N 
ATOM     19  H   UNL     1       8.400  -3.244  23.525  0.00  0.00    +0.000 HD
BRANCH  18  20
ATOM     20  C   UNL     1       7.359  -4.309  22.366  0.00  0.00    +0.000 A 
ATOM     21  C   UNL     1       6.019  -3.581  22.264  0.00  0.00    +0.000 A 
ATOM     22  C   UNL     1       4.840  -3.695  23.149  0.00  0.00    +0.000 A 
ATOM     23  C   UNL     1       5.117  -4.881  24.008  0.00  0.00    +0.000 A 
ATOM     24  C   UNL     1       6.148  -5.715  24.361  0.00  0.00    +0.000 A 
ATOM     25  C   UNL     1       7.318  -5.403  23.345  0.00  0.00    +0.000 A 
BRANCH  24  26
ATOM     26  C   UNL     1       6.563  -5.410  25.653  0.00  0.00    +0.000 C 
ATOM     27  O   UNL     1       7.717  -5.748  26.004  0.00  0.00    +0.000 OA
ATOM     28  N   UNL     1       5.601  -5.470  26.637  0.00  0.00    +0.000 N 
ATOM     29  C   UNL     1       5.837  -4.492  27.712  0.00  0.00    +0.000 C 
ATOM     30  C   UNL     1       4.946  -4.737  28.902  0.00  0.00    +0.000 C 
ATOM     31  S   UNL     1       3.254  -5.016  28.387  0.00  0.00    +0.000 S 
ATOM     32  C   UNL     1       3.498  -6.466  27.370  0.00  0.00    +0.000 C 
ATOM     33  C   UNL     1       4.946  -6.693  26.988  0.00  0.00    +0.000 C 
ENDBRANCH  24  26
ENDBRANCH  18  20
ENDBRANCH   1  18
TORSDOF 6
ENDMDL
MODEL 6
REMARK VINA RESULT:      -7.8      2.015      3.317
REMARK  Name = 
REMARK  6 active torsions:
REMARK  status: ('A' for Active; 'I' for Inactive)
REMARK    1  A    between atoms: C_11  and  N_13
REMARK    2  A    between atoms: N_13  and  C_47
REMARK    3  A    between atoms: C_14  and  C_16
REMARK    4  A    between atoms: C_16  and  N_19
REMARK    5  A    between atoms: N_19  and  C_21
REMARK    6  A    between atoms: C_28  and  C_29
REMARK                            x       y       z     vdW  Elec       q    Type
REMARK                         _______ _______ _______ _____ _____    ______ ____
ROOT
ATOM      1  C   UNL     1       8.334  -1.419  23.912  0.00  0.00    +0.000 C 
ENDROOT
BRANCH   1   3
ATOM      2  N   UNL     1       7.122  -3.448  24.348  0.00  0.00    +0.000 N 
ATOM      3  C   UNL     1       7.802  -2.784  23.430  0.00  0.00    +0.000 C 
ATOM      4  O   UNL     1       7.329  -2.761  22.258  0.00  0.00    +0.000 OA
BRANCH   2  11
ATOM      5  C   UNL     1       6.720  -2.465  26.582  0.00  0.00    +0.000 C 
ATOM      6  C   UNL     1       6.181  -1.402  27.329  0.00  0.00    +0.000 C 
ATOM      7  S   UNL     1       5.096  -0.583  26.053  0.00  0.00    +0.000 S 
ATOM      8  O   UNL     1       3.779  -0.963  26.331  0.00  0.00    +0.000 OA
ATOM      9  O   UNL     1       5.511   0.723  25.894  0.00  0.00    +0.000 OA
ATOM     10  C   UNL     1       5.610  -1.533  24.564  0.00  0.00    +0.000 C 
ATOM     11  C   UNL     1       6.141  -2.830  25.186  0.00  0.00    +0.000 C 
ENDBRANCH   2  11
BRANCH   2  12
ATOM     12  C   UNL     1       7.038  -4.791  24.164  0.00  0.00    +0.000 A 
ATOM     13  C   UNL     1       5.584  -4.989  24.080  0.00  0.00    +0.000 A 
ATOM     14  C   UNL     1       4.748  -5.418  22.917  0.00  0.00    +0.000 A 
ATOM     15  C   UNL     1       5.721  -5.858  21.881  0.00  0.00    +0.000 A 
ATOM     16  C   UNL     1       7.114  -6.067  21.788  0.00  0.00    +0.000 A 
ATOM     17  C   UNL     1       7.732  -5.560  23.099  0.00  0.00    +0.000 A 
ENDBRANCH   2  12
ENDBRANCH   1   3
BRANCH   1  18
ATOM     18  N   UNL     1       9.779  -1.402  23.886  0.00  0.00    +0.000 N 
ATOM     19  H   UNL     1      10.232  -2.273  23.830  0.00  0.00    +0.000 HD
BRANCH  18  20
ATOM     20  C   UNL     1      10.453  -0.601  22.982  0.00  0.00    +0.000 A 
ATOM     21  C   UNL     1      10.889   0.415  24.037  0.00  0.00    +0.000 A 
ATOM     22  C   UNL     1      10.512   1.840  24.152  0.00  0.00    +0.000 A 
ATOM     23  C   UNL     1       9.837   2.165  22.864  0.00  0.00    +0.000 A 
ATOM     24  C   UNL     1       9.298   1.545  21.765  0.00  0.00    +0.000 A 
ATOM     25  C   UNL     1       9.763   0.037  21.854  0.00  0.00    +0.000 A 
BRANCH  24  26
ATOM     26  C   UNL     1       7.911   1.607  21.838  0.00  0.00    +0.000 C 
ATOM     27  O   UNL     1       7.358   1.314  22.924  0.00  0.00    +0.000 OA
ATOM     28  N   UNL     1       7.219   1.246  20.703  0.00  0.00    +0.000 N 
ATOM     29  C   UNL     1       5.958   1.991  20.555  0.00  0.00    +0.000 C 
ATOM     30  C   UNL     1       5.088   1.413  19.468  0.00  0.00    +0.000 C 
ATOM     31  S   UNL     1       6.042   1.088  17.989  0.00  0.00    +0.000 S 
ATOM     32  C   UNL     1       7.218  -0.081  18.655  0.00  0.00    +0.000 C 
ATOM     33  C   UNL     1       7.270  -0.081  20.170  0.00  0.00    +0.000 C 
ENDBRANCH  24  26
ENDBRANCH  18  20
ENDBRANCH   1  18
TORSDOF 6
ENDMDL
MODEL 7
REMARK VINA RESULT:      -7.7      2.414      7.638
REMARK  Name = 
REMARK  6 active torsions:
REMARK  status: ('A' for Active; 'I' for Inactive)
REMARK    1  A    between atoms: C_11  and  N_13
REMARK    2  A    between atoms: N_13  and  C_47
REMARK    3  A    between atoms: C_14  and  C_16
REMARK    4  A    between atoms: C_16  and  N_19
REMARK    5  A    between atoms: N_19  and  C_21
REMARK    6  A    between atoms: C_28  and  C_29
REMARK                            x       y       z     vdW  Elec       q    Type
REMARK                         _______ _______ _______ _____ _____    ______ ____
ROOT
ATOM      1  C   UNL     1       9.116  -1.847  23.705  0.00  0.00    +0.000 C 
ENDROOT
BRANCH   1   3
ATOM      2  N   UNL     1       9.063   0.541  23.963  0.00  0.00    +0.000 N 
ATOM      3  C   UNL     1       8.950  -0.607  24.606  0.00  0.00    +0.000 C 
ATOM      4  O   UNL     1       8.015  -0.712  25.450  0.00  0.00    +0.000 OA
BRANCH   2  11
ATOM      5  C   UNL     1       9.254   0.194  21.522  0.00  0.00    +0.000 C 
ATOM      6  C   UNL     1       8.619  -0.189  20.327  0.00  0.00    +0.000 C 
ATOM      7  S   UNL     1       6.827  -0.116  20.835  0.00  0.00    +0.000 S 
ATOM      8  O   UNL     1       6.300   1.066  20.307  0.00  0.00    +0.000 OA
ATOM      9  O   UNL     1       6.267  -1.365  20.657  0.00  0.00    +0.000 OA
ATOM     10  C   UNL     1       7.036   0.166  22.640  0.00  0.00    +0.000 C 
ATOM     11  C   UNL     1       8.435   0.789  22.702  0.00  0.00    +0.000 C 
ENDBRANCH   2  11
BRANCH   2  12
ATOM     12  C   UNL     1       9.390   1.616  24.727  0.00  0.00    +0.000 A 
ATOM     13  C   UNL     1      10.657   2.041  24.114  0.00  0.00    +0.000 A 
ATOM     14  C   UNL     1      10.975   3.287  23.351  0.00  0.00    +0.000 A 
ATOM     15  C   UNL     1       9.790   4.168  23.538  0.00  0.00    +0.000 A 
ATOM     16  C   UNL     1       8.600   4.159  24.297  0.00  0.00    +0.000 A 
ATOM     17  C   UNL     1       8.517   2.789  24.985  0.00  0.00    +0.000 A 
ENDBRANCH   2  12
ENDBRANCH   1   3
BRANCH   1  18
ATOM     18  N   UNL     1       9.197  -3.047  24.507  0.00  0.00    +0.000 N 
ATOM     19  H   UNL     1       8.946  -2.966  25.454  0.00  0.00    +0.000 HD
BRANCH  18  20
ATOM     20  C   UNL     1       8.587  -4.214  24.085  0.00  0.00    +0.000 A 
ATOM     21  C   UNL     1       7.426  -3.492  23.403  0.00  0.00    +0.000 A 
ATOM     22  C   UNL     1       5.989  -3.534  23.744  0.00  0.00    +0.000 A 
ATOM     23  C   UNL     1       5.858  -4.651  24.722  0.00  0.00    +0.000 A 
ATOM     24  C   UNL     1       6.633  -5.458  25.518  0.00  0.00    +0.000 A 
ATOM     25  C   UNL     1       8.122  -5.229  25.038  0.00  0.00    +0.000 A 
BRANCH  24  26
ATOM     26  C   UNL     1       6.505  -5.055  26.842  0.00  0.00    +0.000 C 
ATOM     27  O   UNL     1       7.506  -5.148  27.592  0.00  0.00    +0.000 OA
ATOM     28  N   UNL     1       5.289  -5.294  27.443  0.00  0.00    +0.000 N 
ATOM     29  C   UNL     1       4.950  -4.272  28.447  0.00  0.00    +0.000 C 
ATOM     30  C   UNL     1       3.760  -4.674  29.279  0.00  0.00    +0.000 C 
ATOM     31  S   UNL     1       2.438  -5.298  28.246  0.00  0.00    +0.000 S 
ATOM     32  C   UNL     1       3.284  -6.683  27.500  0.00  0.00    +0.000 C 
ATOM     33  C   UNL     1       4.791  -6.619  27.654  0.00  0.00    +0.000 C 
ENDBRANCH  24  26
ENDBRANCH  18  20
ENDBRANCH   1  18
TORSDOF 6
ENDMDL
MODEL 8
REMARK VINA RESULT:      -7.6      3.317      7.901
REMARK  Name = 
REMARK  6 active torsions:
REMARK  status: ('A' for Active; 'I' for Inactive)
REMARK    1  A    between atoms: C_11  and  N_13
REMARK    2  A    between atoms: N_13  and  C_47
REMARK    3  A    between atoms: C_14  and  C_16
REMARK    4  A    between atoms: C_16  and  N_19
REMARK    5  A    between atoms: N_19  and  C_21
REMARK    6  A    between atoms: C_28  and  C_29
REMARK                            x       y       z     vdW  Elec       q    Type
REMARK                         _______ _______ _______ _____ _____    ______ ____
ROOT
ATOM      1  C   UNL     1       7.351  -2.667  24.258  0.00  0.00    +0.000 C 
ENDROOT
BRANCH   1   3
ATOM      2  N   UNL     1       9.009  -0.932  24.363  0.00  0.00    +0.000 N 
ATOM      3  C   UNL     1       8.824  -2.224  24.158  0.00  0.00    +0.000 C 
ATOM      4  O   UNL     1       9.635  -3.023  24.707  0.00  0.00    +0.000 OA
BRANCH   2  11
ATOM      5  C   UNL     1       7.114   0.550  24.935  0.00  0.00    +0.000 C 
ATOM      6  C   UNL     1       6.054   0.831  25.815  0.00  0.00    +0.000 C 
ATOM      7  S   UNL     1       6.513  -0.231  27.278  0.00  0.00    +0.000 S 
ATOM      8  O   UNL     1       7.059   0.619  28.245  0.00  0.00    +0.000 OA
ATOM      9  O   UNL     1       5.486  -1.122  27.514  0.00  0.00    +0.000 OA
ATOM     10  C   UNL     1       7.921  -1.160  26.545  0.00  0.00    +0.000 C 
ATOM     11  C   UNL     1       8.375  -0.216  25.426  0.00  0.00    +0.000 C 
ENDBRANCH   2  11
BRANCH   2  12
ATOM     12  C   UNL     1      10.152  -0.410  23.845  0.00  0.00    +0.000 A 
ATOM     13  C   UNL     1       9.786  -0.239  22.432  0.00  0.00    +0.000 A 
ATOM     14  C   UNL     1       9.607   1.017  21.641  0.00  0.00    +0.000 A 
ATOM     15  C   UNL     1      10.122   2.104  22.518  0.00  0.00    +0.000 A 
ATOM     16  C   UNL     1      10.794   2.208  23.755  0.00  0.00    +0.000 A 
ATOM     17  C   UNL     1      10.857   0.795  24.352  0.00  0.00    +0.000 A 
ENDBRANCH   2  12
ENDBRANCH   1   3
BRANCH   1  18
ATOM     18  N   UNL     1       6.870  -3.117  22.971  0.00  0.00    +0.000 N 
ATOM     19  H   UNL     1       7.498  -3.058  22.217  0.00  0.00    +0.000 HD
BRANCH  18  20
ATOM     20  C   UNL     1       6.285  -4.363  22.839  0.00  0.00    +0.000 A 
ATOM     21  C   UNL     1       4.858  -3.830  22.955  0.00  0.00    +0.000 A 
ATOM     22  C   UNL     1       3.858  -4.100  24.008  0.00  0.00    +0.000 A 
ATOM     23  C   UNL     1       4.426  -5.229  24.798  0.00  0.00    +0.000 A 
ATOM     24  C   UNL     1       5.605  -5.908  24.977  0.00  0.00    +0.000 A 
ATOM     25  C   UNL     1       6.549  -5.444  23.797  0.00  0.00    +0.000 A 
BRANCH  24  26
ATOM     26  C   UNL     1       6.168  -5.537  26.193  0.00  0.00    +0.000 C 
ATOM     27  O   UNL     1       7.382  -5.783  26.388  0.00  0.00    +0.000 OA
ATOM     28  N   UNL     1       5.357  -5.637  27.302  0.00  0.00    +0.000 N 
ATOM     29  C   UNL     1       5.664  -4.615  28.315  0.00  0.00    +0.000 C 
ATOM     30  C   UNL     1       4.963  -4.888  29.621  0.00  0.00    +0.000 C 
ATOM     31  S   UNL     1       3.243  -5.302  29.349  0.00  0.00    +0.000 S 
ATOM     32  C   UNL     1       3.452  -6.758  28.336  0.00  0.00    +0.000 C 
ATOM     33  C   UNL     1       4.848  -6.893  27.762  0.00  0.00    +0.000 C 
ENDBRANCH  24  26
ENDBRANCH  18  20
ENDBRANCH   1  18
TORSDOF 6
ENDMDL
MODEL 9
REMARK VINA RESULT:      -7.6      2.956      4.260
REMARK  Name = 
REMARK  6 active torsions:
REMARK  status: ('A' for Active; 'I' for Inactive)
REMARK    1  A    between atoms: C_11  and  N_13
REMARK    2  A    between atoms: N_13  and  C_47
REMARK    3  A    between atoms: C_14  and  C_16
REMARK    4  A    between atoms: C_16  and  N_19
REMARK    5  A    between atoms: N_19  and  C_21
REMARK    6  A    between atoms: C_28  and  C_29
REMARK                            x       y       z     vdW  Elec       q    Type
REMARK                         _______ _______ _______ _____ _____    ______ ____
ROOT
ATOM      1  C   UNL     1       8.068  -1.344  22.628  0.00  0.00    +0.000 C 
ENDROOT
BRANCH   1   3
ATOM      2  N   UNL     1       7.529  -3.430  23.692  0.00  0.00    +0.000 N 
ATOM      3  C   UNL     1       7.458  -2.758  22.556  0.00  0.00    +0.000 C 
ATOM      4  O   UNL     1       6.370  -2.811  21.915  0.00  0.00    +0.000 OA
BRANCH   2  11
ATOM      5  C   UNL     1       8.496  -2.409  25.726  0.00  0.00    +0.000 C 
ATOM      6  C   UNL     1       8.451  -1.358  26.660  0.00  0.00    +0.000 C 
ATOM      7  S   UNL     1       6.767  -0.640  26.310  0.00  0.00    +0.000 S 
ATOM      8  O   UNL     1       5.913  -1.088  27.323  0.00  0.00    +0.000 OA
ATOM      9  O   UNL     1       6.918   0.683  25.948  0.00  0.00    +0.000 OA
ATOM     10  C   UNL     1       6.336  -1.601  24.801  0.00  0.00    +0.000 C 
ATOM     11  C   UNL     1       7.215  -2.846  24.959  0.00  0.00    +0.000 C 
ENDBRANCH   2  11
BRANCH   2  12
ATOM     12  C   UNL     1       7.452  -4.782  23.583  0.00  0.00    +0.000 A 
ATOM     13  C   UNL     1       6.237  -5.073  24.357  0.00  0.00    +0.000 A 
ATOM     14  C   UNL     1       4.916  -5.597  23.893  0.00  0.00    +0.000 A 
ATOM     15  C   UNL     1       5.139  -6.015  22.482  0.00  0.00    +0.000 A 
ATOM     16  C   UNL     1       6.231  -6.140  21.597  0.00  0.00    +0.000 A 
ATOM     17  C   UNL     1       7.455  -5.546  22.309  0.00  0.00    +0.000 A 
ENDBRANCH   2  12
ENDBRANCH   1   3
BRANCH   1  18
ATOM     18  N   UNL     1       9.490  -1.393  22.373  0.00  0.00    +0.000 N 
ATOM     19  H   UNL     1       9.792  -1.997  21.658  0.00  0.00    +0.000 HD
BRANCH  18  20
ATOM     20  C   UNL     1      10.206  -0.228  22.168  0.00  0.00    +0.000 A 
ATOM     21  C   UNL     1      10.531  -0.035  23.649  0.00  0.00    +0.000 A 
ATOM     22  C   UNL     1      10.104   1.056  24.549  0.00  0.00    +0.000 A 
ATOM     23  C   UNL     1       9.518   2.091  23.650  0.00  0.00    +0.000 A 
ATOM     24  C   UNL     1       9.082   2.246  22.358  0.00  0.00    +0.000 A 
ATOM     25  C   UNL     1       9.584   0.965  21.580  0.00  0.00    +0.000 A 
BRANCH  24  26
ATOM     26  C   UNL     1       7.692   2.280  22.345  0.00  0.00    +0.000 C 
ATOM     27  O   UNL     1       7.093   1.773  21.368  0.00  0.00    +0.000 OA
ATOM     28  N   UNL     1       7.099   3.398  22.889  0.00  0.00    +0.000 N 
ATOM     29  C   UNL     1       5.802   3.096  23.516  0.00  0.00    +0.000 C 
ATOM     30  C   UNL     1       5.043   4.348  23.872  0.00  0.00    +0.000 C 
ATOM     31  S   UNL     1       6.109   5.530  24.692  0.00  0.00    +0.000 S 
ATOM     32  C   UNL     1       7.318   5.774  23.400  0.00  0.00    +0.000 C 
ATOM     33  C   UNL     1       7.275   4.703  22.329  0.00  0.00    +0.000 C 
ENDBRANCH  24  26
ENDBRANCH  18  20
ENDBRANCH   1  18
TORSDOF 6
ENDMDL
