MODEL 1
REMARK VINA RESULT:      -8.9      0.000      0.000
REMARK  Name = 
REMARK  4 active torsions:
REMARK  status: ('A' for Active; 'I' for Inactive)
REMARK    1  A    between atoms: C_6  and  N_7
REMARK    2  A    between atoms: C_9  and  C_11
REMARK    3  A    between atoms: C_15  and  C_16
REMARK    4  A    between atoms: C_32  and  C_34
REMARK                            x       y       z     vdW  Elec       q    Type
REMARK                         _______ _______ _______ _____ _____    ______ ____
ROOT
ATOM      1  C   UNL     1       7.372  -2.663  23.592  0.00  0.00    +0.000 C 
ATOM      2  O   UNL     1       7.739  -2.755  24.758  0.00  0.00    +0.000 OA
ATOM      3  N   UNL     1       8.078  -2.063  22.666  0.00  0.00    +0.000 N 
ATOM      4  C   UNL     1       9.557  -2.049  22.785  0.00  0.00    +0.000 C 
ATOM      5  C   UNL     1      10.082  -0.802  22.746  0.00  0.00    +0.000 A 
ATOM      6  C   UNL     1      10.178  -0.272  24.193  0.00  0.00    +0.000 A 
ATOM      7  C   UNL     1      10.443   1.127  24.530  0.00  0.00    +0.000 A 
ATOM      8  C   UNL     1      10.374   1.934  23.273  0.00  0.00    +0.000 A 
ATOM      9  C   UNL     1      10.018   1.638  21.919  0.00  0.00    +0.000 A 
ATOM     10  C   UNL     1       9.510   0.241  21.865  0.00  0.00    +0.000 A 
ATOM     11  C   UNL     1       8.336  -0.160  21.089  0.00  0.00    +0.000 C 
ATOM     12  C   UNL     1       7.516  -1.277  21.572  0.00  0.00    +0.000 C 
ENDROOT
BRANCH   1  17
ATOM     13  C   UNL     1       7.014  -5.705  21.659  0.00  0.00    +0.000 A 
ATOM     14  N   UNL     1       6.120  -6.576  22.438  0.00  0.00    +0.000 NA
ATOM     15  C   UNL     1       5.711  -5.883  23.474  0.00  0.00    +0.000 A 
ATOM     16  C   UNL     1       5.563  -4.419  23.955  0.00  0.00    +0.000 A 
ATOM     17  C   UNL     1       6.320  -3.507  23.147  0.00  0.00    +0.000 A 
ATOM     18  C   UNL     1       6.840  -4.315  21.904  0.00  0.00    +0.000 A 
BRANCH  16  19
ATOM     19  N   UNL     1       4.210  -4.239  24.338  0.00  0.00    +0.000 N 
ATOM     20  H   UNL     1       3.696  -4.985  24.058  0.00  0.00    +0.000 HD
ATOM     21  C   UNL     1       4.087  -4.010  25.644  0.00  0.00    +0.000 C 
ATOM     22  O   UNL     1       4.080  -4.946  26.452  0.00  0.00    +0.000 OA
ATOM     23  C   UNL     1       3.209  -2.803  25.996  0.00  0.00    +0.000 C 
ENDBRANCH  16  19
ENDBRANCH   1  17
BRANCH  11  24
ATOM     24  C   UNL     1       7.627   0.858  20.339  0.00  0.00    +0.000 A 
ATOM     25  C   UNL     1       7.364   0.322  18.954  0.00  0.00    +0.000 A 
ATOM     26  C   UNL     1       6.134   0.504  18.162  0.00  0.00    +0.000 A 
ATOM     27  C   UNL     1       5.165   1.254  19.032  0.00  0.00    +0.000 A 
ATOM     28  C   UNL     1       5.183   1.857  20.322  0.00  0.00    +0.000 A 
ATOM     29  C   UNL     1       6.646   1.835  20.788  0.00  0.00    +0.000 A 
ENDBRANCH  11  24
TORSDOF 3
ENDMDL
MODEL 2
REMARK VINA RESULT:      -8.6      2.781      6.857
REMARK  Name = 
REMARK  4 active torsions:
REMARK  status: ('A' for Active; 'I' for Inactive)
REMARK    1  A    between atoms: C_6  and  N_7
REMARK    2  A    between atoms: C_9  and  C_11
REMARK    3  A    between atoms: C_15  and  C_16
REMARK    4  A    between atoms: C_32  and  C_34
REMARK                            x       y       z     vdW  Elec       q    Type
REMARK                         _______ _______ _______ _____ _____    ______ ____
ROOT
ATOM      1  C   UNL     1       8.713  -0.122  24.623  0.00  0.00    +0.000 C 
ATOM      2  O   UNL     1       9.766  -0.191  25.247  0.00  0.00    +0.000 OA
ATOM      3  N   UNL     1       7.663  -0.852  24.911  0.00  0.00    +0.000 N 
ATOM      4  C   UNL     1       7.451  -1.284  26.313  0.00  0.00    +0.000 C 
ATOM      5  C   UNL     1       7.317  -2.625  26.443  0.00  0.00    +0.000 A 
ATOM      6  C   UNL     1       8.716  -3.228  26.699  0.00  0.00    +0.000 A 
ATOM      7  C   UNL     1       9.010  -4.660  26.623  0.00  0.00    +0.000 A 
ATOM      8  C   UNL     1       7.813  -5.356  26.056  0.00  0.00    +0.000 A 
ATOM      9  C   UNL     1       6.568  -4.908  25.512  0.00  0.00    +0.000 A 
ATOM     10  C   UNL     1       6.604  -3.424  25.421  0.00  0.00    +0.000 A 
ATOM     11  C   UNL     1       6.102  -2.674  24.268  0.00  0.00    +0.000 C 
ATOM     12  C   UNL     1       6.735  -1.397  23.924  0.00  0.00    +0.000 C 
ENDROOT
BRANCH   1  17
ATOM     13  C   UNL     1       8.564   3.482  24.955  0.00  0.00    +0.000 A 
ATOM     14  N   UNL     1       9.412   4.022  23.881  0.00  0.00    +0.000 NA
ATOM     15  C   UNL     1       9.808   3.005  23.153  0.00  0.00    +0.000 A 
ATOM     16  C   UNL     1       9.427   1.540  22.829  0.00  0.00    +0.000 A 
ATOM     17  C   UNL     1       8.498   1.002  23.782  0.00  0.00    +0.000 A 
ATOM     18  C   UNL     1       8.019   2.197  24.683  0.00  0.00    +0.000 A 
BRANCH  16  19
ATOM     19  N   UNL     1       9.298   1.441  21.421  0.00  0.00    +0.000 N 
ATOM     20  H   UNL     1      10.153   1.503  21.016  0.00  0.00    +0.000 HD
ATOM     21  C   UNL     1       8.653   0.335  21.056  0.00  0.00    +0.000 C 
ATOM     22  O   UNL     1       9.248  -0.746  20.971  0.00  0.00    +0.000 OA
ATOM     23  C   UNL     1       7.519   0.566  20.050  0.00  0.00    +0.000 C 
ENDBRANCH  16  19
ENDBRANCH   1  17
BRANCH  11  24
ATOM     24  C   UNL     1       5.546  -3.418  23.154  0.00  0.00    +0.000 A 
ATOM     25  C   UNL     1       6.685  -3.856  22.267  0.00  0.00    +0.000 A 
ATOM     26  C   UNL     1       6.817  -5.156  21.587  0.00  0.00    +0.000 A 
ATOM     27  C   UNL     1       5.643  -5.991  22.015  0.00  0.00    +0.000 A 
ATOM     28  C   UNL     1       4.472  -5.804  22.804  0.00  0.00    +0.000 A 
ATOM     29  C   UNL     1       4.391  -4.301  23.106  0.00  0.00    +0.000 A 
ENDBRANCH  11  24
TORSDOF 3
ENDMDL
MODEL 3
REMARK VINA RESULT:      -8.1      2.783      6.453
REMARK  Name = 
REMARK  4 active torsions:
REMARK  status: ('A' for Active; 'I' for Inactive)
REMARK    1  A    between atoms: C_6  and  N_7
REMARK    2  A    between atoms: C_9  and  C_11
REMARK    3  A    between atoms: C_15  and  C_16
REMARK    4  A    between atoms: C_32  and  C_34
REMARK                            x       y       z     vdW  Elec       q    Type
REMARK                         _______ _______ _______ _____ _____    ______ ____
ROOT
ATOM      1  C   UNL     1       9.380  -1.026  22.390  0.00  0.00    +0.000 C 
ATOM      2  O   UNL     1      10.430  -1.617  22.163  0.00  0.00    +0.000 OA
ATOM      3  N   UNL     1       8.699  -1.181  23.499  0.00  0.00    +0.000 N 
ATOM      4  C   UNL     1       9.425  -1.524  24.746  0.00  0.00    +0.000 C 
ATOM      5  C   UNL     1       8.955  -2.645  25.344  0.00  0.00    +0.000 A 
ATOM      6  C   UNL     1       9.754  -3.851  24.805  0.00  0.00    +0.000 A 
ATOM      7  C   UNL     1       9.359  -5.245  25.013  0.00  0.00    +0.000 A 
ATOM      8  C   UNL     1       7.989  -5.261  25.613  0.00  0.00    +0.000 A 
ATOM      9  C   UNL     1       7.018  -4.250  25.901  0.00  0.00    +0.000 A 
ATOM     10  C   UNL     1       7.509  -2.959  25.348  0.00  0.00    +0.000 A 
ATOM     11  C   UNL     1       6.652  -2.009  24.637  0.00  0.00    +0.000 C 
ATOM     12  C   UNL     1       7.242  -1.172  23.587  0.00  0.00    +0.000 C 
ENDROOT
BRANCH   1  17
ATOM     13  C   UNL     1       6.962  -0.161  19.835  0.00  0.00    +0.000 A 
ATOM     14  N   UNL     1       6.397   1.137  20.236  0.00  0.00    +0.000 NA
ATOM     15  C   UNL     1       7.055   1.533  21.300  0.00  0.00    +0.000 A 
ATOM     16  C   UNL     1       8.395   1.296  22.039  0.00  0.00    +0.000 A 
ATOM     17  C   UNL     1       9.053   0.103  21.592  0.00  0.00    +0.000 A 
ATOM     18  C   UNL     1       8.274  -0.408  20.327  0.00  0.00    +0.000 A 
BRANCH  16  19
ATOM     19  N   UNL     1       9.018   2.561  22.192  0.00  0.00    +0.000 N 
ATOM     20  H   UNL     1       8.393   3.250  22.011  0.00  0.00    +0.000 HD
ATOM     21  C   UNL     1       9.576   2.699  23.394  0.00  0.00    +0.000 C 
ATOM     22  O   UNL     1       8.898   3.032  24.372  0.00  0.00    +0.000 OA
ATOM     23  C   UNL     1      11.022   3.209  23.365  0.00  0.00    +0.000 C 
ENDBRANCH  16  19
ENDBRANCH   1  17
BRANCH  11  24
ATOM     24  C   UNL     1       5.253  -2.346  24.458  0.00  0.00    +0.000 A 
ATOM     25  C   UNL     1       5.147  -3.302  23.296  0.00  0.00    +0.000 A 
ATOM     26  C   UNL     1       4.261  -4.477  23.206  0.00  0.00    +0.000 A 
ATOM     27  C   UNL     1       3.548  -4.586  24.525  0.00  0.00    +0.000 A 
ATOM     28  C   UNL     1       3.473  -3.826  25.727  0.00  0.00    +0.000 A 
ATOM     29  C   UNL     1       4.197  -2.502  25.447  0.00  0.00    +0.000 A 
ENDBRANCH  11  24
TORSDOF 3
ENDMDL
MODEL 4
REMARK VINA RESULT:      -8.0      2.485      3.580
REMARK  Name = 
REMARK  4 active torsions:
REMARK  status: ('A' for Active; 'I' for Inactive)
REMARK    1  A    between atoms: C_6  and  N_7
REMARK    2  A    between atoms: C_9  and  C_11
REMARK    3  A    between atoms: C_15  and  C_16
REMARK    4  A    between atoms: C_32  and  C_34
REMARK                            x       y       z     vdW  Elec       q    Type
REMARK                         _______ _______ _______ _____ _____    ______ ____
ROOT
ATOM      1  C   UNL     1       6.078  -2.935  25.572  0.00  0.00    +0.000 C 
ATOM      2  O   UNL     1       5.263  -2.521  26.389  0.00  0.00    +0.000 OA
ATOM      3  N   UNL     1       6.954  -2.160  24.981  0.00  0.00    +0.000 N 
ATOM      4  C   UNL     1       7.444  -0.955  25.693  0.00  0.00    +0.000 C 
ATOM      5  C   UNL     1       7.275   0.187  24.985  0.00  0.00    +0.000 A 
ATOM      6  C   UNL     1       5.904   0.790  25.360  0.00  0.00    +0.000 A 
ATOM      7  C   UNL     1       5.258   1.869  24.610  0.00  0.00    +0.000 A 
ATOM      8  C   UNL     1       6.035   2.097  23.353  0.00  0.00    +0.000 A 
ATOM      9  C   UNL     1       7.144   1.436  22.736  0.00  0.00    +0.000 A 
ATOM     10  C   UNL     1       7.449   0.207  23.515  0.00  0.00    +0.000 A 
ATOM     11  C   UNL     1       7.770  -1.081  22.898  0.00  0.00    +0.000 C 
ATOM     12  C   UNL     1       7.399  -2.314  23.599  0.00  0.00    +0.000 C 
ENDROOT
BRANCH   1  17
ATOM     13  C   UNL     1       6.446  -5.707  27.876  0.00  0.00    +0.000 A 
ATOM     14  N   UNL     1       5.578  -6.778  27.362  0.00  0.00    +0.000 NA
ATOM     15  C   UNL     1       5.089  -6.363  26.217  0.00  0.00    +0.000 A 
ATOM     16  C   UNL     1       5.371  -5.335  25.094  0.00  0.00    +0.000 A 
ATOM     17  C   UNL     1       6.314  -4.335  25.503  0.00  0.00    +0.000 A 
ATOM     18  C   UNL     1       6.904  -4.795  26.885  0.00  0.00    +0.000 A 
BRANCH  16  19
ATOM     19  N   UNL     1       5.424  -6.053  23.873  0.00  0.00    +0.000 N 
ATOM     20  H   UNL     1       4.659  -6.607  23.793  0.00  0.00    +0.000 HD
ATOM     21  C   UNL     1       5.564  -5.243  22.824  0.00  0.00    +0.000 C 
ATOM     22  O   UNL     1       4.584  -4.677  22.327  0.00  0.00    +0.000 OA
ATOM     23  C   UNL     1       6.677  -5.653  21.852  0.00  0.00    +0.000 C 
ENDBRANCH  16  19
ENDBRANCH   1  17
BRANCH  11  24
ATOM     24  C   UNL     1       7.786  -1.164  21.451  0.00  0.00    +0.000 A 
ATOM     25  C   UNL     1       6.497  -1.807  21.004  0.00  0.00    +0.000 A 
ATOM     26  C   UNL     1       5.687  -1.427  19.832  0.00  0.00    +0.000 A 
ATOM     27  C   UNL     1       6.347  -0.224  19.220  0.00  0.00    +0.000 A 
ATOM     28  C   UNL     1       7.533   0.532  19.442  0.00  0.00    +0.000 A 
ATOM     29  C   UNL     1       8.360  -0.254  20.470  0.00  0.00    +0.000 A 
ENDBRANCH  11  24
TORSDOF 3
ENDMDL
MODEL 5
REMARK VINA RESULT:      -7.8      2.335      3.923
REMARK  Name = 
REMARK  4 active torsions:
REMARK  status: ('A' for Active; 'I' for Inactive)
REMARK    1  A    between atoms: C_6  and  N_7
REMARK    2  A    between atoms: C_9  and  C_11
REMARK    3  A    between atoms: C_15  and  C_16
REMARK    4  A    between atoms: C_32  and  C_34
REMARK                            x       y       z     vdW  Elec       q    Type
REMARK                         _______ _______ _______ _____ _____    ______ ____
ROOT
ATOM      1  C   UNL     1       6.053  -3.812  25.890  0.00  0.00    +0.000 C 
ATOM      2  O   UNL     1       5.281  -3.396  26.747  0.00  0.00    +0.000 OA
ATOM      3  N   UNL     1       7.222  -3.267  25.657  0.00  0.00    +0.000 N 
ATOM      4  C   UNL     1       7.935  -2.593  26.769  0.00  0.00    +0.000 C 
ATOM      5  C   UNL     1       8.271  -1.312  26.487  0.00  0.00    +0.000 A 
ATOM      6  C   UNL     1       7.121  -0.396  26.960  0.00  0.00    +0.000 A 
ATOM      7  C   UNL     1       7.000   1.014  26.587  0.00  0.00    +0.000 A 
ATOM      8  C   UNL     1       8.021   1.312  25.536  0.00  0.00    +0.000 A 
ATOM      9  C   UNL     1       8.953   0.512  24.800  0.00  0.00    +0.000 A 
ATOM     10  C   UNL     1       8.703  -0.917  25.128  0.00  0.00    +0.000 A 
ATOM     11  C   UNL     1       8.701  -1.985  24.127  0.00  0.00    +0.000 C 
ATOM     12  C   UNL     1       7.835  -3.150  24.338  0.00  0.00    +0.000 C 
ENDROOT
BRANCH   1  17
ATOM     13  C   UNL     1       4.572  -6.936  26.973  0.00  0.00    +0.000 A 
ATOM     14  N   UNL     1       3.688  -7.365  25.879  0.00  0.00    +0.000 NA
ATOM     15  C   UNL     1       3.854  -6.516  24.893  0.00  0.00    +0.000 A 
ATOM     16  C   UNL     1       4.869  -5.473  24.365  0.00  0.00    +0.000 A 
ATOM     17  C   UNL     1       5.837  -5.113  25.360  0.00  0.00    +0.000 A 
ATOM     18  C   UNL     1       5.650  -6.103  26.566  0.00  0.00    +0.000 A 
BRANCH  16  19
ATOM     19  N   UNL     1       5.171  -5.824  23.025  0.00  0.00    +0.000 N 
ATOM     20  H   UNL     1       4.387  -6.132  22.590  0.00  0.00    +0.000 HD
ATOM     21  C   UNL     1       5.745  -4.819  22.363  0.00  0.00    +0.000 C 
ATOM     22  O   UNL     1       5.061  -3.919  21.863  0.00  0.00    +0.000 OA
ATOM     23  C   UNL     1       7.018  -5.208  21.602  0.00  0.00    +0.000 C 
ENDBRANCH  16  19
ENDBRANCH   1  17
BRANCH  11  24
ATOM     24  C   UNL     1       8.949  -1.631  22.744  0.00  0.00    +0.000 A 
ATOM     25  C   UNL     1       7.618  -1.520  22.042  0.00  0.00    +0.000 A 
ATOM     26  C   UNL     1       7.237  -0.510  21.039  0.00  0.00    +0.000 A 
ATOM     27  C   UNL     1       8.397   0.437  20.914  0.00  0.00    +0.000 A 
ATOM     28  C   UNL     1       9.717   0.533  21.440  0.00  0.00    +0.000 A 
ATOM     29  C   UNL     1       9.989  -0.792  22.168  0.00  0.00    +0.000 A 
ENDBRANCH  11  24
TORSDOF 3
ENDMDL
MODEL 6
REMARK VINA RESULT:      -7.7      3.399      7.419
REMARK  Name = 
REMARK  4 active torsions:
REMARK  status: ('A' for Active; 'I' for Inactive)
REMARK    1  A    between atoms: C_6  and  N_7
REMARK    2  A    between atoms: C_9  and  C_11
REMARK    3  A    between atoms: C_15  and  C_16
REMARK    4  A    between atoms: C_32  and  C_34
REMARK                            x       y       z     vdW  Elec       q    Type
REMARK                         _______ _______ _______ _____ _____    ______ ____
ROOT
ATOM      1  C   UNL     1       8.338   1.176  23.507  0.00  0.00    +0.000 C 
ATOM      2  O   UNL     1       7.653   1.553  22.563  0.00  0.00    +0.000 OA
ATOM      3  N   UNL     1       8.795  -0.048  23.614  0.00  0.00    +0.000 N 
ATOM      4  C   UNL     1       9.073  -0.822  22.380  0.00  0.00    +0.000 C 
ATOM      5  C   UNL     1       8.427  -2.012  22.340  0.00  0.00    +0.000 A 
ATOM      6  C   UNL     1       7.067  -1.799  21.639  0.00  0.00    +0.000 A 
ATOM      7  C   UNL     1       5.985  -2.785  21.648  0.00  0.00    +0.000 A 
ATOM      8  C   UNL     1       6.349  -3.873  22.607  0.00  0.00    +0.000 A 
ATOM      9  C   UNL     1       7.425  -4.065  23.531  0.00  0.00    +0.000 A 
ATOM     10  C   UNL     1       8.240  -2.821  23.565  0.00  0.00    +0.000 A 
ATOM     11  C   UNL     1       8.761  -2.231  24.799  0.00  0.00    +0.000 C 
ATOM     12  C   UNL     1       8.930  -0.776  24.872  0.00  0.00    +0.000 C 
ENDROOT
BRANCH   1  17
ATOM     13  C   UNL     1      11.120   3.490  23.343  0.00  0.00    +0.000 A 
ATOM     14  N   UNL     1      10.592   4.789  23.789  0.00  0.00    +0.000 NA
ATOM     15  C   UNL     1       9.354   4.591  24.176  0.00  0.00    +0.000 A 
ATOM     16  C   UNL     1       8.409   3.456  24.641  0.00  0.00    +0.000 A 
ATOM     17  C   UNL     1       8.939   2.157  24.340  0.00  0.00    +0.000 A 
ATOM     18  C   UNL     1      10.420   2.364  23.855  0.00  0.00    +0.000 A 
BRANCH  16  19
ATOM     19  N   UNL     1       7.870   3.845  25.892  0.00  0.00    +0.000 N 
ATOM     20  H   UNL     1       7.575   4.745  25.847  0.00  0.00    +0.000 HD
ATOM     21  C   UNL     1       6.902   3.024  26.296  0.00  0.00    +0.000 C 
ATOM     22  O   UNL     1       5.747   3.153  25.876  0.00  0.00    +0.000 OA
ATOM     23  C   UNL     1       7.049   2.535  27.742  0.00  0.00    +0.000 C 
ENDBRANCH  16  19
ENDBRANCH   1  17
BRANCH  11  24
ATOM     24  C   UNL     1       8.462  -2.891  26.055  0.00  0.00    +0.000 A 
ATOM     25  C   UNL     1       7.083  -2.462  26.493  0.00  0.00    +0.000 A 
ATOM     26  C   UNL     1       6.056  -3.316  27.114  0.00  0.00    +0.000 A 
ATOM     27  C   UNL     1       6.613  -4.712  27.149  0.00  0.00    +0.000 A 
ATOM     28  C   UNL     1       7.847  -5.342  26.820  0.00  0.00    +0.000 A 
ATOM     29  C   UNL     1       8.845  -4.212  26.529  0.00  0.00    +0.000 A 
ENDBRANCH  11  24
TORSDOF 3
ENDMDL
MODEL 7
REMARK VINA RESULT:      -7.7      2.294      7.584
REMARK  Name = 
REMARK  4 active torsions:
REMARK  status: ('A' for Active; 'I' for Inactive)
REMARK    1  A    between atoms: C_6  and  N_7
REMARK    2  A    between atoms: C_9  and  C_11
REMARK    3  A    between atoms: C_15  and  C_16
REMARK    4  A    between atoms: C_32  and  C_34
REMARK                            x       y       z     vdW  Elec       q    Type
REMARK                         _______ _______ _______ _____ _____    ______ ____
ROOT
ATOM      1  C   UNL     1       6.773  -2.423  22.322  0.00  0.00    +0.000 C 
ATOM      2  O   UNL     1       5.948  -2.399  21.416  0.00  0.00    +0.000 OA
ATOM      3  N   UNL     1       7.035  -3.499  23.023  0.00  0.00    +0.000 N 
ATOM      4  C   UNL     1       6.870  -4.829  22.387  0.00  0.00    +0.000 C 
ATOM      5  C   UNL     1       6.047  -5.652  23.079  0.00  0.00    +0.000 A 
ATOM      6  C   UNL     1       4.611  -5.460  22.545  0.00  0.00    +0.000 A 
ATOM      7  C   UNL     1       3.418  -5.974  23.219  0.00  0.00    +0.000 A 
ATOM      8  C   UNL     1       3.824  -6.488  24.564  0.00  0.00    +0.000 A 
ATOM      9  C   UNL     1       5.047  -6.474  25.306  0.00  0.00    +0.000 A 
ATOM     10  C   UNL     1       6.038  -5.654  24.559  0.00  0.00    +0.000 A 
ATOM     11  C   UNL     1       6.936  -4.692  25.199  0.00  0.00    +0.000 C 
ATOM     12  C   UNL     1       7.355  -3.505  24.447  0.00  0.00    +0.000 C 
ENDROOT
BRANCH   1  17
ATOM     13  C   UNL     1       7.767   0.442  20.339  0.00  0.00    +0.000 A 
ATOM     14  N   UNL     1       7.810   1.581  21.269  0.00  0.00    +0.000 NA
ATOM     15  C   UNL     1       7.579   1.109  22.471  0.00  0.00    +0.000 A 
ATOM     16  C   UNL     1       7.627  -0.217  23.268  0.00  0.00    +0.000 A 
ATOM     17  C   UNL     1       7.714  -1.361  22.407  0.00  0.00    +0.000 A 
ATOM     18  C   UNL     1       7.972  -0.825  20.953  0.00  0.00    +0.000 A 
BRANCH  16  19
ATOM     19  N   UNL     1       8.441   0.008  24.407  0.00  0.00    +0.000 N 
ATOM     20  H   UNL     1       8.097  -0.474  25.147  0.00  0.00    +0.000 HD
ATOM     21  C   UNL     1       9.719  -0.286  24.173  0.00  0.00    +0.000 C 
ATOM     22  O   UNL     1      10.123  -1.452  24.245  0.00  0.00    +0.000 OA
ATOM     23  C   UNL     1      10.709   0.804  24.603  0.00  0.00    +0.000 C 
ENDBRANCH  16  19
ENDBRANCH   1  17
BRANCH  11  24
ATOM     24  C   UNL     1       6.852  -4.526  26.637  0.00  0.00    +0.000 A 
ATOM     25  C   UNL     1       5.746  -3.542  26.931  0.00  0.00    +0.000 A 
ATOM     26  C   UNL     1       4.769  -3.624  28.031  0.00  0.00    +0.000 A 
ATOM     27  C   UNL     1       5.034  -4.917  28.751  0.00  0.00    +0.000 A 
ATOM     28  C   UNL     1       5.991  -5.968  28.675  0.00  0.00    +0.000 A 
ATOM     29  C   UNL     1       7.080  -5.489  27.703  0.00  0.00    +0.000 A 
ENDBRANCH  11  24
TORSDOF 3
ENDMDL
MODEL 8
REMARK VINA RESULT:      -7.6      2.886      4.297
REMARK  Name = 
REMARK  4 active torsions:
REMARK  status: ('A' for Active; 'I' for Inactive)
REMARK    1  A    between atoms: C_6  and  N_7
REMARK    2  A    between atoms: C_9  and  C_11
REMARK    3  A    between atoms: C_15  and  C_16
REMARK    4  A    between atoms: C_32  and  C_34
REMARK                            x       y       z     vdW  Elec       q    Type
REMARK                         _______ _______ _______ _____ _____    ______ ____
ROOT
ATOM      1  C   UNL     1       8.806  -3.554  24.268  0.00  0.00    +0.000 C 
ATOM      2  O   UNL     1      10.022  -3.708  24.223  0.00  0.00    +0.000 OA
ATOM      3  N   UNL     1       8.203  -2.484  23.812  0.00  0.00    +0.000 N 
ATOM      4  C   UNL     1       8.816  -1.739  22.685  0.00  0.00    +0.000 C 
ATOM      5  C   UNL     1       9.018  -0.428  22.960  0.00  0.00    +0.000 A 
ATOM      6  C   UNL     1      10.437  -0.272  23.549  0.00  0.00    +0.000 A 
ATOM      7  C   UNL     1      10.911   0.944  24.211  0.00  0.00    +0.000 A 
ATOM      8  C   UNL     1       9.746   1.863  24.398  0.00  0.00    +0.000 A 
ATOM      9  C   UNL     1       8.339   1.743  24.167  0.00  0.00    +0.000 A 
ATOM     10  C   UNL     1       8.047   0.340  23.771  0.00  0.00    +0.000 A 
ATOM     11  C   UNL     1       6.902  -0.419  24.275  0.00  0.00    +0.000 C 
ATOM     12  C   UNL     1       7.023  -1.874  24.417  0.00  0.00    +0.000 C 
ENDROOT
BRANCH   1  17
ATOM     13  C   UNL     1       7.579  -5.412  27.126  0.00  0.00    +0.000 A 
ATOM     14  N   UNL     1       6.137  -5.594  26.901  0.00  0.00    +0.000 NA
ATOM     15  C   UNL     1       5.868  -5.112  25.711  0.00  0.00    +0.000 A 
ATOM     16  C   UNL     1       6.564  -4.759  24.374  0.00  0.00    +0.000 A 
ATOM     17  C   UNL     1       7.990  -4.692  24.510  0.00  0.00    +0.000 A 
ATOM     18  C   UNL     1       8.343  -5.246  25.938  0.00  0.00    +0.000 A 
BRANCH  16  19
ATOM     19  N   UNL     1       5.876  -5.452  23.347  0.00  0.00    +0.000 N 
ATOM     20  H   UNL     1       4.981  -5.615  23.614  0.00  0.00    +0.000 HD
ATOM     21  C   UNL     1       5.937  -4.808  22.182  0.00  0.00    +0.000 C 
ATOM     22  O   UNL     1       5.160  -3.880  21.931  0.00  0.00    +0.000 OA
ATOM     23  C   UNL     1       6.354  -5.685  20.995  0.00  0.00    +0.000 C 
ENDBRANCH  16  19
ENDBRANCH   1  17
BRANCH  11  24
ATOM     24  C   UNL     1       6.007   0.229  25.213  0.00  0.00    +0.000 A 
ATOM     25  C   UNL     1       6.574   0.053  26.600  0.00  0.00    +0.000 A 
ATOM     26  C   UNL     1       6.587   1.060  27.676  0.00  0.00    +0.000 A 
ATOM     27  C   UNL     1       6.005   2.320  27.100  0.00  0.00    +0.000 A 
ATOM     28  C   UNL     1       5.410   2.717  25.868  0.00  0.00    +0.000 A 
ATOM     29  C   UNL     1       5.201   1.431  25.055  0.00  0.00    +0.000 A 
ENDBRANCH  11  24
TORSDOF 3
ENDMDL
MODEL 9
REMARK VINA RESULT:      -7.6      2.792      4.438
REMARK  Name = 
REMARK  4 active torsions:
REMARK  status: ('A' for Active; 'I' for Inactive)
REMARK    1  A    between atoms: C_6  and  N_7
REMARK    2  A    between atoms: C_9  and  C_11
REMARK    3  A    between atoms: C_15  and  C_16
REMARK    4  A    between atoms: C_32  and  C_34
REMARK                            x       y       z     vdW  Elec       q    Type
REMARK                         _______ _______ _______ _____ _____    ______ ____
ROOT
ATOM      1  C   UNL     1       8.095  -1.952  22.584  0.00  0.00    +0.000 C 
ATOM      2  O   UNL     1       9.137  -2.097  21.955  0.00  0.00    +0.000 OA
ATOM      3  N   UNL     1       7.477  -0.800  22.688  0.00  0.00    +0.000 N 
ATOM      4  C   UNL     1       7.605   0.186  21.588  0.00  0.00    +0.000 C 
ATOM      5  C   UNL     1       8.055   1.393  22.004  0.00  0.00    +0.000 A 
ATOM      6  C   UNL     1       9.595   1.398  21.894  0.00  0.00    +0.000 A 
ATOM      7  C   UNL     1      10.449   2.421  22.499  0.00  0.00    +0.000 A 
ATOM      8  C   UNL     1       9.601   3.277  23.386  0.00  0.00    +0.000 A 
ATOM      9  C   UNL     1       8.235   3.223  23.808  0.00  0.00    +0.000 A 
ATOM     10  C   UNL     1       7.641   1.954  23.310  0.00  0.00    +0.000 A 
ATOM     11  C   UNL     1       6.761   1.104  24.113  0.00  0.00    +0.000 C 
ATOM     12  C   UNL     1       6.768  -0.344  23.879  0.00  0.00    +0.000 C 
ENDROOT
BRANCH   1  17
ATOM     13  C   UNL     1       5.875  -4.302  20.949  0.00  0.00    +0.000 A 
ATOM     14  N   UNL     1       6.350  -5.641  21.332  0.00  0.00    +0.000 NA
ATOM     15  C   UNL     1       7.322  -5.473  22.197  0.00  0.00    +0.000 A 
ATOM     16  C   UNL     1       7.882  -4.418  23.184  0.00  0.00    +0.000 A 
ATOM     17  C   UNL     1       7.349  -3.110  22.932  0.00  0.00    +0.000 A 
ATOM     18  C   UNL     1       6.193  -3.277  21.882  0.00  0.00    +0.000 A 
BRANCH  16  19
ATOM     19  N   UNL     1       7.959  -5.035  24.457  0.00  0.00    +0.000 N 
ATOM     20  H   UNL     1       7.985  -5.977  24.356  0.00  0.00    +0.000 HD
ATOM     21  C   UNL     1       8.990  -4.583  25.169  0.00  0.00    +0.000 C 
ATOM     22  O   UNL     1      10.126  -5.038  24.997  0.00  0.00    +0.000 OA
ATOM     23  C   UNL     1       8.635  -4.166  26.602  0.00  0.00    +0.000 C 
ENDBRANCH  16  19
ENDBRANCH   1  17
BRANCH  11  24
ATOM     24  C   UNL     1       6.458   1.518  25.469  0.00  0.00    +0.000 A 
ATOM     25  C   UNL     1       4.963   1.441  25.659  0.00  0.00    +0.000 A 
ATOM     26  C   UNL     1       4.255   0.969  26.862  0.00  0.00    +0.000 A 
ATOM     27  C   UNL     1       5.306   0.501  27.829  0.00  0.00    +0.000 A 
ATOM     28  C   UNL     1       6.729   0.482  27.883  0.00  0.00    +0.000 A 
ATOM     29  C   UNL     1       7.217   1.325  26.696  0.00  0.00    +0.000 A 
ENDBRANCH  11  24
TORSDOF 3
ENDMDL
