MODEL 1
REMARK VINA RESULT:      -8.7      0.000      0.000
REMARK  Name = 
REMARK  6 active torsions:
REMARK  status: ('A' for Active; 'I' for Inactive)
REMARK    1  A    between atoms: N_10  and  S_11
REMARK    2  A    between atoms: S_11  and  C_14
REMARK    3  A    between atoms: C_19  and  C_20
REMARK    4  A    between atoms: C_26  and  C_27
REMARK    5  A    between atoms: C_31  and  C_33
REMARK    6  A    between atoms: C_48  and  C_50
REMARK                            x       y       z     vdW  Elec       q    Type
REMARK                         _______ _______ _______ _____ _____    ______ ____
ROOT
ATOM      1  C   UNL     1       8.300  -1.689  23.420  0.00  0.00    +0.000 C 
ATOM      2  C   UNL     1       8.653  -0.374  23.419  0.00  0.00    +0.000 C 
ATOM      3  C   UNL     1       9.579  -0.031  22.045  0.00  0.00    +0.000 C 
ATOM      4  C   UNL     1      10.227  -1.374  22.226  0.00  0.00    +0.000 C 
ATOM      5  C   UNL     1      10.324  -2.108  23.130  0.00  0.00    +0.000 C 
ATOM      6  N   UNL     1       9.393  -2.550  23.852  0.00  0.00    +0.000 N 
ATOM      7  C   UNL     1       8.499   0.355  21.222  0.00  0.00    +0.000 C 
ATOM      8  C   UNL     1       8.467   1.949  21.679  0.00  0.00    +0.000 C 
ATOM      9  N   UNL     1       8.305   2.038  23.107  0.00  0.00    +0.000 N 
ATOM     10  C   UNL     1       8.860   3.171  23.671  0.00  0.00    +0.000 C 
ATOM     11  O   UNL     1       9.944   3.048  24.230  0.00  0.00    +0.000 OA
ATOM     12  C   UNL     1       8.178   0.903  24.009  0.00  0.00    +0.000 C 
ENDROOT
BRANCH   7  13
ATOM     13  C   UNL     1       7.182   0.110  20.948  0.00  0.00    +0.000 A 
ATOM     14  C   UNL     1       6.540   1.423  20.479  0.00  0.00    +0.000 A 
ATOM     15  C   UNL     1       5.661   1.538  19.303  0.00  0.00    +0.000 A 
ATOM     16  C   UNL     1       5.364   0.159  18.826  0.00  0.00    +0.000 A 
ATOM     17  C   UNL     1       5.777  -1.165  19.268  0.00  0.00    +0.000 A 
ATOM     18  C   UNL     1       6.423  -1.058  20.574  0.00  0.00    +0.000 A 
ENDBRANCH   7  13
BRANCH   6  19
ATOM     19  S   UNL     1       8.635  -3.551  24.477  0.00  0.00    +0.000 S 
ATOM     20  O   UNL     1       8.064  -3.159  25.793  0.00  0.00    +0.000 OA
ATOM     21  O   UNL     1       9.159  -4.872  24.429  0.00  0.00    +0.000 OA
BRANCH  19  22
ATOM     22  C   UNL     1       7.049  -3.684  23.502  0.00  0.00    +0.000 A 
ATOM     23  C   UNL     1       6.115  -3.787  24.602  0.00  0.00    +0.000 A 
ATOM     24  C   UNL     1       5.327  -4.914  25.113  0.00  0.00    +0.000 A 
ATOM     25  C   UNL     1       5.239  -6.007  23.999  0.00  0.00    +0.000 A 
ATOM     26  C   UNL     1       3.663  -6.037  23.687  0.00  0.00    +0.000 C 
ATOM     27  C   UNL     1       6.171  -6.199  22.929  0.00  0.00    +0.000 A 
ATOM     28  C   UNL     1       7.071  -4.878  22.634  0.00  0.00    +0.000 A 
ATOM     29  C   UNL     1       6.620  -4.501  21.203  0.00  0.00    +0.000 C 
ENDBRANCH  19  22
ENDBRANCH   6  19
BRANCH  10  30
ATOM     30  C   UNL     1       8.274   4.495  23.377  0.00  0.00    +0.000 C 
ATOM     31 CL   UNL     1       9.468   5.802  23.578  0.00  0.00    +0.000 Cl
ENDBRANCH  10  30
TORSDOF 4
ENDMDL
MODEL 2
REMARK VINA RESULT:      -8.5      1.741      2.246
REMARK  Name = 
REMARK  6 active torsions:
REMARK  status: ('A' for Active; 'I' for Inactive)
REMARK    1  A    between atoms: N_10  and  S_11
REMARK    2  A    between atoms: S_11  and  C_14
REMARK    3  A    between atoms: C_19  and  C_20
REMARK    4  A    between atoms: C_26  and  C_27
REMARK    5  A    between atoms: C_31  and  C_33
REMARK    6  A    between atoms: C_48  and  C_50
REMARK                            x       y       z     vdW  Elec       q    Type
REMARK                         _______ _______ _______ _____ _____    ______ ____
ROOT
ATOM      1  C   UNL     1       8.163  -1.708  23.218  0.00  0.00    +0.000 C 
ATOM      2  C   UNL     1       8.381  -0.369  23.341  0.00  0.00    +0.000 C 
ATOM      3  C   UNL     1       9.365   0.169  22.075  0.00  0.00    +0.000 C 
ATOM      4  C   UNL     1      10.130  -1.117  22.208  0.00  0.00    +0.000 C 
ATOM      5  C   UNL     1      10.234  -1.909  23.061  0.00  0.00    +0.000 C 
ATOM      6  N   UNL     1       9.302  -2.494  23.671  0.00  0.00    +0.000 N 
ATOM      7  C   UNL     1       8.315   0.518  21.198  0.00  0.00    +0.000 C 
ATOM      8  C   UNL     1       8.091   2.059  21.767  0.00  0.00    +0.000 C 
ATOM      9  N   UNL     1       7.817   2.017  23.180  0.00  0.00    +0.000 N 
ATOM     10  C   UNL     1       8.214   3.147  23.868  0.00  0.00    +0.000 C 
ATOM     11  O   UNL     1       9.261   3.083  24.502  0.00  0.00    +0.000 OA
ATOM     12  C   UNL     1       7.739   0.805  23.983  0.00  0.00    +0.000 C 
ENDROOT
BRANCH   7  13
ATOM     13  C   UNL     1       7.053   0.172  20.802  0.00  0.00    +0.000 A 
ATOM     14  C   UNL     1       6.322   1.452  20.371  0.00  0.00    +0.000 A 
ATOM     15  C   UNL     1       5.526   1.571  19.138  0.00  0.00    +0.000 A 
ATOM     16  C   UNL     1       5.402   0.209  18.547  0.00  0.00    +0.000 A 
ATOM     17  C   UNL     1       5.909  -1.100  18.933  0.00  0.00    +0.000 A 
ATOM     18  C   UNL     1       6.442  -1.030  20.291  0.00  0.00    +0.000 A 
ENDBRANCH   7  13
BRANCH   6  19
ATOM     19  S   UNL     1       8.604  -3.608  24.159  0.00  0.00    +0.000 S 
ATOM     20  O   UNL     1       9.462  -4.777  24.486  0.00  0.00    +0.000 OA
ATOM     21  O   UNL     1       7.385  -3.934  23.503  0.00  0.00    +0.000 OA
BRANCH  19  22
ATOM     22  C   UNL     1       8.053  -3.160  25.884  0.00  0.00    +0.000 A 
ATOM     23  C   UNL     1       8.227  -4.449  26.519  0.00  0.00    +0.000 A 
ATOM     24  C   UNL     1       7.259  -5.445  26.991  0.00  0.00    +0.000 A 
ATOM     25  C   UNL     1       5.870  -4.748  27.162  0.00  0.00    +0.000 A 
ATOM     26  C   UNL     1       5.625  -4.881  28.745  0.00  0.00    +0.000 C 
ATOM     27  C   UNL     1       5.427  -3.571  26.478  0.00  0.00    +0.000 A 
ATOM     28  C   UNL     1       6.654  -2.690  25.879  0.00  0.00    +0.000 A 
ATOM     29  C   UNL     1       6.531  -1.381  26.694  0.00  0.00    +0.000 C 
ENDBRANCH  19  22
ENDBRANCH   6  19
BRANCH  10  30
ATOM     30  C   UNL     1       7.522   4.430  23.626  0.00  0.00    +0.000 C 
ATOM     31 CL   UNL     1       8.669   5.790  23.534  0.00  0.00    +0.000 Cl
ENDBRANCH  10  30
TORSDOF 4
ENDMDL
MODEL 3
REMARK VINA RESULT:      -8.4      1.719      2.081
REMARK  Name = 
REMARK  6 active torsions:
REMARK  status: ('A' for Active; 'I' for Inactive)
REMARK    1  A    between atoms: N_10  and  S_11
REMARK    2  A    between atoms: S_11  and  C_14
REMARK    3  A    between atoms: C_19  and  C_20
REMARK    4  A    between atoms: C_26  and  C_27
REMARK    5  A    between atoms: C_31  and  C_33
REMARK    6  A    between atoms: C_48  and  C_50
REMARK                            x       y       z     vdW  Elec       q    Type
REMARK                         _______ _______ _______ _____ _____    ______ ____
ROOT
ATOM      1  C   UNL     1       7.272  -2.236  24.303  0.00  0.00    +0.000 C 
ATOM      2  C   UNL     1       8.296  -1.347  24.179  0.00  0.00    +0.000 C 
ATOM      3  C   UNL     1       9.406  -1.908  23.032  0.00  0.00    +0.000 C 
ATOM      4  C   UNL     1       9.170  -3.289  23.574  0.00  0.00    +0.000 C 
ATOM      5  C   UNL     1       8.736  -3.698  24.579  0.00  0.00    +0.000 C 
ATOM      6  N   UNL     1       7.641  -3.387  25.116  0.00  0.00    +0.000 N 
ATOM      7  C   UNL     1       8.828  -1.254  21.922  0.00  0.00    +0.000 C 
ATOM      8  C   UNL     1       9.639   0.182  22.100  0.00  0.00    +0.000 C 
ATOM      9  N   UNL     1       9.391   0.716  23.414  0.00  0.00    +0.000 N 
ATOM     10  C   UNL     1      10.414   1.501  23.909  0.00  0.00    +0.000 C 
ATOM     11  O   UNL     1      11.173   0.990  24.725  0.00  0.00    +0.000 OA
ATOM     12  C   UNL     1       8.550   0.095  24.427  0.00  0.00    +0.000 C 
ENDROOT
BRANCH   7  13
ATOM     13  C   UNL     1       7.640  -0.847  21.381  0.00  0.00    +0.000 A 
ATOM     14  C   UNL     1       7.934   0.277  20.378  0.00  0.00    +0.000 A 
ATOM     15  C   UNL     1       7.352   0.350  19.028  0.00  0.00    +0.000 A 
ATOM     16  C   UNL     1       6.310  -0.709  18.927  0.00  0.00    +0.000 A 
ATOM     17  C   UNL     1       5.828  -1.730  19.846  0.00  0.00    +0.000 A 
ATOM     18  C   UNL     1       6.351  -1.462  21.184  0.00  0.00    +0.000 A 
ENDBRANCH   7  13
BRANCH   6  19
ATOM     19  S   UNL     1       6.388  -3.645  25.690  0.00  0.00    +0.000 S 
ATOM     20  O   UNL     1       5.665  -2.435  26.161  0.00  0.00    +0.000 OA
ATOM     21  O   UNL     1       6.306  -4.763  26.566  0.00  0.00    +0.000 OA
BRANCH  19  22
ATOM     22  C   UNL     1       5.262  -4.125  24.281  0.00  0.00    +0.000 A 
ATOM     23  C   UNL     1       3.986  -3.953  24.943  0.00  0.00    +0.000 A 
ATOM     24  C   UNL     1       2.996  -4.922  25.424  0.00  0.00    +0.000 A 
ATOM     25  C   UNL     1       3.250  -6.291  24.713  0.00  0.00    +0.000 A 
ATOM     26  C   UNL     1       1.898  -6.480  23.866  0.00  0.00    +0.000 C 
ATOM     27  C   UNL     1       4.494  -6.736  24.161  0.00  0.00    +0.000 A 
ATOM     28  C   UNL     1       5.522  -5.514  23.857  0.00  0.00    +0.000 A 
ATOM     29  C   UNL     1       5.648  -5.583  22.316  0.00  0.00    +0.000 C 
ENDBRANCH  19  22
ENDBRANCH   6  19
BRANCH  10  30
ATOM     30  C   UNL     1      10.706   2.805  23.277  0.00  0.00    +0.000 C 
ATOM     31 CL   UNL     1       9.567   4.065  23.813  0.00  0.00    +0.000 Cl
ENDBRANCH  10  30
TORSDOF 4
ENDMDL
MODEL 4
REMARK VINA RESULT:      -8.2      1.971      2.795
REMARK  Name = 
REMARK  6 active torsions:
REMARK  status: ('A' for Active; 'I' for Inactive)
REMARK    1  A    between atoms: N_10  and  S_11
REMARK    2  A    between atoms: S_11  and  C_14
REMARK    3  A    between atoms: C_19  and  C_20
REMARK    4  A    between atoms: C_26  and  C_27
REMARK    5  A    between atoms: C_31  and  C_33
REMARK    6  A    between atoms: C_48  and  C_50
REMARK                            x       y       z     vdW  Elec       q    Type
REMARK                         _______ _______ _______ _____ _____    ______ ____
ROOT
ATOM      1  C   UNL     1       7.621  -0.103  24.598  0.00  0.00    +0.000 C 
ATOM      2  C   UNL     1       8.080   1.179  24.641  0.00  0.00    +0.000 C 
ATOM      3  C   UNL     1       9.771   1.179  24.676  0.00  0.00    +0.000 C 
ATOM      4  C   UNL     1       9.690  -0.022  25.574  0.00  0.00    +0.000 C 
ATOM      5  C   UNL     1       8.846  -0.470  26.247  0.00  0.00    +0.000 C 
ATOM      6  N   UNL     1       7.667  -0.747  25.903  0.00  0.00    +0.000 N 
ATOM      7  C   UNL     1       9.956   1.260  23.278  0.00  0.00    +0.000 C 
ATOM      8  C   UNL     1       9.892   2.914  23.170  0.00  0.00    +0.000 C 
ATOM      9  N   UNL     1       8.650   3.386  23.725  0.00  0.00    +0.000 N 
ATOM     10  C   UNL     1       8.714   4.660  24.255  0.00  0.00    +0.000 C 
ATOM     11  O   UNL     1       8.803   4.759  25.474  0.00  0.00    +0.000 OA
ATOM     12  C   UNL     1       7.607   2.540  24.285  0.00  0.00    +0.000 C 
ENDROOT
BRANCH   7  13
ATOM     13  C   UNL     1       9.433   0.874  22.075  0.00  0.00    +0.000 A 
ATOM     14  C   UNL     1       9.710  -0.625  21.895  0.00  0.00    +0.000 A 
ATOM     15  C   UNL     1       8.707  -1.600  21.437  0.00  0.00    +0.000 A 
ATOM     16  C   UNL     1       7.504  -0.838  21.000  0.00  0.00    +0.000 A 
ATOM     17  C   UNL     1       7.171   0.579  20.973  0.00  0.00    +0.000 A 
ATOM     18  C   UNL     1       8.377   1.363  21.223  0.00  0.00    +0.000 A 
ENDBRANCH   7  13
BRANCH   6  19
ATOM     19  S   UNL     1       6.544  -1.576  25.766  0.00  0.00    +0.000 S 
ATOM     20  O   UNL     1       5.364  -0.917  25.149  0.00  0.00    +0.000 OA
ATOM     21  O   UNL     1       6.241  -2.426  26.865  0.00  0.00    +0.000 OA
BRANCH  19  22
ATOM     22  C   UNL     1       6.953  -2.777  24.397  0.00  0.00    +0.000 A 
ATOM     23  C   UNL     1       5.656  -2.841  23.758  0.00  0.00    +0.000 A 
ATOM     24  C   UNL     1       4.636  -3.895  23.720  0.00  0.00    +0.000 A 
ATOM     25  C   UNL     1       5.306  -5.253  24.109  0.00  0.00    +0.000 A 
ATOM     26  C   UNL     1       5.142  -6.103  22.756  0.00  0.00    +0.000 C 
ATOM     27  C   UNL     1       6.488  -5.414  24.902  0.00  0.00    +0.000 A 
ATOM     28  C   UNL     1       7.399  -4.069  24.954  0.00  0.00    +0.000 A 
ATOM     29  C   UNL     1       8.692  -4.535  24.243  0.00  0.00    +0.000 C 
ENDBRANCH  19  22
ENDBRANCH   6  19
BRANCH  10  30
ATOM     30  C   UNL     1       8.919   5.816  23.357  0.00  0.00    +0.000 C 
ATOM     31 CL   UNL     1       7.709   5.857  22.051  0.00  0.00    +0.000 Cl
ENDBRANCH  10  30
TORSDOF 4
ENDMDL
MODEL 5
REMARK VINA RESULT:      -8.0      2.662      4.511
REMARK  Name = 
REMARK  6 active torsions:
REMARK  status: ('A' for Active; 'I' for Inactive)
REMARK    1  A    between atoms: N_10  and  S_11
REMARK    2  A    between atoms: S_11  and  C_14
REMARK    3  A    between atoms: C_19  and  C_20
REMARK    4  A    between atoms: C_26  and  C_27
REMARK    5  A    between atoms: C_31  and  C_33
REMARK    6  A    between atoms: C_48  and  C_50
REMARK                            x       y       z     vdW  Elec       q    Type
REMARK                         _______ _______ _______ _____ _____    ______ ____
ROOT
ATOM      1  C   UNL     1       7.525  -2.604  23.985  0.00  0.00    +0.000 C 
ATOM      2  C   UNL     1       7.077  -1.952  22.877  0.00  0.00    +0.000 C 
ATOM      3  C   UNL     1       6.447  -0.444  23.316  0.00  0.00    +0.000 C 
ATOM      4  C   UNL     1       5.885  -1.107  24.540  0.00  0.00    +0.000 C 
ATOM      5  C   UNL     1       5.653  -2.217  24.822  0.00  0.00    +0.000 C 
ATOM      6  N   UNL     1       6.438  -3.199  24.749  0.00  0.00    +0.000 N 
ATOM      7  C   UNL     1       7.646   0.282  23.142  0.00  0.00    +0.000 C 
ATOM      8  C   UNL     1       7.449   0.597  21.525  0.00  0.00    +0.000 C 
ATOM      9  N   UNL     1       7.290  -0.641  20.809  0.00  0.00    +0.000 N 
ATOM     10  C   UNL     1       6.537  -0.536  19.656  0.00  0.00    +0.000 C 
ATOM     11  O   UNL     1       5.371  -0.910  19.708  0.00  0.00    +0.000 OA
ATOM     12  C   UNL     1       7.309  -1.967  21.411  0.00  0.00    +0.000 C 
ENDROOT
BRANCH   7  13
ATOM     13  C   UNL     1       9.006   0.203  23.255  0.00  0.00    +0.000 A 
ATOM     14  C   UNL     1       9.622   1.281  22.353  0.00  0.00    +0.000 A 
ATOM     15  C   UNL     1      10.708   2.184  22.770  0.00  0.00    +0.000 A 
ATOM     16  C   UNL     1      11.203   1.713  24.093  0.00  0.00    +0.000 A 
ATOM     17  C   UNL     1      10.816   0.623  24.978  0.00  0.00    +0.000 A 
ATOM     18  C   UNL     1       9.914  -0.280  24.266  0.00  0.00    +0.000 A 
ENDBRANCH   7  13
BRANCH   6  19
ATOM     19  S   UNL     1       7.120  -4.321  25.243  0.00  0.00    +0.000 S 
ATOM     20  O   UNL     1       7.305  -4.330  26.717  0.00  0.00    +0.000 OA
ATOM     21  O   UNL     1       8.253  -4.755  24.501  0.00  0.00    +0.000 OA
BRANCH  19  22
ATOM     22  C   UNL     1       5.936  -5.755  25.090  0.00  0.00    +0.000 A 
ATOM     23  C   UNL     1       5.749  -5.743  23.655  0.00  0.00    +0.000 A 
ATOM     24  C   UNL     1       4.611  -5.343  22.821  0.00  0.00    +0.000 A 
ATOM     25  C   UNL     1       3.323  -5.330  23.706  0.00  0.00    +0.000 A 
ATOM     26  C   UNL     1       2.439  -6.484  23.022  0.00  0.00    +0.000 C 
ATOM     27  C   UNL     1       3.278  -5.159  25.127  0.00  0.00    +0.000 A 
ATOM     28  C   UNL     1       4.697  -5.490  25.847  0.00  0.00    +0.000 A 
ATOM     29  C   UNL     1       4.332  -6.718  26.715  0.00  0.00    +0.000 C 
ENDBRANCH  19  22
ENDBRANCH   6  19
BRANCH  10  30
ATOM     30  C   UNL     1       7.064   0.228  18.506  0.00  0.00    +0.000 C 
ATOM     31 CL   UNL     1       5.838   1.330  17.831  0.00  0.00    +0.000 Cl
ENDBRANCH  10  30
TORSDOF 4
ENDMDL
MODEL 6
REMARK VINA RESULT:      -7.9      3.850      7.951
REMARK  Name = 
REMARK  6 active torsions:
REMARK  status: ('A' for Active; 'I' for Inactive)
REMARK    1  A    between atoms: N_10  and  S_11
REMARK    2  A    between atoms: S_11  and  C_14
REMARK    3  A    between atoms: C_19  and  C_20
REMARK    4  A    between atoms: C_26  and  C_27
REMARK    5  A    between atoms: C_31  and  C_33
REMARK    6  A    between atoms: C_48  and  C_50
REMARK                            x       y       z     vdW  Elec       q    Type
REMARK                         _______ _______ _______ _____ _____    ______ ____
ROOT
ATOM      1  C   UNL     1       6.246  -2.343  24.069  0.00  0.00    +0.000 C 
ATOM      2  C   UNL     1       5.279  -3.264  23.805  0.00  0.00    +0.000 C 
ATOM      3  C   UNL     1       5.799  -4.302  22.574  0.00  0.00    +0.000 C 
ATOM      4  C   UNL     1       6.428  -3.106  21.919  0.00  0.00    +0.000 C 
ATOM      5  C   UNL     1       6.267  -1.953  22.019  0.00  0.00    +0.000 C 
ATOM      6  N   UNL     1       6.273  -1.275  23.080  0.00  0.00    +0.000 N 
ATOM      7  C   UNL     1       6.364  -5.279  23.423  0.00  0.00    +0.000 C 
ATOM      8  C   UNL     1       4.975  -6.153  23.664  0.00  0.00    +0.000 C 
ATOM      9  N   UNL     1       3.951  -5.294  24.198  0.00  0.00    +0.000 N 
ATOM     10  C   UNL     1       2.663  -5.678  23.875  0.00  0.00    +0.000 C 
ATOM     11  O   UNL     1       2.105  -5.070  22.969  0.00  0.00    +0.000 OA
ATOM     12  C   UNL     1       4.113  -3.877  24.490  0.00  0.00    +0.000 C 
ENDROOT
BRANCH   7  13
ATOM     13  C   UNL     1       7.024  -5.459  24.606  0.00  0.00    +0.000 A 
ATOM     14  C   UNL     1       8.499  -5.090  24.389  0.00  0.00    +0.000 A 
ATOM     15  C   UNL     1       9.282  -4.246  25.307  0.00  0.00    +0.000 A 
ATOM     16  C   UNL     1       8.458  -4.023  26.528  0.00  0.00    +0.000 A 
ATOM     17  C   UNL     1       7.120  -4.439  26.924  0.00  0.00    +0.000 A 
ATOM     18  C   UNL     1       6.637  -5.458  25.996  0.00  0.00    +0.000 A 
ENDBRANCH   7  13
BRANCH   6  19
ATOM     19  S   UNL     1       6.683  -0.227  23.916  0.00  0.00    +0.000 S 
ATOM     20  O   UNL     1       6.704  -0.565  25.362  0.00  0.00    +0.000 OA
ATOM     21  O   UNL     1       6.169   1.066  23.617  0.00  0.00    +0.000 OA
BRANCH  19  22
ATOM     22  C   UNL     1       8.518  -0.030  23.637  0.00  0.00    +0.000 A 
ATOM     23  C   UNL     1       8.798   0.953  24.661  0.00  0.00    +0.000 A 
ATOM     24  C   UNL     1       9.125   2.381  24.582  0.00  0.00    +0.000 A 
ATOM     25  C   UNL     1       9.619   2.700  23.133  0.00  0.00    +0.000 A 
ATOM     26  C   UNL     1      11.140   3.148  23.393  0.00  0.00    +0.000 C 
ATOM     27  C   UNL     1       9.295   1.962  21.950  0.00  0.00    +0.000 A 
ATOM     28  C   UNL     1       8.788   0.451  22.268  0.00  0.00    +0.000 A 
ATOM     29  C   UNL     1       9.904  -0.401  21.618  0.00  0.00    +0.000 C 
ENDBRANCH  19  22
ENDBRANCH   6  19
BRANCH  10  30
ATOM     30  C   UNL     1       2.111  -6.927  24.439  0.00  0.00    +0.000 C 
ATOM     31 CL   UNL     1       1.773  -8.129  23.169  0.00  0.00    +0.000 Cl
ENDBRANCH  10  30
TORSDOF 4
ENDMDL
MODEL 7
REMARK VINA RESULT:      -7.6      3.779      7.604
REMARK  Name = 
REMARK  6 active torsions:
REMARK  status: ('A' for Active; 'I' for Inactive)
REMARK    1  A    between atoms: N_10  and  S_11
REMARK    2  A    between atoms: S_11  and  C_14
REMARK    3  A    between atoms: C_19  and  C_20
REMARK    4  A    between atoms: C_26  and  C_27
REMARK    5  A    between atoms: C_31  and  C_33
REMARK    6  A    between atoms: C_48  and  C_50
REMARK                            x       y       z     vdW  Elec       q    Type
REMARK                         _______ _______ _______ _____ _____    ______ ____
ROOT
ATOM      1  C   UNL     1       7.324  -1.232  23.132  0.00  0.00    +0.000 C 
ATOM      2  C   UNL     1       6.811  -2.490  23.040  0.00  0.00    +0.000 C 
ATOM      3  C   UNL     1       7.986  -3.622  23.487  0.00  0.00    +0.000 C 
ATOM      4  C   UNL     1       8.993  -2.760  22.782  0.00  0.00    +0.000 C 
ATOM      5  C   UNL     1       8.911  -1.925  21.968  0.00  0.00    +0.000 C 
ATOM      6  N   UNL     1       8.177  -0.903  21.999  0.00  0.00    +0.000 N 
ATOM      7  C   UNL     1       7.634  -3.681  24.853  0.00  0.00    +0.000 C 
ATOM      8  C   UNL     1       6.469  -4.852  24.703  0.00  0.00    +0.000 C 
ATOM      9  N   UNL     1       5.472  -4.422  23.758  0.00  0.00    +0.000 N 
ATOM     10  C   UNL     1       4.839  -5.454  23.092  0.00  0.00    +0.000 C 
ATOM     11  O   UNL     1       5.206  -5.695  21.948  0.00  0.00    +0.000 OA
ATOM     12  C   UNL     1       5.481  -3.149  23.050  0.00  0.00    +0.000 C 
ENDROOT
BRANCH   7  13
ATOM     13  C   UNL     1       7.162  -2.940  25.900  0.00  0.00    +0.000 A 
ATOM     14  C   UNL     1       8.317  -2.081  26.435  0.00  0.00    +0.000 A 
ATOM     15  C   UNL     1       8.200  -0.649  26.754  0.00  0.00    +0.000 A 
ATOM     16  C   UNL     1       6.759  -0.283  26.667  0.00  0.00    +0.000 A 
ATOM     17  C   UNL     1       5.555  -1.028  26.327  0.00  0.00    +0.000 A 
ATOM     18  C   UNL     1       5.863  -2.455  26.297  0.00  0.00    +0.000 A 
ENDBRANCH   7  13
BRANCH   6  19
ATOM     19  S   UNL     1       7.908   0.471  21.929  0.00  0.00    +0.000 S 
ATOM     20  O   UNL     1       6.476   0.828  22.105  0.00  0.00    +0.000 OA
ATOM     21  O   UNL     1       8.579   1.201  20.909  0.00  0.00    +0.000 OA
BRANCH  19  22
ATOM     22  C   UNL     1       8.587   1.213  23.501  0.00  0.00    +0.000 A 
ATOM     23  C   UNL     1       7.752   2.393  23.573  0.00  0.00    +0.000 A 
ATOM     24  C   UNL     1       8.045   3.813  23.350  0.00  0.00    +0.000 A 
ATOM     25  C   UNL     1       9.590   4.026  23.455  0.00  0.00    +0.000 A 
ATOM     26  C   UNL     1       9.705   4.989  24.736  0.00  0.00    +0.000 C 
ATOM     27  C   UNL     1      10.596   3.033  23.229  0.00  0.00    +0.000 A 
ATOM     28  C   UNL     1      10.024   1.516  23.355  0.00  0.00    +0.000 A 
ATOM     29  C   UNL     1      10.805   0.984  24.580  0.00  0.00    +0.000 C 
ENDBRANCH  19  22
ENDBRANCH   6  19
BRANCH  10  30
ATOM     30  C   UNL     1       3.946  -6.365  23.838  0.00  0.00    +0.000 C 
ATOM     31 CL   UNL     1       2.338  -6.476  23.081  0.00  0.00    +0.000 Cl
ENDBRANCH  10  30
TORSDOF 4
ENDMDL
MODEL 8
REMARK VINA RESULT:      -7.6      2.030      2.862
REMARK  Name = 
REMARK  6 active torsions:
REMARK  status: ('A' for Active; 'I' for Inactive)
REMARK    1  A    between atoms: N_10  and  S_11
REMARK    2  A    between atoms: S_11  and  C_14
REMARK    3  A    between atoms: C_19  and  C_20
REMARK    4  A    between atoms: C_26  and  C_27
REMARK    5  A    between atoms: C_31  and  C_33
REMARK    6  A    between atoms: C_48  and  C_50
REMARK                            x       y       z     vdW  Elec       q    Type
REMARK                         _______ _______ _______ _____ _____    ______ ____
ROOT
ATOM      1  C   UNL     1       8.069  -0.777  23.763  0.00  0.00    +0.000 C 
ATOM      2  C   UNL     1       7.949   0.297  24.592  0.00  0.00    +0.000 C 
ATOM      3  C   UNL     1       9.449   1.061  24.758  0.00  0.00    +0.000 C 
ATOM      4  C   UNL     1      10.073  -0.305  24.764  0.00  0.00    +0.000 C 
ATOM      5  C   UNL     1       9.661  -1.379  24.970  0.00  0.00    +0.000 C 
ATOM      6  N   UNL     1       8.662  -1.925  24.434  0.00  0.00    +0.000 N 
ATOM      7  C   UNL     1       9.275   1.979  23.700  0.00  0.00    +0.000 C 
ATOM      8  C   UNL     1       8.504   3.152  24.584  0.00  0.00    +0.000 C 
ATOM      9  N   UNL     1       7.332   2.595  25.206  0.00  0.00    +0.000 N 
ATOM     10  C   UNL     1       6.972   3.209  26.390  0.00  0.00    +0.000 C 
ATOM     11  O   UNL     1       7.273   2.642  27.434  0.00  0.00    +0.000 OA
ATOM     12  C   UNL     1       6.886   1.215  25.071  0.00  0.00    +0.000 C 
ENDROOT
BRANCH   7  13
ATOM     13  C   UNL     1       8.713   2.138  22.463  0.00  0.00    +0.000 A 
ATOM     14  C   UNL     1       9.348   1.110  21.516  0.00  0.00    +0.000 A 
ATOM     15  C   UNL     1       8.583   0.269  20.581  0.00  0.00    +0.000 A 
ATOM     16  C   UNL     1       7.175   0.753  20.587  0.00  0.00    +0.000 A 
ATOM     17  C   UNL     1       6.481   1.807  21.312  0.00  0.00    +0.000 A 
ATOM     18  C   UNL     1       7.461   2.662  21.976  0.00  0.00    +0.000 A 
ENDBRANCH   7  13
BRANCH   6  19
ATOM     19  S   UNL     1       7.988  -2.942  23.742  0.00  0.00    +0.000 S 
ATOM     20  O   UNL     1       8.610  -4.286  23.862  0.00  0.00    +0.000 OA
ATOM     21  O   UNL     1       7.517  -2.621  22.438  0.00  0.00    +0.000 OA
BRANCH  19  22
ATOM     22  C   UNL     1       6.416  -3.263  24.696  0.00  0.00    +0.000 A 
ATOM     23  C   UNL     1       6.991  -3.506  26.002  0.00  0.00    +0.000 A 
ATOM     24  C   UNL     1       7.146  -4.734  26.789  0.00  0.00    +0.000 A 
ATOM     25  C   UNL     1       6.156  -5.810  26.235  0.00  0.00    +0.000 A 
ATOM     26  C   UNL     1       5.178  -6.038  27.489  0.00  0.00    +0.000 C 
ATOM     27  C   UNL     1       5.621  -5.860  24.908  0.00  0.00    +0.000 A 
ATOM     28  C   UNL     1       5.700  -4.428  24.142  0.00  0.00    +0.000 A 
ATOM     29  C   UNL     1       4.203  -4.088  23.951  0.00  0.00    +0.000 C 
ENDBRANCH  19  22
ENDBRANCH   6  19
BRANCH  10  30
ATOM     30  C   UNL     1       6.475   4.601  26.369  0.00  0.00    +0.000 C 
ATOM     31 CL   UNL     1       5.402   4.896  24.978  0.00  0.00    +0.000 Cl
ENDBRANCH  10  30
TORSDOF 4
ENDMDL
MODEL 9
REMARK VINA RESULT:      -7.4      3.458      7.380
REMARK  Name = 
REMARK  6 active torsions:
REMARK  status: ('A' for Active; 'I' for Inactive)
REMARK    1  A    between atoms: N_10  and  S_11
REMARK    2  A    between atoms: S_11  and  C_14
REMARK    3  A    between atoms: C_19  and  C_20
REMARK    4  A    between atoms: C_26  and  C_27
REMARK    5  A    between atoms: C_31  and  C_33
REMARK    6  A    between atoms: C_48  and  C_50
REMARK                            x       y       z     vdW  Elec       q    Type
REMARK                         _______ _______ _______ _____ _____    ______ ____
ROOT
ATOM      1  C   UNL     1       7.096  -2.557  23.627  0.00  0.00    +0.000 C 
ATOM      2  C   UNL     1       5.929  -2.600  24.328  0.00  0.00    +0.000 C 
ATOM      3  C   UNL     1       4.971  -3.876  23.765  0.00  0.00    +0.000 C 
ATOM      4  C   UNL     1       5.444  -3.536  22.381  0.00  0.00    +0.000 C 
ATOM      5  C   UNL     1       5.921  -2.582  21.903  0.00  0.00    +0.000 C 
ATOM      6  N   UNL     1       6.926  -1.947  22.316  0.00  0.00    +0.000 N 
ATOM      7  C   UNL     1       5.445  -4.842  24.678  0.00  0.00    +0.000 C 
ATOM      8  C   UNL     1       4.379  -4.494  25.901  0.00  0.00    +0.000 C 
ATOM      9  N   UNL     1       4.491  -3.103  26.256  0.00  0.00    +0.000 N 
ATOM     10  C   UNL     1       3.329  -2.551  26.759  0.00  0.00    +0.000 C 
ATOM     11  O   UNL     1       2.658  -1.863  25.999  0.00  0.00    +0.000 OA
ATOM     12  C   UNL     1       5.407  -2.152  25.644  0.00  0.00    +0.000 C 
ENDROOT
BRANCH   7  13
ATOM     13  C   UNL     1       6.551  -5.252  25.371  0.00  0.00    +0.000 A 
ATOM     14  C   UNL     1       7.587  -5.757  24.357  0.00  0.00    +0.000 A 
ATOM     15  C   UNL     1       9.014  -5.398  24.388  0.00  0.00    +0.000 A 
ATOM     16  C   UNL     1       9.267  -4.665  25.660  0.00  0.00    +0.000 A 
ATOM     17  C   UNL     1       8.416  -4.260  26.769  0.00  0.00    +0.000 A 
ATOM     18  C   UNL     1       7.122  -4.928  26.655  0.00  0.00    +0.000 A 
ENDBRANCH   7  13
BRANCH   6  19
ATOM     19  S   UNL     1       8.191  -1.352  22.198  0.00  0.00    +0.000 S 
ATOM     20  O   UNL     1       8.514  -0.857  20.834  0.00  0.00    +0.000 OA
ATOM     21  O   UNL     1       9.266  -2.004  22.861  0.00  0.00    +0.000 OA
BRANCH  19  22
ATOM     22  C   UNL     1       8.076   0.288  23.082  0.00  0.00    +0.000 A 
ATOM     23  C   UNL     1       8.647   1.136  22.058  0.00  0.00    +0.000 A 
ATOM     24  C   UNL     1       9.939   1.825  21.968  0.00  0.00    +0.000 A 
ATOM     25  C   UNL     1      10.549   1.931  23.404  0.00  0.00    +0.000 A 
ATOM     26  C   UNL     1      10.581   3.521  23.634  0.00  0.00    +0.000 C 
ATOM     27  C   UNL     1      10.262   1.066  24.508  0.00  0.00    +0.000 A 
ATOM     28  C   UNL     1       8.861   0.262  24.331  0.00  0.00    +0.000 A 
ATOM     29  C   UNL     1       8.019   0.831  25.498  0.00  0.00    +0.000 C 
ENDBRANCH  19  22
ENDBRANCH   6  19
BRANCH  10  30
ATOM     30  C   UNL     1       2.818  -2.995  28.073  0.00  0.00    +0.000 C 
ATOM     31 CL   UNL     1       4.138  -3.256  29.238  0.00  0.00    +0.000 Cl
ENDBRANCH  10  30
TORSDOF 4
ENDMDL
