MODEL 1
REMARK VINA RESULT:      -8.6      0.000      0.000
REMARK  Name = 
REMARK  6 active torsions:
REMARK  status: ('A' for Active; 'I' for Inactive)
REMARK    1  A    between atoms: C_11  and  N_13
REMARK    2  A    between atoms: N_13  and  C_44
REMARK    3  A    between atoms: C_14  and  C_16
REMARK    4  A    between atoms: C_16  and  C_18
REMARK    5  A    between atoms: C_23  and  N_24
REMARK    6  A    between atoms: C_26  and  C_28
REMARK                            x       y       z     vdW  Elec       q    Type
REMARK                         _______ _______ _______ _____ _____    ______ ____
ROOT
ATOM      1  C   UNL     1       9.501  -1.780  23.456  0.00  0.00    +0.000 C 
ATOM      2  O   UNL     1      10.414  -1.989  22.604  0.00  0.00    +0.000 OA
ENDROOT
BRANCH   1   3
ATOM      3  C   UNL     1       9.793  -0.612  24.311  0.00  0.00    +0.000 A 
ATOM      4  C   UNL     1      10.500   0.245  23.311  0.00  0.00    +0.000 A 
ATOM      5  C   UNL     1      10.102   1.548  22.781  0.00  0.00    +0.000 A 
ATOM      6  C   UNL     1       8.626   1.828  23.190  0.00  0.00    +0.000 A 
ATOM      7  C   UNL     1       7.995   1.355  24.449  0.00  0.00    +0.000 A 
ATOM      8  C   UNL     1       8.658   0.051  24.969  0.00  0.00    +0.000 A 
BRANCH   6   9
ATOM      9  N   UNL     1       7.934   2.065  22.004  0.00  0.00    +0.000 N 
ATOM     10  H   UNL     1       8.601   2.519  21.434  0.00  0.00    +0.000 HD
ATOM     11  C   UNL     1       7.389   1.057  21.364  0.00  0.00    +0.000 C 
ATOM     12  O   UNL     1       7.319  -0.096  21.802  0.00  0.00    +0.000 OA
BRANCH  11  13
ATOM     13  C   UNL     1       7.100   1.248  19.894  0.00  0.00    +0.000 C 
ATOM     14  O   UNL     1       5.790   1.604  19.643  0.00  0.00    +0.000 OA
ATOM     15  C   UNL     1       5.075   0.601  18.984  0.00  0.00    +0.000 C 
ATOM     16  C   UNL     1       6.111  -0.329  18.339  0.00  0.00    +0.000 C 
ATOM     17  C   UNL     1       7.410  -0.041  19.133  0.00  0.00    +0.000 C 
ENDBRANCH  11  13
ENDBRANCH   6   9
ENDBRANCH   1   3
BRANCH   1  19
ATOM     18  N   UNL     1       8.250  -3.484  24.418  0.00  0.00    +0.000 N 
ATOM     19  C   UNL     1       9.472  -2.865  24.253  0.00  0.00    +0.000 C 
ATOM     20  O   UNL     1      10.467  -3.534  24.174  0.00  0.00    +0.000 OA
BRANCH  18  27
ATOM     21  C   UNL     1       5.973  -3.274  23.457  0.00  0.00    +0.000 C 
ATOM     22  C   UNL     1       4.871  -3.974  22.920  0.00  0.00    +0.000 C 
ATOM     23  S   UNL     1       5.648  -5.605  22.508  0.00  0.00    +0.000 S 
ATOM     24  O   UNL     1       5.533  -5.837  21.149  0.00  0.00    +0.000 OA
ATOM     25  O   UNL     1       5.190  -6.526  23.473  0.00  0.00    +0.000 OA
ATOM     26  C   UNL     1       7.404  -5.219  22.889  0.00  0.00    +0.000 C 
ATOM     27  C   UNL     1       7.423  -3.762  23.329  0.00  0.00    +0.000 C 
ENDBRANCH  18  27
BRANCH  18  28
ATOM     28  C   UNL     1       8.270  -3.876  25.693  0.00  0.00    +0.000 A 
ATOM     29  C   UNL     1       7.447  -2.731  26.282  0.00  0.00    +0.000 A 
ATOM     30  C   UNL     1       6.153  -2.857  27.002  0.00  0.00    +0.000 A 
ATOM     31  C   UNL     1       5.927  -4.307  27.223  0.00  0.00    +0.000 A 
ATOM     32  C   UNL     1       6.642  -5.515  27.014  0.00  0.00    +0.000 A 
ATOM     33  C   UNL     1       7.957  -5.146  26.331  0.00  0.00    +0.000 A 
ENDBRANCH  18  28
ENDBRANCH   1  19
TORSDOF 6
ENDMDL
MODEL 2
REMARK VINA RESULT:      -7.6      2.476      4.263
REMARK  Name = 
REMARK  6 active torsions:
REMARK  status: ('A' for Active; 'I' for Inactive)
REMARK    1  A    between atoms: C_11  and  N_13
REMARK    2  A    between atoms: N_13  and  C_44
REMARK    3  A    between atoms: C_14  and  C_16
REMARK    4  A    between atoms: C_16  and  C_18
REMARK    5  A    between atoms: C_23  and  N_24
REMARK    6  A    between atoms: C_26  and  C_28
REMARK                            x       y       z     vdW  Elec       q    Type
REMARK                         _______ _______ _______ _____ _____    ______ ____
ROOT
ATOM      1  C   UNL     1       8.783  -0.266  21.764  0.00  0.00    +0.000 C 
ATOM      2  O   UNL     1       8.659  -0.548  20.537  0.00  0.00    +0.000 OA
ENDROOT
BRANCH   1   3
ATOM      3  C   UNL     1       9.632   0.923  21.981  0.00  0.00    +0.000 A 
ATOM      4  C   UNL     1       8.597   1.989  21.814  0.00  0.00    +0.000 A 
ATOM      5  C   UNL     1       8.115   2.955  22.799  0.00  0.00    +0.000 A 
ATOM      6  C   UNL     1       8.630   2.538  24.208  0.00  0.00    +0.000 A 
ATOM      7  C   UNL     1       9.923   1.853  24.465  0.00  0.00    +0.000 A 
ATOM      8  C   UNL     1      10.377   1.007  23.245  0.00  0.00    +0.000 A 
BRANCH   6   9
ATOM      9  N   UNL     1       7.498   2.409  25.011  0.00  0.00    +0.000 N 
ATOM     10  H   UNL     1       7.535   1.470  25.314  0.00  0.00    +0.000 HD
ATOM     11  C   UNL     1       7.338   3.218  26.031  0.00  0.00    +0.000 C 
ATOM     12  O   UNL     1       8.053   4.197  26.270  0.00  0.00    +0.000 OA
BRANCH  11  13
ATOM     13  C   UNL     1       6.416   2.760  27.137  0.00  0.00    +0.000 C 
ATOM     14  O   UNL     1       7.071   2.561  28.337  0.00  0.00    +0.000 OA
ATOM     15  C   UNL     1       7.118   1.215  28.708  0.00  0.00    +0.000 C 
ATOM     16  C   UNL     1       6.015   0.499  27.918  0.00  0.00    +0.000 C 
ATOM     17  C   UNL     1       5.731   1.454  26.732  0.00  0.00    +0.000 C 
ENDBRANCH  11  13
ENDBRANCH   6   9
ENDBRANCH   1   3
BRANCH   1  19
ATOM     18  N   UNL     1       8.628  -2.175  23.077  0.00  0.00    +0.000 N 
ATOM     19  C   UNL     1       9.408  -1.315  22.332  0.00  0.00    +0.000 C 
ATOM     20  O   UNL     1      10.293  -1.760  21.653  0.00  0.00    +0.000 OA
BRANCH  18  27
ATOM     21  C   UNL     1       6.177  -2.277  23.445  0.00  0.00    +0.000 C 
ATOM     22  C   UNL     1       5.061  -3.127  23.602  0.00  0.00    +0.000 C 
ATOM     23  S   UNL     1       5.725  -4.718  22.924  0.00  0.00    +0.000 S 
ATOM     24  O   UNL     1       4.958  -5.110  21.840  0.00  0.00    +0.000 OA
ATOM     25  O   UNL     1       5.957  -5.563  24.029  0.00  0.00    +0.000 OA
ATOM     26  C   UNL     1       7.356  -4.139  22.307  0.00  0.00    +0.000 C 
ATOM     27  C   UNL     1       7.404  -2.645  22.599  0.00  0.00    +0.000 C 
ENDBRANCH  18  27
BRANCH  18  28
ATOM     28  C   UNL     1       9.429  -2.527  24.085  0.00  0.00    +0.000 A 
ATOM     29  C   UNL     1       8.874  -1.572  25.141  0.00  0.00    +0.000 A 
ATOM     30  C   UNL     1       8.253  -1.956  26.436  0.00  0.00    +0.000 A 
ATOM     31  C   UNL     1       8.468  -3.417  26.595  0.00  0.00    +0.000 A 
ATOM     32  C   UNL     1       9.158  -4.448  25.907  0.00  0.00    +0.000 A 
ATOM     33  C   UNL     1       9.770  -3.821  24.656  0.00  0.00    +0.000 A 
ENDBRANCH  18  28
ENDBRANCH   1  19
TORSDOF 6
ENDMDL
MODEL 3
REMARK VINA RESULT:      -7.6      2.049      2.552
REMARK  Name = 
REMARK  6 active torsions:
REMARK  status: ('A' for Active; 'I' for Inactive)
REMARK    1  A    between atoms: C_11  and  N_13
REMARK    2  A    between atoms: N_13  and  C_44
REMARK    3  A    between atoms: C_14  and  C_16
REMARK    4  A    between atoms: C_16  and  C_18
REMARK    5  A    between atoms: C_23  and  N_24
REMARK    6  A    between atoms: C_26  and  C_28
REMARK                            x       y       z     vdW  Elec       q    Type
REMARK                         _______ _______ _______ _____ _____    ______ ____
ROOT
ATOM      1  C   UNL     1       9.320  -1.493  23.090  0.00  0.00    +0.000 C 
ATOM      2  O   UNL     1       9.674  -1.911  21.949  0.00  0.00    +0.000 OA
ENDROOT
BRANCH   1   3
ATOM      3  C   UNL     1      10.219  -0.438  23.602  0.00  0.00    +0.000 A 
ATOM      4  C   UNL     1      10.375   0.369  22.353  0.00  0.00    +0.000 A 
ATOM      5  C   UNL     1       9.962   1.748  22.100  0.00  0.00    +0.000 A 
ATOM      6  C   UNL     1       9.030   2.214  23.257  0.00  0.00    +0.000 A 
ATOM      7  C   UNL     1       9.141   1.758  24.666  0.00  0.00    +0.000 A 
ATOM      8  C   UNL     1       9.765   0.340  24.763  0.00  0.00    +0.000 A 
BRANCH   6   9
ATOM      9  N   UNL     1       7.842   2.627  22.654  0.00  0.00    +0.000 N 
ATOM     10  H   UNL     1       7.162   2.032  23.052  0.00  0.00    +0.000 HD
ATOM     11  C   UNL     1       7.473   3.882  22.753  0.00  0.00    +0.000 C 
ATOM     12  O   UNL     1       8.170   4.783  23.232  0.00  0.00    +0.000 OA
BRANCH  11  13
ATOM     13  C   UNL     1       6.009   4.189  22.546  0.00  0.00    +0.000 C 
ATOM     14  O   UNL     1       5.534   5.159  23.407  0.00  0.00    +0.000 OA
ATOM     15  C   UNL     1       4.625   4.655  24.340  0.00  0.00    +0.000 C 
ATOM     16  C   UNL     1       4.105   3.326  23.776  0.00  0.00    +0.000 C 
ATOM     17  C   UNL     1       5.181   2.918  22.739  0.00  0.00    +0.000 C 
ENDBRANCH  11  13
ENDBRANCH   6   9
ENDBRANCH   1   3
BRANCH   1  19
ATOM     18  N   UNL     1       8.255  -3.238  24.190  0.00  0.00    +0.000 N 
ATOM     19  C   UNL     1       9.417  -2.544  23.926  0.00  0.00    +0.000 C 
ATOM     20  O   UNL     1      10.450  -3.147  23.806  0.00  0.00    +0.000 OA
BRANCH  18  27
ATOM     21  C   UNL     1       5.919  -3.194  23.355  0.00  0.00    +0.000 C 
ATOM     22  C   UNL     1       4.828  -3.975  22.921  0.00  0.00    +0.000 C 
ATOM     23  S   UNL     1       5.665  -5.585  22.547  0.00  0.00    +0.000 S 
ATOM     24  O   UNL     1       5.487  -5.896  21.210  0.00  0.00    +0.000 OA
ATOM     25  O   UNL     1       5.311  -6.475  23.582  0.00  0.00    +0.000 OA
ATOM     26  C   UNL     1       7.417  -5.093  22.804  0.00  0.00    +0.000 C 
ATOM     27  C   UNL     1       7.384  -3.615  23.167  0.00  0.00    +0.000 C 
ENDBRANCH  18  27
BRANCH  18  28
ATOM     28  C   UNL     1       8.381  -3.577  25.475  0.00  0.00    +0.000 A 
ATOM     29  C   UNL     1       7.628  -2.394  26.082  0.00  0.00    +0.000 A 
ATOM     30  C   UNL     1       6.400  -2.467  26.918  0.00  0.00    +0.000 A 
ATOM     31  C   UNL     1       6.175  -3.903  27.220  0.00  0.00    +0.000 A 
ATOM     32  C   UNL     1       6.852  -5.130  27.002  0.00  0.00    +0.000 A 
ATOM     33  C   UNL     1       8.107  -4.813  26.192  0.00  0.00    +0.000 A 
ENDBRANCH  18  28
ENDBRANCH   1  19
TORSDOF 6
ENDMDL
MODEL 4
REMARK VINA RESULT:      -7.5      2.813      7.412
REMARK  Name = 
REMARK  6 active torsions:
REMARK  status: ('A' for Active; 'I' for Inactive)
REMARK    1  A    between atoms: C_11  and  N_13
REMARK    2  A    between atoms: N_13  and  C_44
REMARK    3  A    between atoms: C_14  and  C_16
REMARK    4  A    between atoms: C_16  and  C_18
REMARK    5  A    between atoms: C_23  and  N_24
REMARK    6  A    between atoms: C_26  and  C_28
REMARK                            x       y       z     vdW  Elec       q    Type
REMARK                         _______ _______ _______ _____ _____    ______ ____
ROOT
ATOM      1  C   UNL     1       8.127  -3.704  23.712  0.00  0.00    +0.000 C 
ATOM      2  O   UNL     1       8.714  -4.756  24.101  0.00  0.00    +0.000 OA
ENDROOT
BRANCH   1   3
ATOM      3  C   UNL     1       7.428  -3.897  22.425  0.00  0.00    +0.000 A 
ATOM      4  C   UNL     1       7.485  -5.389  22.345  0.00  0.00    +0.000 A 
ATOM      5  C   UNL     1       6.381  -6.347  22.348  0.00  0.00    +0.000 A 
ATOM      6  C   UNL     1       5.073  -5.605  22.756  0.00  0.00    +0.000 A 
ATOM      7  C   UNL     1       4.776  -4.185  22.440  0.00  0.00    +0.000 A 
ATOM      8  C   UNL     1       6.072  -3.344  22.297  0.00  0.00    +0.000 A 
BRANCH   6   9
ATOM      9  N   UNL     1       4.571  -6.288  23.863  0.00  0.00    +0.000 N 
ATOM     10  H   UNL     1       4.914  -7.206  23.743  0.00  0.00    +0.000 HD
ATOM     11  C   UNL     1       4.840  -5.847  25.068  0.00  0.00    +0.000 C 
ATOM     12  O   UNL     1       5.403  -4.774  25.313  0.00  0.00    +0.000 OA
BRANCH  11  13
ATOM     13  C   UNL     1       4.726  -6.833  26.206  0.00  0.00    +0.000 C 
ATOM     14  O   UNL     1       3.421  -7.052  26.602  0.00  0.00    +0.000 OA
ATOM     15  C   UNL     1       3.153  -6.548  27.877  0.00  0.00    +0.000 C 
ATOM     16  C   UNL     1       4.506  -6.374  28.577  0.00  0.00    +0.000 C 
ATOM     17  C   UNL     1       5.524  -6.331  27.410  0.00  0.00    +0.000 C 
ENDBRANCH  11  13
ENDBRANCH   6   9
ENDBRANCH   1   3
BRANCH   1  19
ATOM     18  N   UNL     1       8.712  -1.460  23.584  0.00  0.00    +0.000 N 
ATOM     19  C   UNL     1       9.091  -2.785  23.512  0.00  0.00    +0.000 C 
ATOM     20  O   UNL     1      10.158  -3.119  23.951  0.00  0.00    +0.000 OA
BRANCH  18  27
ATOM     21  C   UNL     1       6.619  -0.284  24.204  0.00  0.00    +0.000 C 
ATOM     22  C   UNL     1       6.065   0.808  24.907  0.00  0.00    +0.000 C 
ATOM     23  S   UNL     1       7.471   1.265  26.023  0.00  0.00    +0.000 S 
ATOM     24  O   UNL     1       7.069   1.145  27.341  0.00  0.00    +0.000 OA
ATOM     25  O   UNL     1       8.025   2.456  25.508  0.00  0.00    +0.000 OA
ATOM     26  C   UNL     1       8.633  -0.106  25.639  0.00  0.00    +0.000 C 
ATOM     27  C   UNL     1       7.915  -0.988  24.627  0.00  0.00    +0.000 C 
ENDBRANCH  18  27
BRANCH  18  28
ATOM     28  C   UNL     1       9.453  -0.874  22.642  0.00  0.00    +0.000 A 
ATOM     29  C   UNL     1       8.405  -0.851  21.530  0.00  0.00    +0.000 A 
ATOM     30  C   UNL     1       7.863   0.358  20.856  0.00  0.00    +0.000 A 
ATOM     31  C   UNL     1       8.682   1.507  21.318  0.00  0.00    +0.000 A 
ATOM     32  C   UNL     1       9.838   1.706  22.116  0.00  0.00    +0.000 A 
ATOM     33  C   UNL     1      10.260   0.338  22.645  0.00  0.00    +0.000 A 
ENDBRANCH  18  28
ENDBRANCH   1  19
TORSDOF 6
ENDMDL
MODEL 5
REMARK VINA RESULT:      -7.3      2.522      7.158
REMARK  Name = 
REMARK  6 active torsions:
REMARK  status: ('A' for Active; 'I' for Inactive)
REMARK    1  A    between atoms: C_11  and  N_13
REMARK    2  A    between atoms: N_13  and  C_44
REMARK    3  A    between atoms: C_14  and  C_16
REMARK    4  A    between atoms: C_16  and  C_18
REMARK    5  A    between atoms: C_23  and  N_24
REMARK    6  A    between atoms: C_26  and  C_28
REMARK                            x       y       z     vdW  Elec       q    Type
REMARK                         _______ _______ _______ _____ _____    ______ ____
ROOT
ATOM      1  C   UNL     1       7.546  -0.870  23.364  0.00  0.00    +0.000 C 
ATOM      2  O   UNL     1       6.482  -1.464  23.707  0.00  0.00    +0.000 OA
ENDROOT
BRANCH   1   3
ATOM      3  C   UNL     1       8.752  -1.521  23.917  0.00  0.00    +0.000 A 
ATOM      4  C   UNL     1       8.547  -1.210  25.365  0.00  0.00    +0.000 A 
ATOM      5  C   UNL     1       8.329  -2.134  26.476  0.00  0.00    +0.000 A 
ATOM      6  C   UNL     1       8.033  -3.551  25.900  0.00  0.00    +0.000 A 
ATOM      7  C   UNL     1       8.605  -4.086  24.638  0.00  0.00    +0.000 A 
ATOM      8  C   UNL     1       8.944  -2.951  23.636  0.00  0.00    +0.000 A 
BRANCH   6   9
ATOM      9  N   UNL     1       6.802  -3.935  26.431  0.00  0.00    +0.000 N 
ATOM     10  H   UNL     1       6.224  -4.022  25.635  0.00  0.00    +0.000 HD
ATOM     11  C   UNL     1       6.729  -5.012  27.175  0.00  0.00    +0.000 C 
ATOM     12  O   UNL     1       7.705  -5.660  27.568  0.00  0.00    +0.000 OA
BRANCH  11  13
ATOM     13  C   UNL     1       5.375  -5.667  27.311  0.00  0.00    +0.000 C 
ATOM     14  O   UNL     1       5.320  -6.919  26.730  0.00  0.00    +0.000 OA
ATOM     15  C   UNL     1       4.497  -6.954  25.602  0.00  0.00    +0.000 C 
ATOM     16  C   UNL     1       3.570  -5.736  25.693  0.00  0.00    +0.000 C 
ATOM     17  C   UNL     1       4.305  -4.784  26.669  0.00  0.00    +0.000 C 
ENDBRANCH  11  13
ENDBRANCH   6   9
ENDBRANCH   1   3
BRANCH   1  19
ATOM     18  N   UNL     1       8.092   1.380  23.188  0.00  0.00    +0.000 N 
ATOM     19  C   UNL     1       7.478   0.366  23.894  0.00  0.00    +0.000 C 
ATOM     20  O   UNL     1       6.436   0.582  24.452  0.00  0.00    +0.000 OA
BRANCH  18  27
ATOM     21  C   UNL     1       6.518   1.988  21.370  0.00  0.00    +0.000 C 
ATOM     22  C   UNL     1       5.897   1.554  20.179  0.00  0.00    +0.000 C 
ATOM     23  S   UNL     1       6.988   0.134  19.703  0.00  0.00    +0.000 S 
ATOM     24  O   UNL     1       7.551   0.384  18.463  0.00  0.00    +0.000 OA
ATOM     25  O   UNL     1       6.263  -1.043  19.979  0.00  0.00    +0.000 OA
ATOM     26  C   UNL     1       8.296   0.302  20.983  0.00  0.00    +0.000 C 
ATOM     27  C   UNL     1       7.912   1.520  21.811  0.00  0.00    +0.000 C 
ENDBRANCH  18  27
BRANCH  18  28
ATOM     28  C   UNL     1       8.593   2.165  24.144  0.00  0.00    +0.000 A 
ATOM     29  C   UNL     1      10.075   1.951  23.840  0.00  0.00    +0.000 A 
ATOM     30  C   UNL     1      11.055   2.999  23.453  0.00  0.00    +0.000 A 
ATOM     31  C   UNL     1      10.371   4.306  23.624  0.00  0.00    +0.000 A 
ATOM     32  C   UNL     1       9.128   4.771  24.125  0.00  0.00    +0.000 A 
ATOM     33  C   UNL     1       8.316   3.542  24.524  0.00  0.00    +0.000 A 
ENDBRANCH  18  28
ENDBRANCH   1  19
TORSDOF 6
ENDMDL
MODEL 6
REMARK VINA RESULT:      -7.3      2.124      2.799
REMARK  Name = 
REMARK  6 active torsions:
REMARK  status: ('A' for Active; 'I' for Inactive)
REMARK    1  A    between atoms: C_11  and  N_13
REMARK    2  A    between atoms: N_13  and  C_44
REMARK    3  A    between atoms: C_14  and  C_16
REMARK    4  A    between atoms: C_16  and  C_18
REMARK    5  A    between atoms: C_23  and  N_24
REMARK    6  A    between atoms: C_26  and  C_28
REMARK                            x       y       z     vdW  Elec       q    Type
REMARK                         _______ _______ _______ _____ _____    ______ ____
ROOT
ATOM      1  C   UNL     1       8.064  -4.025  24.712  0.00  0.00    +0.000 C 
ATOM      2  O   UNL     1       8.919  -4.769  24.149  0.00  0.00    +0.000 OA
ENDROOT
BRANCH   1   3
ATOM      3  C   UNL     1       8.599  -2.678  24.999  0.00  0.00    +0.000 A 
ATOM      4  C   UNL     1       9.695  -2.636  23.983  0.00  0.00    +0.000 A 
ATOM      5  C   UNL     1       9.842  -1.742  22.836  0.00  0.00    +0.000 A 
ATOM      6  C   UNL     1       8.501  -0.980  22.617  0.00  0.00    +0.000 A 
ATOM      7  C   UNL     1       7.567  -0.587  23.703  0.00  0.00    +0.000 A 
ATOM      8  C   UNL     1       7.668  -1.544  24.921  0.00  0.00    +0.000 A 
BRANCH   6   9
ATOM      9  N   UNL     1       8.115  -1.245  21.304  0.00  0.00    +0.000 N 
ATOM     10  H   UNL     1       7.224  -1.659  21.404  0.00  0.00    +0.000 HD
ATOM     11  C   UNL     1       8.074  -0.263  20.435  0.00  0.00    +0.000 C 
ATOM     12  O   UNL     1       8.487   0.882  20.649  0.00  0.00    +0.000 OA
BRANCH  11  13
ATOM     13  C   UNL     1       7.207  -0.459  19.213  0.00  0.00    +0.000 C 
ATOM     14  O   UNL     1       7.452   0.472  18.223  0.00  0.00    +0.000 OA
ATOM     15  C   UNL     1       6.384   1.352  18.034  0.00  0.00    +0.000 C 
ATOM     16  C   UNL     1       5.144   0.679  18.637  0.00  0.00    +0.000 C 
ATOM     17  C   UNL     1       5.732  -0.377  19.607  0.00  0.00    +0.000 C 
ENDBRANCH  11  13
ENDBRANCH   6   9
ENDBRANCH   1   3
BRANCH   1  19
ATOM     18  N   UNL     1       6.454  -4.908  26.134  0.00  0.00    +0.000 N 
ATOM     19  C   UNL     1       7.778  -4.604  25.894  0.00  0.00    +0.000 C 
ATOM     20  O   UNL     1       8.635  -5.360  26.267  0.00  0.00    +0.000 OA
BRANCH  18  27
ATOM     21  C   UNL     1       4.693  -4.639  24.408  0.00  0.00    +0.000 C 
ATOM     22  C   UNL     1       3.420  -5.066  23.973  0.00  0.00    +0.000 C 
ATOM     23  S   UNL     1       3.236  -6.656  24.905  0.00  0.00    +0.000 S 
ATOM     24  O   UNL     1       3.093  -7.700  24.009  0.00  0.00    +0.000 OA
ATOM     25  O   UNL     1       2.306  -6.414  25.937  0.00  0.00    +0.000 OA
ATOM     26  C   UNL     1       4.905  -6.765  25.668  0.00  0.00    +0.000 C 
ATOM     27  C   UNL     1       5.669  -5.545  25.172  0.00  0.00    +0.000 C 
ENDBRANCH  18  27
BRANCH  18  28
ATOM     28  C   UNL     1       6.311  -4.666  27.438  0.00  0.00    +0.000 A 
ATOM     29  C   UNL     1       5.456  -3.405  27.328  0.00  0.00    +0.000 A 
ATOM     30  C   UNL     1       4.082  -3.223  27.866  0.00  0.00    +0.000 A 
ATOM     31  C   UNL     1       3.791  -4.413  28.704  0.00  0.00    +0.000 A 
ATOM     32  C   UNL     1       4.492  -5.558  29.164  0.00  0.00    +0.000 A 
ATOM     33  C   UNL     1       5.889  -5.507  28.548  0.00  0.00    +0.000 A 
ENDBRANCH  18  28
ENDBRANCH   1  19
TORSDOF 6
ENDMDL
MODEL 7
REMARK VINA RESULT:      -7.2      2.796      3.957
REMARK  Name = 
REMARK  6 active torsions:
REMARK  status: ('A' for Active; 'I' for Inactive)
REMARK    1  A    between atoms: C_11  and  N_13
REMARK    2  A    between atoms: N_13  and  C_44
REMARK    3  A    between atoms: C_14  and  C_16
REMARK    4  A    between atoms: C_16  and  C_18
REMARK    5  A    between atoms: C_23  and  N_24
REMARK    6  A    between atoms: C_26  and  C_28
REMARK                            x       y       z     vdW  Elec       q    Type
REMARK                         _______ _______ _______ _____ _____    ______ ____
ROOT
ATOM      1  C   UNL     1       7.927  -0.728  22.864  0.00  0.00    +0.000 C 
ATOM      2  O   UNL     1       7.365  -0.244  21.838  0.00  0.00    +0.000 OA
ENDROOT
BRANCH   1   3
ATOM      3  C   UNL     1       9.401  -0.699  22.758  0.00  0.00    +0.000 A 
ATOM      4  C   UNL     1       9.549   0.449  21.812  0.00  0.00    +0.000 A 
ATOM      5  C   UNL     1      10.188   1.743  22.042  0.00  0.00    +0.000 A 
ATOM      6  C   UNL     1      10.462   1.906  23.566  0.00  0.00    +0.000 A 
ATOM      7  C   UNL     1      10.780   0.788  24.491  0.00  0.00    +0.000 A 
ATOM      8  C   UNL     1      10.170  -0.552  24.002  0.00  0.00    +0.000 A 
BRANCH   6   9
ATOM      9  N   UNL     1       9.828   3.088  23.948  0.00  0.00    +0.000 N 
ATOM     10  H   UNL     1       9.854   3.640  23.130  0.00  0.00    +0.000 HD
ATOM     11  C   UNL     1       8.610   3.038  24.433  0.00  0.00    +0.000 C 
ATOM     12  O   UNL     1       8.009   1.995  24.714  0.00  0.00    +0.000 OA
BRANCH  11  13
ATOM     13  C   UNL     1       7.788   4.303  24.366  0.00  0.00    +0.000 C 
ATOM     14  O   UNL     1       6.493   4.083  23.938  0.00  0.00    +0.000 OA
ATOM     15  C   UNL     1       6.242   4.630  22.678  0.00  0.00    +0.000 C 
ATOM     16  C   UNL     1       7.322   5.691  22.433  0.00  0.00    +0.000 C 
ATOM     17  C   UNL     1       8.452   5.303  23.419  0.00  0.00    +0.000 C 
ENDBRANCH  11  13
ENDBRANCH   6   9
ENDBRANCH   1   3
BRANCH   1  19
ATOM     18  N   UNL     1       7.006  -2.452  24.117  0.00  0.00    +0.000 N 
ATOM     19  C   UNL     1       7.553  -2.020  22.927  0.00  0.00    +0.000 C 
ATOM     20  O   UNL     1       7.111  -2.433  21.889  0.00  0.00    +0.000 OA
BRANCH  18  27
ATOM     21  C   UNL     1       6.456  -1.042  26.082  0.00  0.00    +0.000 C 
ATOM     22  C   UNL     1       5.602  -0.882  27.194  0.00  0.00    +0.000 C 
ATOM     23  S   UNL     1       4.195  -1.994  26.727  0.00  0.00    +0.000 S 
ATOM     24  O   UNL     1       3.032  -1.251  26.641  0.00  0.00    +0.000 OA
ATOM     25  O   UNL     1       4.300  -3.142  27.540  0.00  0.00    +0.000 OA
ATOM     26  C   UNL     1       4.717  -2.461  25.028  0.00  0.00    +0.000 C 
ATOM     27  C   UNL     1       6.020  -1.714  24.773  0.00  0.00    +0.000 C 
ENDBRANCH  18  27
BRANCH  18  28
ATOM     28  C   UNL     1       7.471  -3.696  24.240  0.00  0.00    +0.000 A 
ATOM     29  C   UNL     1       8.597  -3.406  25.232  0.00  0.00    +0.000 A 
ATOM     30  C   UNL     1       8.736  -3.977  26.597  0.00  0.00    +0.000 A 
ATOM     31  C   UNL     1       7.699  -5.032  26.726  0.00  0.00    +0.000 A 
ATOM     32  C   UNL     1       6.737  -5.652  25.888  0.00  0.00    +0.000 A 
ATOM     33  C   UNL     1       6.814  -4.962  24.528  0.00  0.00    +0.000 A 
ENDBRANCH  18  28
ENDBRANCH   1  19
TORSDOF 6
ENDMDL
MODEL 8
REMARK VINA RESULT:      -7.2      2.239      6.535
REMARK  Name = 
REMARK  6 active torsions:
REMARK  status: ('A' for Active; 'I' for Inactive)
REMARK    1  A    between atoms: C_11  and  N_13
REMARK    2  A    between atoms: N_13  and  C_44
REMARK    3  A    between atoms: C_14  and  C_16
REMARK    4  A    between atoms: C_16  and  C_18
REMARK    5  A    between atoms: C_23  and  N_24
REMARK    6  A    between atoms: C_26  and  C_28
REMARK                            x       y       z     vdW  Elec       q    Type
REMARK                         _______ _______ _______ _____ _____    ______ ____
ROOT
ATOM      1  C   UNL     1       7.661  -0.186  23.999  0.00  0.00    +0.000 C 
ATOM      2  O   UNL     1       6.479  -0.615  24.145  0.00  0.00    +0.000 OA
ENDROOT
BRANCH   1   3
ATOM      3  C   UNL     1       8.614  -0.855  24.908  0.00  0.00    +0.000 A 
ATOM      4  C   UNL     1       7.652  -1.697  25.683  0.00  0.00    +0.000 A 
ATOM      5  C   UNL     1       7.565  -3.155  25.751  0.00  0.00    +0.000 A 
ATOM      6  C   UNL     1       8.460  -3.766  24.633  0.00  0.00    +0.000 A 
ATOM      7  C   UNL     1       9.720  -3.157  24.135  0.00  0.00    +0.000 A 
ATOM      8  C   UNL     1       9.717  -1.614  24.301  0.00  0.00    +0.000 A 
BRANCH   6   9
ATOM      9  N   UNL     1       7.626  -4.583  23.872  0.00  0.00    +0.000 N 
ATOM     10  H   UNL     1       6.867  -4.766  24.477  0.00  0.00    +0.000 HD
ATOM     11  C   UNL     1       7.196  -4.157  22.708  0.00  0.00    +0.000 C 
ATOM     12  O   UNL     1       7.584  -3.124  22.151  0.00  0.00    +0.000 OA
BRANCH  11  13
ATOM     13  C   UNL     1       5.947  -4.803  22.155  0.00  0.00    +0.000 C 
ATOM     14  O   UNL     1       4.810  -4.048  22.368  0.00  0.00    +0.000 OA
ATOM     15  C   UNL     1       3.929  -4.643  23.274  0.00  0.00    +0.000 C 
ATOM     16  C   UNL     1       4.295  -6.131  23.334  0.00  0.00    +0.000 C 
ATOM     17  C   UNL     1       5.747  -6.177  22.796  0.00  0.00    +0.000 C 
ENDBRANCH  11  13
ENDBRANCH   6   9
ENDBRANCH   1   3
BRANCH   1  19
ATOM     18  N   UNL     1       8.278   1.993  23.483  0.00  0.00    +0.000 N 
ATOM     19  C   UNL     1       7.635   1.118  24.334  0.00  0.00    +0.000 C 
ATOM     20  O   UNL     1       6.603   1.450  24.852  0.00  0.00    +0.000 OA
BRANCH  18  27
ATOM     21  C   UNL     1       6.702   2.326  21.596  0.00  0.00    +0.000 C 
ATOM     22  C   UNL     1       6.080   1.722  20.483  0.00  0.00    +0.000 C 
ATOM     23  S   UNL     1       7.168   0.245  20.222  0.00  0.00    +0.000 S 
ATOM     24  O   UNL     1       7.730   0.307  18.959  0.00  0.00    +0.000 OA
ATOM     25  O   UNL     1       6.442  -0.877  20.671  0.00  0.00    +0.000 OA
ATOM     26  C   UNL     1       8.477   0.599  21.462  0.00  0.00    +0.000 C 
ATOM     27  C   UNL     1       8.096   1.928  22.101  0.00  0.00    +0.000 C 
ENDBRANCH  18  27
BRANCH  18  28
ATOM     28  C   UNL     1       8.807   2.897  24.309  0.00  0.00    +0.000 A 
ATOM     29  C   UNL     1      10.280   2.640  23.990  0.00  0.00    +0.000 A 
ATOM     30  C   UNL     1      11.245   3.624  23.434  0.00  0.00    +0.000 A 
ATOM     31  C   UNL     1      10.565   4.944  23.449  0.00  0.00    +0.000 A 
ATOM     32  C   UNL     1       9.338   5.476  23.922  0.00  0.00    +0.000 A 
ATOM     33  C   UNL     1       8.540   4.314  24.508  0.00  0.00    +0.000 A 
ENDBRANCH  18  28
ENDBRANCH   1  19
TORSDOF 6
ENDMDL
MODEL 9
REMARK VINA RESULT:      -7.2      2.968      6.932
REMARK  Name = 
REMARK  6 active torsions:
REMARK  status: ('A' for Active; 'I' for Inactive)
REMARK    1  A    between atoms: C_11  and  N_13
REMARK    2  A    between atoms: N_13  and  C_44
REMARK    3  A    between atoms: C_14  and  C_16
REMARK    4  A    between atoms: C_16  and  C_18
REMARK    5  A    between atoms: C_23  and  N_24
REMARK    6  A    between atoms: C_26  and  C_28
REMARK                            x       y       z     vdW  Elec       q    Type
REMARK                         _______ _______ _______ _____ _____    ______ ____
ROOT
ATOM      1  C   UNL     1       8.231  -3.033  24.794  0.00  0.00    +0.000 C 
ATOM      2  O   UNL     1       8.899  -2.736  25.828  0.00  0.00    +0.000 OA
ENDROOT
BRANCH   1   3
ATOM      3  C   UNL     1       8.223  -4.486  24.532  0.00  0.00    +0.000 A 
ATOM      4  C   UNL     1       7.615  -4.957  25.814  0.00  0.00    +0.000 A 
ATOM      5  C   UNL     1       6.342  -5.643  26.022  0.00  0.00    +0.000 A 
ATOM      6  C   UNL     1       5.510  -5.571  24.707  0.00  0.00    +0.000 A 
ATOM      7  C   UNL     1       6.091  -5.561  23.341  0.00  0.00    +0.000 A 
ATOM      8  C   UNL     1       7.521  -4.958  23.329  0.00  0.00    +0.000 A 
BRANCH   6   9
ATOM      9  N   UNL     1       4.295  -4.980  25.051  0.00  0.00    +0.000 N 
ATOM     10  H   UNL     1       4.147  -5.279  25.980  0.00  0.00    +0.000 HD
ATOM     11  C   UNL     1       4.163  -3.678  24.957  0.00  0.00    +0.000 C 
ATOM     12  O   UNL     1       5.000  -2.923  24.450  0.00  0.00    +0.000 OA
BRANCH  11  13
ATOM     13  C   UNL     1       3.070  -3.034  25.777  0.00  0.00    +0.000 C 
ATOM     14  O   UNL     1       3.308  -1.700  26.040  0.00  0.00    +0.000 OA
ATOM     15  C   UNL     1       3.565  -1.454  27.391  0.00  0.00    +0.000 C 
ATOM     16  C   UNL     1       3.013  -2.654  28.171  0.00  0.00    +0.000 C 
ATOM     17  C   UNL     1       2.915  -3.774  27.106  0.00  0.00    +0.000 C 
ENDBRANCH  11  13
ENDBRANCH   6   9
ENDBRANCH   1   3
BRANCH   1  19
ATOM     18  N   UNL     1       8.303  -1.264  23.291  0.00  0.00    +0.000 N 
ATOM     19  C   UNL     1       8.853  -2.440  23.758  0.00  0.00    +0.000 C 
ATOM     20  O   UNL     1      10.048  -2.558  23.797  0.00  0.00    +0.000 OA
BRANCH  18  27
ATOM     21  C   UNL     1       6.560   0.407  23.858  0.00  0.00    +0.000 C 
ATOM     22  C   UNL     1       6.292   1.774  24.081  0.00  0.00    +0.000 C 
ATOM     23  S   UNL     1       7.999   2.431  24.373  0.00  0.00    +0.000 S 
ATOM     24  O   UNL     1       8.068   2.983  25.640  0.00  0.00    +0.000 OA
ATOM     25  O   UNL     1       8.359   3.152  23.215  0.00  0.00    +0.000 OA
ATOM     26  C   UNL     1       8.945   0.856  24.368  0.00  0.00    +0.000 C 
ATOM     27  C   UNL     1       7.915  -0.247  24.163  0.00  0.00    +0.000 C 
ENDBRANCH  18  27
BRANCH  18  28
ATOM     28  C   UNL     1       8.491  -1.335  21.972  0.00  0.00    +0.000 A 
ATOM     29  C   UNL     1       7.208  -2.086  21.615  0.00  0.00    +0.000 A 
ATOM     30  C   UNL     1       6.125  -1.601  20.720  0.00  0.00    +0.000 A 
ATOM     31  C   UNL     1       6.624  -0.356  20.082  0.00  0.00    +0.000 A 
ATOM     32  C   UNL     1       7.836   0.381  20.046  0.00  0.00    +0.000 A 
ATOM     33  C   UNL     1       8.819  -0.328  20.975  0.00  0.00    +0.000 A 
ENDBRANCH  18  28
ENDBRANCH   1  19
TORSDOF 6
ENDMDL
