MODEL 1
REMARK VINA RESULT:      -8.6      0.000      0.000
REMARK  Name = 
REMARK  5 active torsions:
REMARK  status: ('A' for Active; 'I' for Inactive)
REMARK    1  A    between atoms: N_5  and  S_7
REMARK    2  A    between atoms: S_7  and  C_10
REMARK    3  A    between atoms: C_15  and  C_16
REMARK    4  A    between atoms: C_16  and  C_19
REMARK    5  A    between atoms: C_29  and  C_31
REMARK                            x       y       z     vdW  Elec       q    Type
REMARK                         _______ _______ _______ _____ _____    ______ ____
ROOT
ATOM      1  C   UNL     1       9.269   0.882  22.575  0.00  0.00    +0.000 A 
ATOM      2  C   UNL     1       7.870   1.036  22.076  0.00  0.00    +0.000 A 
ATOM      3  C   UNL     1       7.021   0.063  21.403  0.00  0.00    +0.000 A 
ATOM      4  C   UNL     1       7.636  -1.380  21.640  0.00  0.00    +0.000 A 
ATOM      5  C   UNL     1       9.102  -1.618  21.661  0.00  0.00    +0.000 A 
ATOM      6  C   UNL     1       9.907  -0.368  22.173  0.00  0.00    +0.000 A 
ENDROOT
BRANCH   1   7
ATOM      7  S   UNL     1       9.035   1.078  24.342  0.00  0.00    +0.000 S 
ATOM      8  O   UNL     1       7.799   0.491  24.686  0.00  0.00    +0.000 OA
ATOM      9  O   UNL     1      10.204   0.644  25.046  0.00  0.00    +0.000 OA
BRANCH   7  13
ATOM     10  C   UNL     1      11.759   3.883  23.245  0.00  0.00    +0.000 A 
ATOM     11  N   UNL     1      10.773   2.842  23.594  0.00  0.00    +0.000 NA
ATOM     12  C   UNL     1       9.625   3.377  23.670  0.00  0.00    +0.000 A 
ATOM     13  N   UNL     1       8.929   2.713  24.586  0.00  0.00    +0.000 N 
ATOM     14  H   UNL     1       9.278   2.898  25.473  0.00  0.00    +0.000 HD
ATOM     15  C   UNL     1       9.165   4.714  23.898  0.00  0.00    +0.000 A 
ATOM     16  C   UNL     1      10.012   5.858  23.858  0.00  0.00    +0.000 A 
ATOM     17  C   UNL     1      11.367   5.170  23.722  0.00  0.00    +0.000 A 
ENDBRANCH   7  13
ENDBRANCH   1   7
BRANCH   4  18
ATOM     18  C   UNL     1       6.617  -2.099  22.582  0.00  0.00    +0.000 C 
BRANCH  18  19
ATOM     19  C   UNL     1       5.761  -2.996  21.718  0.00  0.00    +0.000 C 
ATOM     20  O   UNL     1       5.750  -2.807  20.498  0.00  0.00    +0.000 OA
ATOM     21  N   UNL     1       5.418  -4.186  22.189  0.00  0.00    +0.000 N 
ATOM     22  C   UNL     1       5.822  -5.423  21.523  0.00  0.00    +0.000 C 
ATOM     23  C   UNL     1       6.968  -6.053  22.289  0.00  0.00    +0.000 C 
ATOM     24  O   UNL     1       7.213  -5.418  23.458  0.00  0.00    +0.000 OA
ATOM     25  C   UNL     1       6.080  -5.186  24.240  0.00  0.00    +0.000 C 
ATOM     26  C   UNL     1       5.101  -4.348  23.647  0.00  0.00    +0.000 C 
BRANCH  25  27
ATOM     27  C   UNL     1       6.570  -4.894  25.648  0.00  0.00    +0.000 A 
ATOM     28  C   UNL     1       6.266  -3.467  25.964  0.00  0.00    +0.000 A 
ATOM     29  C   UNL     1       7.253  -2.423  26.263  0.00  0.00    +0.000 A 
ATOM     30  C   UNL     1       8.675  -2.940  26.313  0.00  0.00    +0.000 A 
ATOM     31  F   UNL     1       9.277  -2.237  25.219  0.00  0.00    +0.000 F 
ATOM     32  C   UNL     1       9.074  -4.351  26.325  0.00  0.00    +0.000 A 
ATOM     33  C   UNL     1       7.884  -5.351  26.105  0.00  0.00    +0.000 A 
ENDBRANCH  25  27
ENDBRANCH  18  19
ENDBRANCH   4  18
TORSDOF 5
ENDMDL
MODEL 2
REMARK VINA RESULT:      -8.5      2.138      3.068
REMARK  Name = 
REMARK  5 active torsions:
REMARK  status: ('A' for Active; 'I' for Inactive)
REMARK    1  A    between atoms: N_5  and  S_7
REMARK    2  A    between atoms: S_7  and  C_10
REMARK    3  A    between atoms: C_15  and  C_16
REMARK    4  A    between atoms: C_16  and  C_19
REMARK    5  A    between atoms: C_29  and  C_31
REMARK                            x       y       z     vdW  Elec       q    Type
REMARK                         _______ _______ _______ _____ _____    ______ ____
ROOT
ATOM      1  C   UNL     1      10.167   0.411  22.793  0.00  0.00    +0.000 A 
ATOM      2  C   UNL     1       9.153   0.992  21.864  0.00  0.00    +0.000 A 
ATOM      3  C   UNL     1       8.213   0.311  20.986  0.00  0.00    +0.000 A 
ATOM      4  C   UNL     1       8.100  -1.200  21.456  0.00  0.00    +0.000 A 
ATOM      5  C   UNL     1       9.275  -1.959  21.957  0.00  0.00    +0.000 A 
ATOM      6  C   UNL     1      10.334  -1.033  22.660  0.00  0.00    +0.000 A 
ENDROOT
BRANCH   1   7
ATOM      7  S   UNL     1       9.543   0.957  24.383  0.00  0.00    +0.000 S 
ATOM      8  O   UNL     1      10.218   0.235  25.388  0.00  0.00    +0.000 OA
ATOM      9  O   UNL     1       9.560   2.387  24.456  0.00  0.00    +0.000 OA
BRANCH   7  13
ATOM     10  C   UNL     1       7.252   0.215  27.653  0.00  0.00    +0.000 A 
ATOM     11  N   UNL     1       8.102   0.529  26.488  0.00  0.00    +0.000 NA
ATOM     12  C   UNL     1       7.358   0.889  25.525  0.00  0.00    +0.000 A 
ATOM     13  N   UNL     1       7.947   0.513  24.396  0.00  0.00    +0.000 N 
ATOM     14  H   UNL     1       7.914  -0.454  24.305  0.00  0.00    +0.000 HD
ATOM     15  C   UNL     1       5.981   0.669  25.199  0.00  0.00    +0.000 A 
ATOM     16  C   UNL     1       5.030   0.128  26.110  0.00  0.00    +0.000 A 
ATOM     17  C   UNL     1       5.960  -0.245  27.260  0.00  0.00    +0.000 A 
ENDBRANCH   7  13
ENDBRANCH   1   7
BRANCH   4  18
ATOM     18  C   UNL     1       6.657  -1.330  22.042  0.00  0.00    +0.000 C 
BRANCH  18  19
ATOM     19  C   UNL     1       5.902  -2.301  21.165  0.00  0.00    +0.000 C 
ATOM     20  O   UNL     1       5.992  -2.186  19.939  0.00  0.00    +0.000 OA
ATOM     21  N   UNL     1       5.546  -3.470  21.677  0.00  0.00    +0.000 N 
ATOM     22  C   UNL     1       6.036  -4.733  21.126  0.00  0.00    +0.000 C 
ATOM     23  C   UNL     1       7.125  -5.283  22.025  0.00  0.00    +0.000 C 
ATOM     24  O   UNL     1       7.252  -4.573  23.169  0.00  0.00    +0.000 OA
ATOM     25  C   UNL     1       6.050  -4.327  23.835  0.00  0.00    +0.000 C 
ATOM     26  C   UNL     1       5.108  -3.554  23.110  0.00  0.00    +0.000 C 
BRANCH  25  27
ATOM     27  C   UNL     1       6.408  -3.938  25.259  0.00  0.00    +0.000 A 
ATOM     28  C   UNL     1       7.476  -2.897  25.207  0.00  0.00    +0.000 A 
ATOM     29  C   UNL     1       8.833  -3.029  25.751  0.00  0.00    +0.000 A 
ATOM     30  C   UNL     1       9.061  -4.334  26.483  0.00  0.00    +0.000 A 
ATOM     31  F   UNL     1      10.065  -4.951  25.668  0.00  0.00    +0.000 F 
ATOM     32  C   UNL     1       8.020  -5.294  26.866  0.00  0.00    +0.000 A 
ATOM     33  C   UNL     1       6.598  -4.953  26.299  0.00  0.00    +0.000 A 
ENDBRANCH  25  27
ENDBRANCH  18  19
ENDBRANCH   4  18
TORSDOF 5
ENDMDL
MODEL 3
REMARK VINA RESULT:      -8.4      1.916      2.558
REMARK  Name = 
REMARK  5 active torsions:
REMARK  status: ('A' for Active; 'I' for Inactive)
REMARK    1  A    between atoms: N_5  and  S_7
REMARK    2  A    between atoms: S_7  and  C_10
REMARK    3  A    between atoms: C_15  and  C_16
REMARK    4  A    between atoms: C_16  and  C_19
REMARK    5  A    between atoms: C_29  and  C_31
REMARK                            x       y       z     vdW  Elec       q    Type
REMARK                         _______ _______ _______ _____ _____    ______ ____
ROOT
ATOM      1  C   UNL     1      10.050   0.561  22.338  0.00  0.00    +0.000 A 
ATOM      2  C   UNL     1       8.943   0.713  21.348  0.00  0.00    +0.000 A 
ATOM      3  C   UNL     1       8.044  -0.298  20.810  0.00  0.00    +0.000 A 
ATOM      4  C   UNL     1       8.109  -1.573  21.752  0.00  0.00    +0.000 A 
ATOM      5  C   UNL     1       9.378  -2.020  22.384  0.00  0.00    +0.000 A 
ATOM      6  C   UNL     1      10.362  -0.827  22.669  0.00  0.00    +0.000 A 
ENDROOT
BRANCH   1   7
ATOM      7  S   UNL     1       9.438   1.545  23.705  0.00  0.00    +0.000 S 
ATOM      8  O   UNL     1       9.830   0.917  24.905  0.00  0.00    +0.000 OA
ATOM      9  O   UNL     1       9.791   2.921  23.520  0.00  0.00    +0.000 OA
BRANCH   7  13
ATOM     10  C   UNL     1       6.742   2.941  26.401  0.00  0.00    +0.000 A 
ATOM     11  N   UNL     1       7.747   2.481  25.426  0.00  0.00    +0.000 NA
ATOM     12  C   UNL     1       7.217   2.455  24.273  0.00  0.00    +0.000 A 
ATOM     13  N   UNL     1       7.787   1.472  23.586  0.00  0.00    +0.000 N 
ATOM     14  H   UNL     1       7.509   0.610  23.939  0.00  0.00    +0.000 HD
ATOM     15  C   UNL     1       5.867   2.365  23.804  0.00  0.00    +0.000 A 
ATOM     16  C   UNL     1       4.727   2.528  24.642  0.00  0.00    +0.000 A 
ATOM     17  C   UNL     1       5.415   2.598  26.001  0.00  0.00    +0.000 A 
ENDBRANCH   7  13
ENDBRANCH   1   7
BRANCH   4  18
ATOM     18  C   UNL     1       6.714  -1.625  22.453  0.00  0.00    +0.000 C 
BRANCH  18  19
ATOM     19  C   UNL     1       5.866  -2.619  21.694  0.00  0.00    +0.000 C 
ATOM     20  O   UNL     1       5.728  -2.470  20.476  0.00  0.00    +0.000 OA
ATOM     21  N   UNL     1       5.672  -3.818  22.222  0.00  0.00    +0.000 N 
ATOM     22  C   UNL     1       6.123  -5.036  21.552  0.00  0.00    +0.000 C 
ATOM     23  C   UNL     1       7.384  -5.541  22.224  0.00  0.00    +0.000 C 
ATOM     24  O   UNL     1       7.677  -4.851  23.349  0.00  0.00    +0.000 OA
ATOM     25  C   UNL     1       6.603  -4.691  24.227  0.00  0.00    +0.000 C 
ATOM     26  C   UNL     1       5.505  -3.960  23.708  0.00  0.00    +0.000 C 
BRANCH  25  27
ATOM     27  C   UNL     1       7.190  -4.314  25.576  0.00  0.00    +0.000 A 
ATOM     28  C   UNL     1       6.101  -3.735  26.416  0.00  0.00    +0.000 A 
ATOM     29  C   UNL     1       6.059  -2.368  26.948  0.00  0.00    +0.000 A 
ATOM     30  C   UNL     1       7.304  -1.566  26.638  0.00  0.00    +0.000 A 
ATOM     31  F   UNL     1       6.778  -0.526  25.805  0.00  0.00    +0.000 F 
ATOM     32  C   UNL     1       8.556  -2.103  26.096  0.00  0.00    +0.000 A 
ATOM     33  C   UNL     1       8.473  -3.613  25.676  0.00  0.00    +0.000 A 
ENDBRANCH  25  27
ENDBRANCH  18  19
ENDBRANCH   4  18
TORSDOF 5
ENDMDL
MODEL 4
REMARK VINA RESULT:      -8.4      3.096      4.978
REMARK  Name = 
REMARK  5 active torsions:
REMARK  status: ('A' for Active; 'I' for Inactive)
REMARK    1  A    between atoms: N_5  and  S_7
REMARK    2  A    between atoms: S_7  and  C_10
REMARK    3  A    between atoms: C_15  and  C_16
REMARK    4  A    between atoms: C_16  and  C_19
REMARK    5  A    between atoms: C_29  and  C_31
REMARK                            x       y       z     vdW  Elec       q    Type
REMARK                         _______ _______ _______ _____ _____    ______ ____
ROOT
ATOM      1  C   UNL     1      10.144  -0.261  23.161  0.00  0.00    +0.000 A 
ATOM      2  C   UNL     1       9.477  -1.576  22.927  0.00  0.00    +0.000 A 
ATOM      3  C   UNL     1       8.829  -2.462  23.883  0.00  0.00    +0.000 A 
ATOM      4  C   UNL     1       8.534  -1.636  25.205  0.00  0.00    +0.000 A 
ATOM      5  C   UNL     1       9.479  -0.611  25.720  0.00  0.00    +0.000 A 
ATOM      6  C   UNL     1      10.301   0.081  24.572  0.00  0.00    +0.000 A 
ENDROOT
BRANCH   1   7
ATOM      7  S   UNL     1       9.082   0.843  22.229  0.00  0.00    +0.000 S 
ATOM      8  O   UNL     1       8.021   1.241  23.070  0.00  0.00    +0.000 OA
ATOM      9  O   UNL     1       9.862   1.867  21.602  0.00  0.00    +0.000 OA
BRANCH   7  13
ATOM     10  C   UNL     1       5.735   1.600  20.058  0.00  0.00    +0.000 A 
ATOM     11  N   UNL     1       6.966   1.376  20.839  0.00  0.00    +0.000 NA
ATOM     12  C   UNL     1       7.757   0.656  20.157  0.00  0.00    +0.000 A 
ATOM     13  N   UNL     1       8.464  -0.084  21.003  0.00  0.00    +0.000 N 
ATOM     14  H   UNL     1       7.899  -0.762  21.409  0.00  0.00    +0.000 HD
ATOM     15  C   UNL     1       7.578  -0.266  19.075  0.00  0.00    +0.000 A 
ATOM     16  C   UNL     1       6.367  -0.392  18.338  0.00  0.00    +0.000 A 
ATOM     17  C   UNL     1       5.466   0.520  19.166  0.00  0.00    +0.000 A 
ENDBRANCH   7  13
ENDBRANCH   1   7
BRANCH   4  18
ATOM     18  C   UNL     1       6.978  -1.497  25.252  0.00  0.00    +0.000 C 
BRANCH  18  19
ATOM     19  C   UNL     1       6.523  -1.998  26.603  0.00  0.00    +0.000 C 
ATOM     20  O   UNL     1       6.680  -1.270  27.588  0.00  0.00    +0.000 OA
ATOM     21  N   UNL     1       5.604  -2.951  26.646  0.00  0.00    +0.000 N 
ATOM     22  C   UNL     1       4.303  -2.737  27.278  0.00  0.00    +0.000 C 
ATOM     23  C   UNL     1       3.254  -2.526  26.205  0.00  0.00    +0.000 C 
ATOM     24  O   UNL     1       3.739  -2.747  24.962  0.00  0.00    +0.000 OA
ATOM     25  C   UNL     1       4.448  -3.942  24.821  0.00  0.00    +0.000 C 
ATOM     26  C   UNL     1       5.616  -4.046  25.619  0.00  0.00    +0.000 C 
BRANCH  25  27
ATOM     27  C   UNL     1       4.523  -4.236  23.333  0.00  0.00    +0.000 A 
ATOM     28  C   UNL     1       4.745  -5.701  23.155  0.00  0.00    +0.000 A 
ATOM     29  C   UNL     1       5.916  -6.323  22.525  0.00  0.00    +0.000 A 
ATOM     30  C   UNL     1       6.898  -5.319  21.963  0.00  0.00    +0.000 A 
ATOM     31  F   UNL     1       8.056  -5.565  22.768  0.00  0.00    +0.000 F 
ATOM     32  C   UNL     1       6.655  -3.881  21.800  0.00  0.00    +0.000 A 
ATOM     33  C   UNL     1       5.305  -3.388  22.430  0.00  0.00    +0.000 A 
ENDBRANCH  25  27
ENDBRANCH  18  19
ENDBRANCH   4  18
TORSDOF 5
ENDMDL
MODEL 5
REMARK VINA RESULT:      -8.3      2.883      7.249
REMARK  Name = 
REMARK  5 active torsions:
REMARK  status: ('A' for Active; 'I' for Inactive)
REMARK    1  A    between atoms: N_5  and  S_7
REMARK    2  A    between atoms: S_7  and  C_10
REMARK    3  A    between atoms: C_15  and  C_16
REMARK    4  A    between atoms: C_16  and  C_19
REMARK    5  A    between atoms: C_29  and  C_31
REMARK                            x       y       z     vdW  Elec       q    Type
REMARK                         _______ _______ _______ _____ _____    ______ ____
ROOT
ATOM      1  C   UNL     1       8.806  -4.116  25.789  0.00  0.00    +0.000 A 
ATOM      2  C   UNL     1       8.214  -2.931  26.478  0.00  0.00    +0.000 A 
ATOM      3  C   UNL     1       8.254  -1.528  26.093  0.00  0.00    +0.000 A 
ATOM      4  C   UNL     1       8.668  -1.444  24.563  0.00  0.00    +0.000 A 
ATOM      5  C   UNL     1       9.666  -2.368  23.966  0.00  0.00    +0.000 A 
ATOM      6  C   UNL     1       9.681  -3.774  24.670  0.00  0.00    +0.000 A 
ENDROOT
BRANCH   1   7
ATOM      7  S   UNL     1       7.334  -5.037  25.344  0.00  0.00    +0.000 S 
ATOM      8  O   UNL     1       7.476  -5.469  24.008  0.00  0.00    +0.000 OA
ATOM      9  O   UNL     1       7.048  -6.023  26.342  0.00  0.00    +0.000 OA
BRANCH   7  13
ATOM     10  C   UNL     1       3.444  -5.686  24.376  0.00  0.00    +0.000 A 
ATOM     11  N   UNL     1       4.857  -5.496  24.756  0.00  0.00    +0.000 NA
ATOM     12  C   UNL     1       4.930  -4.544  25.592  0.00  0.00    +0.000 A 
ATOM     13  N   UNL     1       6.098  -3.937  25.414  0.00  0.00    +0.000 N 
ATOM     14  H   UNL     1       6.097  -3.447  24.575  0.00  0.00    +0.000 HD
ATOM     15  C   UNL     1       4.089  -3.427  25.902  0.00  0.00    +0.000 A 
ATOM     16  C   UNL     1       2.755  -3.287  25.423  0.00  0.00    +0.000 A 
ATOM     17  C   UNL     1       2.701  -4.471  24.462  0.00  0.00    +0.000 A 
ENDBRANCH   7  13
ENDBRANCH   1   7
BRANCH   4  18
ATOM     18  C   UNL     1       7.383  -0.946  23.827  0.00  0.00    +0.000 C 
BRANCH  18  19
ATOM     19  C   UNL     1       7.264  -1.737  22.546  0.00  0.00    +0.000 C 
ATOM     20  O   UNL     1       6.510  -2.715  22.522  0.00  0.00    +0.000 OA
ATOM     21  N   UNL     1       7.587  -1.146  21.406  0.00  0.00    +0.000 N 
ATOM     22  C   UNL     1       6.612  -0.954  20.334  0.00  0.00    +0.000 C 
ATOM     23  C   UNL     1       6.154   0.490  20.325  0.00  0.00    +0.000 C 
ATOM     24  O   UNL     1       6.866   1.259  21.180  0.00  0.00    +0.000 OA
ATOM     25  C   UNL     1       8.251   1.112  21.075  0.00  0.00    +0.000 C 
ATOM     26  C   UNL     1       8.742  -0.186  21.365  0.00  0.00    +0.000 C 
BRANCH  25  27
ATOM     27  C   UNL     1       8.874   2.322  21.750  0.00  0.00    +0.000 A 
ATOM     28  C   UNL     1      10.030   1.857  22.570  0.00  0.00    +0.000 A 
ATOM     29  C   UNL     1      10.156   1.978  24.028  0.00  0.00    +0.000 A 
ATOM     30  C   UNL     1       9.004   2.722  24.668  0.00  0.00    +0.000 A 
ATOM     31  F   UNL     1       8.422   1.703  25.490  0.00  0.00    +0.000 F 
ATOM     32  C   UNL     1       7.975   3.486  23.955  0.00  0.00    +0.000 A 
ATOM     33  C   UNL     1       8.043   3.343  22.393  0.00  0.00    +0.000 A 
ENDBRANCH  25  27
ENDBRANCH  18  19
ENDBRANCH   4  18
TORSDOF 5
ENDMDL
MODEL 6
REMARK VINA RESULT:      -8.3      2.851      6.132
REMARK  Name = 
REMARK  5 active torsions:
REMARK  status: ('A' for Active; 'I' for Inactive)
REMARK    1  A    between atoms: N_5  and  S_7
REMARK    2  A    between atoms: S_7  and  C_10
REMARK    3  A    between atoms: C_15  and  C_16
REMARK    4  A    between atoms: C_16  and  C_19
REMARK    5  A    between atoms: C_29  and  C_31
REMARK                            x       y       z     vdW  Elec       q    Type
REMARK                         _______ _______ _______ _____ _____    ______ ____
ROOT
ATOM      1  C   UNL     1       6.651  -5.364  24.447  0.00  0.00    +0.000 A 
ATOM      2  C   UNL     1       7.453  -5.215  23.196  0.00  0.00    +0.000 A 
ATOM      3  C   UNL     1       7.098  -4.550  21.951  0.00  0.00    +0.000 A 
ATOM      4  C   UNL     1       5.861  -3.597  22.231  0.00  0.00    +0.000 A 
ATOM      5  C   UNL     1       4.768  -3.979  23.163  0.00  0.00    +0.000 A 
ATOM      6  C   UNL     1       5.266  -4.921  24.320  0.00  0.00    +0.000 A 
ENDROOT
BRANCH   1   7
ATOM      7  S   UNL     1       7.640  -4.429  25.613  0.00  0.00    +0.000 S 
ATOM      8  O   UNL     1       7.923  -5.264  26.715  0.00  0.00    +0.000 OA
ATOM      9  O   UNL     1       8.742  -3.809  24.941  0.00  0.00    +0.000 OA
BRANCH   7  13
ATOM     10  C   UNL     1       8.809  -0.753  26.883  0.00  0.00    +0.000 A 
ATOM     11  N   UNL     1       8.418  -2.083  26.380  0.00  0.00    +0.000 NA
ATOM     12  C   UNL     1       7.234  -2.017  25.928  0.00  0.00    +0.000 A 
ATOM     13  N   UNL     1       6.658  -3.197  26.124  0.00  0.00    +0.000 N 
ATOM     14  H   UNL     1       6.488  -3.335  27.071  0.00  0.00    +0.000 HD
ATOM     15  C   UNL     1       6.130  -1.135  26.162  0.00  0.00    +0.000 A 
ATOM     16  C   UNL     1       6.241   0.102  26.860  0.00  0.00    +0.000 A 
ATOM     17  C   UNL     1       7.685  -0.005  27.343  0.00  0.00    +0.000 A 
ENDBRANCH   7  13
ENDBRANCH   1   7
BRANCH   4  18
ATOM     18  C   UNL     1       6.431  -2.149  22.095  0.00  0.00    +0.000 C 
BRANCH  18  19
ATOM     19  C   UNL     1       6.349  -1.768  20.635  0.00  0.00    +0.000 C 
ATOM     20  O   UNL     1       5.396  -2.183  19.968  0.00  0.00    +0.000 OA
ATOM     21  N   UNL     1       7.002  -0.691  20.225  0.00  0.00    +0.000 N 
ATOM     22  C   UNL     1       6.305   0.457  19.647  0.00  0.00    +0.000 C 
ATOM     23  C   UNL     1       6.222   1.564  20.678  0.00  0.00    +0.000 C 
ATOM     24  O   UNL     1       6.939   1.284  21.790  0.00  0.00    +0.000 OA
ATOM     25  C   UNL     1       8.242   0.848  21.544  0.00  0.00    +0.000 C 
ATOM     26  C   UNL     1       8.344  -0.363  20.813  0.00  0.00    +0.000 C 
BRANCH  25  27
ATOM     27  C   UNL     1       9.013   1.011  22.843  0.00  0.00    +0.000 A 
ATOM     28  C   UNL     1       8.076   1.527  23.883  0.00  0.00    +0.000 A 
ATOM     29  C   UNL     1       8.191   2.812  24.584  0.00  0.00    +0.000 A 
ATOM     30  C   UNL     1       9.441   3.583  24.219  0.00  0.00    +0.000 A 
ATOM     31  F   UNL     1       8.889   4.750  23.599  0.00  0.00    +0.000 F 
ATOM     32  C   UNL     1      10.579   3.060  23.456  0.00  0.00    +0.000 A 
ATOM     33  C   UNL     1      10.343   1.626  22.864  0.00  0.00    +0.000 A 
ENDBRANCH  25  27
ENDBRANCH  18  19
ENDBRANCH   4  18
TORSDOF 5
ENDMDL
MODEL 7
REMARK VINA RESULT:      -8.1      2.729      8.029
REMARK  Name = 
REMARK  5 active torsions:
REMARK  status: ('A' for Active; 'I' for Inactive)
REMARK    1  A    between atoms: N_5  and  S_7
REMARK    2  A    between atoms: S_7  and  C_10
REMARK    3  A    between atoms: C_15  and  C_16
REMARK    4  A    between atoms: C_16  and  C_19
REMARK    5  A    between atoms: C_29  and  C_31
REMARK                            x       y       z     vdW  Elec       q    Type
REMARK                         _______ _______ _______ _____ _____    ______ ____
ROOT
ATOM      1  C   UNL     1       8.971  -3.750  24.889  0.00  0.00    +0.000 A 
ATOM      2  C   UNL     1       8.253  -3.028  25.982  0.00  0.00    +0.000 A 
ATOM      3  C   UNL     1       8.213  -1.601  26.269  0.00  0.00    +0.000 A 
ATOM      4  C   UNL     1       8.709  -0.820  24.980  0.00  0.00    +0.000 A 
ATOM      5  C   UNL     1       9.805  -1.336  24.120  0.00  0.00    +0.000 A 
ATOM      6  C   UNL     1       9.882  -2.907  24.121  0.00  0.00    +0.000 A 
ENDROOT
BRANCH   1   7
ATOM      7  S   UNL     1       7.599  -4.429  23.956  0.00  0.00    +0.000 S 
ATOM      8  O   UNL     1       6.968  -3.368  23.274  0.00  0.00    +0.000 OA
ATOM      9  O   UNL     1       8.034  -5.557  23.188  0.00  0.00    +0.000 OA
BRANCH   7  13
ATOM     10  C   UNL     1       3.898  -5.962  23.292  0.00  0.00    +0.000 A 
ATOM     11  N   UNL     1       5.261  -5.435  23.493  0.00  0.00    +0.000 NA
ATOM     12  C   UNL     1       5.733  -5.923  24.565  0.00  0.00    +0.000 A 
ATOM     13  N   UNL     1       6.551  -5.021  25.094  0.00  0.00    +0.000 N 
ATOM     14  H   UNL     1       6.043  -4.268  25.441  0.00  0.00    +0.000 HD
ATOM     15  C   UNL     1       5.145  -6.480  25.746  0.00  0.00    +0.000 A 
ATOM     16  C   UNL     1       3.769  -6.831  25.852  0.00  0.00    +0.000 A 
ATOM     17  C   UNL     1       3.257  -6.268  24.530  0.00  0.00    +0.000 A 
ENDBRANCH   7  13
ENDBRANCH   1   7
BRANCH   4  18
ATOM     18  C   UNL     1       7.435  -0.095  24.437  0.00  0.00    +0.000 C 
BRANCH  18  19
ATOM     19  C   UNL     1       7.703   1.390  24.499  0.00  0.00    +0.000 C 
ATOM     20  O   UNL     1       8.018   1.890  25.583  0.00  0.00    +0.000 OA
ATOM     21  N   UNL     1       8.028   2.021  23.381  0.00  0.00    +0.000 N 
ATOM     22  C   UNL     1       9.315   2.697  23.225  0.00  0.00    +0.000 C 
ATOM     23  C   UNL     1      10.230   1.843  22.369  0.00  0.00    +0.000 C 
ATOM     24  O   UNL     1       9.588   0.777  21.840  0.00  0.00    +0.000 OA
ATOM     25  C   UNL     1       8.371   1.079  21.226  0.00  0.00    +0.000 C 
ATOM     26  C   UNL     1       7.382   1.624  22.085  0.00  0.00    +0.000 C 
BRANCH  25  27
ATOM     27  C   UNL     1       8.025  -0.098  20.330  0.00  0.00    +0.000 A 
ATOM     28  C   UNL     1       7.822   0.412  18.943  0.00  0.00    +0.000 A 
ATOM     29  C   UNL     1       6.575   0.338  18.173  0.00  0.00    +0.000 A 
ATOM     30  C   UNL     1       5.472  -0.408  18.891  0.00  0.00    +0.000 A 
ATOM     31  F   UNL     1       4.495   0.624  19.072  0.00  0.00    +0.000 F 
ATOM     32  C   UNL     1       5.631  -1.212  20.107  0.00  0.00    +0.000 A 
ATOM     33  C   UNL     1       7.059  -1.115  20.752  0.00  0.00    +0.000 A 
ENDBRANCH  25  27
ENDBRANCH  18  19
ENDBRANCH   4  18
TORSDOF 5
ENDMDL
MODEL 8
REMARK VINA RESULT:      -8.1      2.402      7.572
REMARK  Name = 
REMARK  5 active torsions:
REMARK  status: ('A' for Active; 'I' for Inactive)
REMARK    1  A    between atoms: N_5  and  S_7
REMARK    2  A    between atoms: S_7  and  C_10
REMARK    3  A    between atoms: C_15  and  C_16
REMARK    4  A    between atoms: C_16  and  C_19
REMARK    5  A    between atoms: C_29  and  C_31
REMARK                            x       y       z     vdW  Elec       q    Type
REMARK                         _______ _______ _______ _____ _____    ______ ____
ROOT
ATOM      1  C   UNL     1       6.957  -1.880  26.859  0.00  0.00    +0.000 A 
ATOM      2  C   UNL     1       6.524  -0.520  27.298  0.00  0.00    +0.000 A 
ATOM      3  C   UNL     1       7.036   0.782  26.898  0.00  0.00    +0.000 A 
ATOM      4  C   UNL     1       7.874   0.598  25.563  0.00  0.00    +0.000 A 
ATOM      5  C   UNL     1       8.723  -0.598  25.325  0.00  0.00    +0.000 A 
ATOM      6  C   UNL     1       8.170  -1.882  26.046  0.00  0.00    +0.000 A 
ENDROOT
BRANCH   1   7
ATOM      7  S   UNL     1       5.484  -2.465  26.021  0.00  0.00    +0.000 S 
ATOM      8  O   UNL     1       4.623  -3.022  26.990  0.00  0.00    +0.000 OA
ATOM      9  O   UNL     1       4.961  -1.441  25.167  0.00  0.00    +0.000 OA
BRANCH   7  13
ATOM     10  C   UNL     1       3.178  -4.862  23.691  0.00  0.00    +0.000 A 
ATOM     11  N   UNL     1       3.989  -3.949  24.519  0.00  0.00    +0.000 NA
ATOM     12  C   UNL     1       5.154  -3.873  24.023  0.00  0.00    +0.000 A 
ATOM     13  N   UNL     1       6.007  -3.677  25.021  0.00  0.00    +0.000 N 
ATOM     14  H   UNL     1       6.086  -4.483  25.558  0.00  0.00    +0.000 HD
ATOM     15  C   UNL     1       5.927  -4.724  23.169  0.00  0.00    +0.000 A 
ATOM     16  C   UNL     1       5.385  -5.835  22.461  0.00  0.00    +0.000 A 
ATOM     17  C   UNL     1       3.979  -5.857  23.055  0.00  0.00    +0.000 A 
ENDBRANCH   7  13
ENDBRANCH   1   7
BRANCH   4  18
ATOM     18  C   UNL     1       7.026   1.305  24.457  0.00  0.00    +0.000 C 
BRANCH  18  19
ATOM     19  C   UNL     1       7.502   2.737  24.372  0.00  0.00    +0.000 C 
ATOM     20  O   UNL     1       7.399   3.455  25.372  0.00  0.00    +0.000 OA
ATOM     21  N   UNL     1       8.387   3.054  23.440  0.00  0.00    +0.000 N 
ATOM     22  C   UNL     1       9.713   3.569  23.780  0.00  0.00    +0.000 C 
ATOM     23  C   UNL     1      10.738   2.465  23.610  0.00  0.00    +0.000 C 
ATOM     24  O   UNL     1      10.209   1.358  23.042  0.00  0.00    +0.000 OA
ATOM     25  C   UNL     1       9.454   1.600  21.892  0.00  0.00    +0.000 C 
ATOM     26  C   UNL     1       8.307   2.411  22.086  0.00  0.00    +0.000 C 
BRANCH  25  27
ATOM     27  C   UNL     1       9.327   0.275  21.162  0.00  0.00    +0.000 A 
ATOM     28  C   UNL     1       8.052   0.287  20.387  0.00  0.00    +0.000 A 
ATOM     29  C   UNL     1       6.917  -0.623  20.582  0.00  0.00    +0.000 A 
ATOM     30  C   UNL     1       7.175  -1.687  21.626  0.00  0.00    +0.000 A 
ATOM     31  F   UNL     1       6.200  -1.357  22.623  0.00  0.00    +0.000 F 
ATOM     32  C   UNL     1       8.475  -1.995  22.232  0.00  0.00    +0.000 A 
ATOM     33  C   UNL     1       9.616  -0.994  21.836  0.00  0.00    +0.000 A 
ENDBRANCH  25  27
ENDBRANCH  18  19
ENDBRANCH   4  18
TORSDOF 5
ENDMDL
MODEL 9
REMARK VINA RESULT:      -8.1      2.758      7.673
REMARK  Name = 
REMARK  5 active torsions:
REMARK  status: ('A' for Active; 'I' for Inactive)
REMARK    1  A    between atoms: N_5  and  S_7
REMARK    2  A    between atoms: S_7  and  C_10
REMARK    3  A    between atoms: C_15  and  C_16
REMARK    4  A    between atoms: C_16  and  C_19
REMARK    5  A    between atoms: C_29  and  C_31
REMARK                            x       y       z     vdW  Elec       q    Type
REMARK                         _______ _______ _______ _____ _____    ______ ____
ROOT
ATOM      1  C   UNL     1       8.828  -4.143  26.526  0.00  0.00    +0.000 A 
ATOM      2  C   UNL     1       8.601  -2.694  26.807  0.00  0.00    +0.000 A 
ATOM      3  C   UNL     1       8.800  -1.546  25.935  0.00  0.00    +0.000 A 
ATOM      4  C   UNL     1       8.897  -2.068  24.440  0.00  0.00    +0.000 A 
ATOM      5  C   UNL     1       9.577  -3.343  24.094  0.00  0.00    +0.000 A 
ATOM      6  C   UNL     1       9.497  -4.402  25.254  0.00  0.00    +0.000 A 
ENDROOT
BRANCH   1   7
ATOM      7  S   UNL     1       7.161  -4.791  26.649  0.00  0.00    +0.000 S 
ATOM      8  O   UNL     1       7.216  -6.002  27.370  0.00  0.00    +0.000 OA
ATOM      9  O   UNL     1       6.268  -3.772  27.113  0.00  0.00    +0.000 OA
BRANCH   7  13
ATOM     10  C   UNL     1       3.594  -6.289  25.416  0.00  0.00    +0.000 A 
ATOM     11  N   UNL     1       4.863  -5.710  25.894  0.00  0.00    +0.000 NA
ATOM     12  C   UNL     1       5.393  -5.049  24.949  0.00  0.00    +0.000 A 
ATOM     13  N   UNL     1       6.711  -5.125  25.090  0.00  0.00    +0.000 N 
ATOM     14  H   UNL     1       7.019  -6.023  24.885  0.00  0.00    +0.000 HD
ATOM     15  C   UNL     1       5.270  -5.086  23.522  0.00  0.00    +0.000 A 
ATOM     16  C   UNL     1       4.251  -5.805  22.835  0.00  0.00    +0.000 A 
ATOM     17  C   UNL     1       3.619  -6.543  24.012  0.00  0.00    +0.000 A 
ENDBRANCH   7  13
ENDBRANCH   1   7
BRANCH   4  18
ATOM     18  C   UNL     1       7.591  -1.557  23.751  0.00  0.00    +0.000 C 
BRANCH  18  19
ATOM     19  C   UNL     1       7.740  -1.798  22.267  0.00  0.00    +0.000 C 
ATOM     20  O   UNL     1       6.916  -2.521  21.699  0.00  0.00    +0.000 OA
ATOM     21  N   UNL     1       8.431  -0.923  21.551  0.00  0.00    +0.000 N 
ATOM     22  C   UNL     1       7.817  -0.163  20.464  0.00  0.00    +0.000 C 
ATOM     23  C   UNL     1       7.546   1.252  20.932  0.00  0.00    +0.000 C 
ATOM     24  O   UNL     1       8.078   1.499  22.151  0.00  0.00    +0.000 OA
ATOM     25  C   UNL     1       9.412   1.111  22.291  0.00  0.00    +0.000 C 
ATOM     26  C   UNL     1       9.653  -0.278  22.139  0.00  0.00    +0.000 C 
BRANCH  25  27
ATOM     27  C   UNL     1       9.957   1.842  23.505  0.00  0.00    +0.000 A 
ATOM     28  C   UNL     1       8.901   1.855  24.559  0.00  0.00    +0.000 A 
ATOM     29  C   UNL     1       8.262   3.049  25.123  0.00  0.00    +0.000 A 
ATOM     30  C   UNL     1       8.838   4.344  24.592  0.00  0.00    +0.000 A 
ATOM     31  F   UNL     1       7.711   4.902  23.905  0.00  0.00    +0.000 F 
ATOM     32  C   UNL     1      10.065   4.474  23.798  0.00  0.00    +0.000 A 
ATOM     33  C   UNL     1      10.692   3.102  23.366  0.00  0.00    +0.000 A 
ENDBRANCH  25  27
ENDBRANCH  18  19
ENDBRANCH   4  18
TORSDOF 5
ENDMDL
