MODEL 1
REMARK VINA RESULT:      -9.0      0.000      0.000
REMARK  Name = 
REMARK  6 active torsions:
REMARK  status: ('A' for Active; 'I' for Inactive)
REMARK    1  A    between atoms: C_7  and  C_8
REMARK    2  A    between atoms: N_23  and  C_24
REMARK    3  A    between atoms: C_29  and  C_30
REMARK    4  A    between atoms: C_30  and  S_33
REMARK    5  A    between atoms: S_33  and  N_36
REMARK    6  A    between atoms: C_39  and  C_40
REMARK                            x       y       z     vdW  Elec       q    Type
REMARK                         _______ _______ _______ _____ _____    ______ ____
ROOT
ATOM      1  C   UNL     1       7.641   0.672  21.896  0.00  0.00    +0.000 C 
ATOM      2  C   UNL     1       9.161   0.145  21.695  0.00  0.00    +0.000 A 
ATOM      3  C   UNL     1       9.992   0.952  22.324  0.00  0.00    +0.000 A 
ATOM      4  C   UNL     1      10.413   1.244  23.791  0.00  0.00    +0.000 A 
ATOM      5  C   UNL     1      10.250  -0.134  24.368  0.00  0.00    +0.000 A 
ATOM      6  C   UNL     1       9.858  -1.403  24.002  0.00  0.00    +0.000 A 
ATOM      7  C   UNL     1       9.464  -1.203  22.467  0.00  0.00    +0.000 A 
ATOM      8  C   UNL     1       8.466  -2.217  22.070  0.00  0.00    +0.000 C 
ATOM      9  N   UNL     1       7.191  -1.812  22.235  0.00  0.00    +0.000 N 
ATOM     10  C   UNL     1       7.011  -0.530  22.481  0.00  0.00    +0.000 C 
ENDROOT
BRANCH   9  11
ATOM     11  C   UNL     1       6.228  -2.496  22.628  0.00  0.00    +0.000 A 
ATOM     12  C   UNL     1       5.936  -1.802  23.972  0.00  0.00    +0.000 A 
ATOM     13  C   UNL     1       5.561  -2.554  25.113  0.00  0.00    +0.000 A 
ATOM     14  C   UNL     1       5.540  -4.124  24.864  0.00  0.00    +0.000 A 
ATOM     15  C   UNL     1       5.387  -4.641  23.474  0.00  0.00    +0.000 A 
ATOM     16  C   UNL     1       4.127  -5.559  23.233  0.00  0.00    +0.000 C 
ATOM     17  C   UNL     1       5.498  -3.611  22.326  0.00  0.00    +0.000 A 
BRANCH  14  18
ATOM     18  C   UNL     1       6.926  -4.548  25.634  0.00  0.00    +0.000 C 
BRANCH  18  19
ATOM     19  S   UNL     1       6.373  -5.481  27.054  0.00  0.00    +0.000 S 
ATOM     20  O   UNL     1       5.695  -4.623  27.947  0.00  0.00    +0.000 OA
ATOM     21  O   UNL     1       5.627  -6.586  26.501  0.00  0.00    +0.000 OA
BRANCH  19  22
ATOM     22  N   UNL     1       7.732  -6.111  27.769  0.00  0.00    +0.000 NA
ATOM     23  H   UNL     1       7.867  -5.637  28.663  0.00  0.00    +0.000 HD
ATOM     24  H   UNL     1       8.538  -5.727  27.237  0.00  0.00    +0.000 HD
ENDBRANCH  19  22
ENDBRANCH  18  19
ENDBRANCH  14  18
ENDBRANCH   9  11
BRANCH   1  28
ATOM     25  C   UNL     1       5.479   0.467  18.225  0.00  0.00    +0.000 A 
ATOM     26  C   UNL     1       5.225   1.526  19.273  0.00  0.00    +0.000 A 
ATOM     27  C   UNL     1       6.053   1.865  20.438  0.00  0.00    +0.000 A 
ATOM     28  C   UNL     1       7.353   1.050  20.494  0.00  0.00    +0.000 A 
ATOM     29  C   UNL     1       7.792   0.107  19.410  0.00  0.00    +0.000 A 
ATOM     30  C   UNL     1       6.628  -0.369  18.496  0.00  0.00    +0.000 A 
ENDBRANCH   1  28
TORSDOF 5
ENDMDL
MODEL 2
REMARK VINA RESULT:      -8.0      2.094      2.830
REMARK  Name = 
REMARK  6 active torsions:
REMARK  status: ('A' for Active; 'I' for Inactive)
REMARK    1  A    between atoms: C_7  and  C_8
REMARK    2  A    between atoms: N_23  and  C_24
REMARK    3  A    between atoms: C_29  and  C_30
REMARK    4  A    between atoms: C_30  and  S_33
REMARK    5  A    between atoms: S_33  and  N_36
REMARK    6  A    between atoms: C_39  and  C_40
REMARK                            x       y       z     vdW  Elec       q    Type
REMARK                         _______ _______ _______ _____ _____    ______ ____
ROOT
ATOM      1  C   UNL     1       8.034  -0.151  22.293  0.00  0.00    +0.000 C 
ATOM      2  C   UNL     1       9.631   0.066  22.113  0.00  0.00    +0.000 A 
ATOM      3  C   UNL     1       9.894   1.357  22.066  0.00  0.00    +0.000 A 
ATOM      4  C   UNL     1       9.965   2.548  23.061  0.00  0.00    +0.000 A 
ATOM      5  C   UNL     1      10.430   1.811  24.286  0.00  0.00    +0.000 A 
ATOM      6  C   UNL     1      10.744   0.539  24.710  0.00  0.00    +0.000 A 
ATOM      7  C   UNL     1      10.465  -0.329  23.398  0.00  0.00    +0.000 A 
ATOM      8  C   UNL     1      10.133  -1.717  23.778  0.00  0.00    +0.000 C 
ATOM      9  N   UNL     1       8.812  -1.928  23.945  0.00  0.00    +0.000 N 
ATOM     10  C   UNL     1       8.008  -0.973  23.522  0.00  0.00    +0.000 C 
ENDROOT
BRANCH   9  11
ATOM     11  C   UNL     1       8.267  -2.641  24.807  0.00  0.00    +0.000 A 
ATOM     12  C   UNL     1       8.577  -4.038  24.237  0.00  0.00    +0.000 A 
ATOM     13  C   UNL     1       7.620  -5.081  24.305  0.00  0.00    +0.000 A 
ATOM     14  C   UNL     1       6.238  -4.637  24.954  0.00  0.00    +0.000 A 
ATOM     15  C   UNL     1       6.203  -3.452  25.858  0.00  0.00    +0.000 A 
ATOM     16  C   UNL     1       5.692  -3.740  27.322  0.00  0.00    +0.000 C 
ATOM     17  C   UNL     1       7.477  -2.579  25.921  0.00  0.00    +0.000 A 
BRANCH  14  18
ATOM     18  C   UNL     1       5.316  -4.530  23.600  0.00  0.00    +0.000 C 
BRANCH  18  19
ATOM     19  S   UNL     1       3.961  -5.654  23.901  0.00  0.00    +0.000 S 
ATOM     20  O   UNL     1       3.413  -5.402  25.178  0.00  0.00    +0.000 OA
ATOM     21  O   UNL     1       3.088  -5.493  22.762  0.00  0.00    +0.000 OA
BRANCH  19  22
ATOM     22  N   UNL     1       4.588  -7.189  23.828  0.00  0.00    +0.000 NA
ATOM     23  H   UNL     1       5.349  -7.187  23.148  0.00  0.00    +0.000 HD
ATOM     24  H   UNL     1       3.888  -7.759  23.312  0.00  0.00    +0.000 HD
ENDBRANCH  19  22
ENDBRANCH  18  19
ENDBRANCH  14  18
ENDBRANCH   9  11
BRANCH   1  28
ATOM     25  C   UNL     1       5.882  -0.602  18.638  0.00  0.00    +0.000 A 
ATOM     26  C   UNL     1       7.172   0.180  18.745  0.00  0.00    +0.000 A 
ATOM     27  C   UNL     1       8.132   0.198  19.856  0.00  0.00    +0.000 A 
ATOM     28  C   UNL     1       7.748  -0.774  20.981  0.00  0.00    +0.000 A 
ATOM     29  C   UNL     1       6.593  -1.731  20.898  0.00  0.00    +0.000 A 
ATOM     30  C   UNL     1       5.528  -1.324  19.841  0.00  0.00    +0.000 A 
ENDBRANCH   1  28
TORSDOF 5
ENDMDL
MODEL 3
REMARK VINA RESULT:      -8.0      1.856      2.313
REMARK  Name = 
REMARK  6 active torsions:
REMARK  status: ('A' for Active; 'I' for Inactive)
REMARK    1  A    between atoms: C_7  and  C_8
REMARK    2  A    between atoms: N_23  and  C_24
REMARK    3  A    between atoms: C_29  and  C_30
REMARK    4  A    between atoms: C_30  and  S_33
REMARK    5  A    between atoms: S_33  and  N_36
REMARK    6  A    between atoms: C_39  and  C_40
REMARK                            x       y       z     vdW  Elec       q    Type
REMARK                         _______ _______ _______ _____ _____    ______ ____
ROOT
ATOM      1  C   UNL     1       7.855   0.820  21.936  0.00  0.00    +0.000 C 
ATOM      2  C   UNL     1       9.452   1.043  21.764  0.00  0.00    +0.000 A 
ATOM      3  C   UNL     1       9.814   2.133  22.410  0.00  0.00    +0.000 A 
ATOM      4  C   UNL     1      10.033   2.570  23.886  0.00  0.00    +0.000 A 
ATOM      5  C   UNL     1      10.504   1.261  24.456  0.00  0.00    +0.000 A 
ATOM      6  C   UNL     1      10.739  -0.043  24.081  0.00  0.00    +0.000 A 
ATOM      7  C   UNL     1      10.322  -0.027  22.539  0.00  0.00    +0.000 A 
ATOM      8  C   UNL     1       9.901  -1.380  22.121  0.00  0.00    +0.000 C 
ATOM      9  N   UNL     1       8.578  -1.601  22.261  0.00  0.00    +0.000 N 
ATOM     10  C   UNL     1       7.831  -0.543  22.506  0.00  0.00    +0.000 C 
ENDROOT
BRANCH   9  11
ATOM     11  C   UNL     1       8.026  -2.652  22.634  0.00  0.00    +0.000 A 
ATOM     12  C   UNL     1       6.678  -2.523  21.898  0.00  0.00    +0.000 A 
ATOM     13  C   UNL     1       5.470  -2.927  22.518  0.00  0.00    +0.000 A 
ATOM     14  C   UNL     1       5.659  -3.446  24.008  0.00  0.00    +0.000 A 
ATOM     15  C   UNL     1       6.993  -3.950  24.442  0.00  0.00    +0.000 A 
ATOM     16  C   UNL     1       7.016  -5.446  24.944  0.00  0.00    +0.000 C 
ATOM     17  C   UNL     1       8.180  -3.714  23.480  0.00  0.00    +0.000 A 
BRANCH  14  18
ATOM     18  C   UNL     1       5.085  -2.147  24.831  0.00  0.00    +0.000 C 
BRANCH  18  19
ATOM     19  S   UNL     1       4.092  -2.856  26.136  0.00  0.00    +0.000 S 
ATOM     20  O   UNL     1       3.661  -4.145  25.754  0.00  0.00    +0.000 OA
ATOM     21  O   UNL     1       4.913  -2.756  27.319  0.00  0.00    +0.000 OA
BRANCH  19  22
ATOM     22  N   UNL     1       2.793  -1.846  26.350  0.00  0.00    +0.000 NA
ATOM     23  H   UNL     1       3.146  -0.892  26.436  0.00  0.00    +0.000 HD
ATOM     24  H   UNL     1       2.466  -2.005  27.324  0.00  0.00    +0.000 HD
ENDBRANCH  19  22
ENDBRANCH  18  19
ENDBRANCH  14  18
ENDBRANCH   9  11
BRANCH   1  28
ATOM     25  C   UNL     1       5.404   0.207  18.499  0.00  0.00    +0.000 A 
ATOM     26  C   UNL     1       5.225   1.376  19.442  0.00  0.00    +0.000 A 
ATOM     27  C   UNL     1       6.141   1.843  20.491  0.00  0.00    +0.000 A 
ATOM     28  C   UNL     1       7.450   1.040  20.529  0.00  0.00    +0.000 A 
ATOM     29  C   UNL     1       7.810  -0.016  19.523  0.00  0.00    +0.000 A 
ATOM     30  C   UNL     1       6.580  -0.592  18.766  0.00  0.00    +0.000 A 
ENDBRANCH   1  28
TORSDOF 5
ENDMDL
MODEL 4
REMARK VINA RESULT:      -7.7      2.707      4.106
REMARK  Name = 
REMARK  6 active torsions:
REMARK  status: ('A' for Active; 'I' for Inactive)
REMARK    1  A    between atoms: C_7  and  C_8
REMARK    2  A    between atoms: N_23  and  C_24
REMARK    3  A    between atoms: C_29  and  C_30
REMARK    4  A    between atoms: C_30  and  S_33
REMARK    5  A    between atoms: S_33  and  N_36
REMARK    6  A    between atoms: C_39  and  C_40
REMARK                            x       y       z     vdW  Elec       q    Type
REMARK                         _______ _______ _______ _____ _____    ______ ____
ROOT
ATOM      1  C   UNL     1       6.815   1.953  22.312  0.00  0.00    +0.000 C 
ATOM      2  C   UNL     1       7.666   3.332  22.372  0.00  0.00    +0.000 A 
ATOM      3  C   UNL     1       6.853   4.337  22.625  0.00  0.00    +0.000 A 
ATOM      4  C   UNL     1       6.078   4.903  23.848  0.00  0.00    +0.000 A 
ATOM      5  C   UNL     1       7.040   4.524  24.939  0.00  0.00    +0.000 A 
ATOM      6  C   UNL     1       8.244   3.881  25.123  0.00  0.00    +0.000 A 
ATOM      7  C   UNL     1       8.613   3.429  23.636  0.00  0.00    +0.000 A 
ATOM      8  C   UNL     1       9.483   2.236  23.676  0.00  0.00    +0.000 C 
ATOM      9  N   UNL     1       8.804   1.072  23.638  0.00  0.00    +0.000 N 
ATOM     10  C   UNL     1       7.525   1.150  23.331  0.00  0.00    +0.000 C 
ENDROOT
BRANCH   9  11
ATOM     11  C   UNL     1       9.065   0.028  24.263  0.00  0.00    +0.000 A 
ATOM     12  C   UNL     1      10.078  -0.617  23.297  0.00  0.00    +0.000 A 
ATOM     13  C   UNL     1      10.082  -2.016  23.075  0.00  0.00    +0.000 A 
ATOM     14  C   UNL     1       8.934  -2.790  23.856  0.00  0.00    +0.000 A 
ATOM     15  C   UNL     1       8.333  -2.170  25.071  0.00  0.00    +0.000 A 
ATOM     16  C   UNL     1       8.473  -3.015  26.396  0.00  0.00    +0.000 C 
ATOM     17  C   UNL     1       8.698  -0.696  25.362  0.00  0.00    +0.000 A 
BRANCH  14  18
ATOM     18  C   UNL     1       7.899  -3.080  22.616  0.00  0.00    +0.000 C 
BRANCH  18  19
ATOM     19  S   UNL     1       7.397  -4.778  22.851  0.00  0.00    +0.000 S 
ATOM     20  O   UNL     1       7.131  -5.370  21.596  0.00  0.00    +0.000 OA
ATOM     21  O   UNL     1       8.444  -5.365  23.652  0.00  0.00    +0.000 OA
BRANCH  19  22
ATOM     22  N   UNL     1       6.023  -4.745  23.782  0.00  0.00    +0.000 NA
ATOM     23  H   UNL     1       5.256  -4.408  23.200  0.00  0.00    +0.000 HD
ATOM     24  H   UNL     1       6.133  -3.934  24.423  0.00  0.00    +0.000 HD
ENDBRANCH  19  22
ENDBRANCH  18  19
ENDBRANCH  14  18
ENDBRANCH   9  11
BRANCH   1  28
ATOM     25  C   UNL     1       6.286  -0.386  18.784  0.00  0.00    +0.000 A 
ATOM     26  C   UNL     1       5.426   0.813  19.116  0.00  0.00    +0.000 A 
ATOM     27  C   UNL     1       5.659   1.840  20.139  0.00  0.00    +0.000 A 
ATOM     28  C   UNL     1       6.993   1.647  20.875  0.00  0.00    +0.000 A 
ATOM     29  C   UNL     1       8.007   0.603  20.501  0.00  0.00    +0.000 A 
ATOM     30  C   UNL     1       7.409  -0.572  19.677  0.00  0.00    +0.000 A 
ENDBRANCH   1  28
TORSDOF 5
ENDMDL
MODEL 5
REMARK VINA RESULT:      -7.4      3.594      7.075
REMARK  Name = 
REMARK  6 active torsions:
REMARK  status: ('A' for Active; 'I' for Inactive)
REMARK    1  A    between atoms: C_7  and  C_8
REMARK    2  A    between atoms: N_23  and  C_24
REMARK    3  A    between atoms: C_29  and  C_30
REMARK    4  A    between atoms: C_30  and  S_33
REMARK    5  A    between atoms: S_33  and  N_36
REMARK    6  A    between atoms: C_39  and  C_40
REMARK                            x       y       z     vdW  Elec       q    Type
REMARK                         _______ _______ _______ _____ _____    ______ ____
ROOT
ATOM      1  C   UNL     1       5.549  -3.079  24.961  0.00  0.00    +0.000 C 
ATOM      2  C   UNL     1       5.962  -4.647  25.004  0.00  0.00    +0.000 A 
ATOM      3  C   UNL     1       4.886  -5.377  25.218  0.00  0.00    +0.000 A 
ATOM      4  C   UNL     1       3.643  -5.850  24.413  0.00  0.00    +0.000 A 
ATOM      5  C   UNL     1       4.267  -5.954  23.049  0.00  0.00    +0.000 A 
ATOM      6  C   UNL     1       5.468  -5.749  22.407  0.00  0.00    +0.000 A 
ATOM      7  C   UNL     1       6.396  -5.219  23.594  0.00  0.00    +0.000 A 
ATOM      8  C   UNL     1       7.476  -4.374  23.046  0.00  0.00    +0.000 C 
ATOM      9  N   UNL     1       7.160  -3.065  22.987  0.00  0.00    +0.000 N 
ATOM     10  C   UNL     1       6.070  -2.696  23.632  0.00  0.00    +0.000 C 
ENDROOT
BRANCH   9  11
ATOM     11  C   UNL     1       7.459  -2.257  22.089  0.00  0.00    +0.000 A 
ATOM     12  C   UNL     1       8.971  -2.115  22.348  0.00  0.00    +0.000 A 
ATOM     13  C   UNL     1       9.616  -0.860  22.217  0.00  0.00    +0.000 A 
ATOM     14  C   UNL     1       8.629   0.330  21.849  0.00  0.00    +0.000 A 
ATOM     15  C   UNL     1       7.327   0.022  21.190  0.00  0.00    +0.000 A 
ATOM     16  C   UNL     1       7.114   0.693  19.778  0.00  0.00    +0.000 C 
ATOM     17  C   UNL     1       6.910  -1.465  21.120  0.00  0.00    +0.000 A 
BRANCH  14  18
ATOM     18  C   UNL     1       8.531   1.073  23.310  0.00  0.00    +0.000 C 
BRANCH  18  19
ATOM     19  S   UNL     1       9.816   2.313  23.259  0.00  0.00    +0.000 S 
ATOM     20  O   UNL     1       9.286   3.559  23.660  0.00  0.00    +0.000 OA
ATOM     21  O   UNL     1      10.890   1.764  24.053  0.00  0.00    +0.000 OA
BRANCH  19  22
ATOM     22  N   UNL     1      10.349   2.384  21.689  0.00  0.00    +0.000 NA
ATOM     23  H   UNL     1      11.168   2.993  21.661  0.00  0.00    +0.000 HD
ATOM     24  H   UNL     1       9.664   2.980  21.183  0.00  0.00    +0.000 HD
ENDBRANCH  19  22
ENDBRANCH  18  19
ENDBRANCH  14  18
ENDBRANCH   9  11
BRANCH   1  28
ATOM     25  C   UNL     1       8.123  -0.524  27.206  0.00  0.00    +0.000 A 
ATOM     26  C   UNL     1       6.618  -0.380  27.201  0.00  0.00    +0.000 A 
ATOM     27  C   UNL     1       5.618  -1.329  26.694  0.00  0.00    +0.000 A 
ATOM     28  C   UNL     1       6.249  -2.634  26.187  0.00  0.00    +0.000 A 
ATOM     29  C   UNL     1       7.711  -2.958  26.315  0.00  0.00    +0.000 A 
ATOM     30  C   UNL     1       8.606  -1.704  26.520  0.00  0.00    +0.000 A 
ENDBRANCH   1  28
TORSDOF 5
ENDMDL
MODEL 6
REMARK VINA RESULT:      -7.3      1.740      2.192
REMARK  Name = 
REMARK  6 active torsions:
REMARK  status: ('A' for Active; 'I' for Inactive)
REMARK    1  A    between atoms: C_7  and  C_8
REMARK    2  A    between atoms: N_23  and  C_24
REMARK    3  A    between atoms: C_29  and  C_30
REMARK    4  A    between atoms: C_30  and  S_33
REMARK    5  A    between atoms: S_33  and  N_36
REMARK    6  A    between atoms: C_39  and  C_40
REMARK                            x       y       z     vdW  Elec       q    Type
REMARK                         _______ _______ _______ _____ _____    ______ ____
ROOT
ATOM      1  C   UNL     1       7.189  -0.922  22.743  0.00  0.00    +0.000 C 
ATOM      2  C   UNL     1       8.745  -1.076  23.173  0.00  0.00    +0.000 A 
ATOM      3  C   UNL     1       9.196   0.084  23.607  0.00  0.00    +0.000 A 
ATOM      4  C   UNL     1       9.055   0.962  24.882  0.00  0.00    +0.000 A 
ATOM      5  C   UNL     1       8.897  -0.126  25.907  0.00  0.00    +0.000 A 
ATOM      6  C   UNL     1       8.829  -1.498  26.005  0.00  0.00    +0.000 A 
ATOM      7  C   UNL     1       8.951  -1.948  24.477  0.00  0.00    +0.000 A 
ATOM      8  C   UNL     1       8.295  -3.258  24.287  0.00  0.00    +0.000 C 
ATOM      9  N   UNL     1       6.996  -3.164  23.939  0.00  0.00    +0.000 N 
ATOM     10  C   UNL     1       6.569  -1.968  23.585  0.00  0.00    +0.000 C 
ENDROOT
BRANCH   9  11
ATOM     11  C   UNL     1       6.061  -3.894  24.316  0.00  0.00    +0.000 A 
ATOM     12  C   UNL     1       5.519  -3.053  25.487  0.00  0.00    +0.000 A 
ATOM     13  C   UNL     1       5.066  -3.672  26.679  0.00  0.00    +0.000 A 
ATOM     14  C   UNL     1       5.235  -5.252  26.680  0.00  0.00    +0.000 A 
ATOM     15  C   UNL     1       5.327  -5.978  25.381  0.00  0.00    +0.000 A 
ATOM     16  C   UNL     1       4.209  -7.064  25.138  0.00  0.00    +0.000 C 
ATOM     17  C   UNL     1       5.493  -5.119  24.107  0.00  0.00    +0.000 A 
BRANCH  14  18
ATOM     18  C   UNL     1       6.536  -5.393  27.671  0.00  0.00    +0.000 C 
BRANCH  18  19
ATOM     19  S   UNL     1       5.888  -6.174  29.141  0.00  0.00    +0.000 S 
ATOM     20  O   UNL     1       5.975  -5.278  30.229  0.00  0.00    +0.000 OA
ATOM     21  O   UNL     1       4.572  -6.633  28.765  0.00  0.00    +0.000 OA
BRANCH  19  22
ATOM     22  N   UNL     1       6.820  -7.520  29.417  0.00  0.00    +0.000 NA
ATOM     23  H   UNL     1       6.755  -7.750  30.410  0.00  0.00    +0.000 HD
ATOM     24  H   UNL     1       7.807  -7.196  29.372  0.00  0.00    +0.000 HD
ENDBRANCH  19  22
ENDBRANCH  18  19
ENDBRANCH  14  18
ENDBRANCH   9  11
BRANCH   1  28
ATOM     25  C   UNL     1       6.327  -0.174  18.633  0.00  0.00    +0.000 A 
ATOM     26  C   UNL     1       7.513   0.430  19.351  0.00  0.00    +0.000 A 
ATOM     27  C   UNL     1       8.064   0.061  20.661  0.00  0.00    +0.000 A 
ATOM     28  C   UNL     1       7.340  -1.140  21.287  0.00  0.00    +0.000 A 
ATOM     29  C   UNL     1       6.275  -1.930  20.582  0.00  0.00    +0.000 A 
ATOM     30  C   UNL     1       5.606  -1.158  19.410  0.00  0.00    +0.000 A 
ENDBRANCH   1  28
TORSDOF 5
ENDMDL
MODEL 7
REMARK VINA RESULT:      -7.2      3.584      6.980
REMARK  Name = 
REMARK  6 active torsions:
REMARK  status: ('A' for Active; 'I' for Inactive)
REMARK    1  A    between atoms: C_7  and  C_8
REMARK    2  A    between atoms: N_23  and  C_24
REMARK    3  A    between atoms: C_29  and  C_30
REMARK    4  A    between atoms: C_30  and  S_33
REMARK    5  A    between atoms: S_33  and  N_36
REMARK    6  A    between atoms: C_39  and  C_40
REMARK                            x       y       z     vdW  Elec       q    Type
REMARK                         _______ _______ _______ _____ _____    ______ ____
ROOT
ATOM      1  C   UNL     1       6.427  -5.181  23.901  0.00  0.00    +0.000 C 
ATOM      2  C   UNL     1       6.009  -4.560  25.339  0.00  0.00    +0.000 A 
ATOM      3  C   UNL     1       6.580  -5.259  26.300  0.00  0.00    +0.000 A 
ATOM      4  C   UNL     1       8.000  -5.414  26.914  0.00  0.00    +0.000 A 
ATOM      5  C   UNL     1       8.504  -4.013  26.709  0.00  0.00    +0.000 A 
ATOM      6  C   UNL     1       8.111  -2.805  26.176  0.00  0.00    +0.000 A 
ATOM      7  C   UNL     1       6.652  -3.143  25.621  0.00  0.00    +0.000 A 
ATOM      8  C   UNL     1       6.318  -2.234  24.506  0.00  0.00    +0.000 C 
ATOM      9  N   UNL     1       6.663  -2.717  23.295  0.00  0.00    +0.000 N 
ATOM     10  C   UNL     1       7.009  -3.989  23.249  0.00  0.00    +0.000 C 
ENDROOT
BRANCH   9  11
ATOM     11  C   UNL     1       7.128  -2.078  22.334  0.00  0.00    +0.000 A 
ATOM     12  C   UNL     1       8.617  -2.041  22.731  0.00  0.00    +0.000 A 
ATOM     13  C   UNL     1       9.401  -0.884  22.502  0.00  0.00    +0.000 A 
ATOM     14  C   UNL     1       8.584   0.328  21.877  0.00  0.00    +0.000 A 
ATOM     15  C   UNL     1       7.324   0.051  21.130  0.00  0.00    +0.000 A 
ATOM     16  C   UNL     1       7.315   0.529  19.627  0.00  0.00    +0.000 C 
ATOM     17  C   UNL     1       6.759  -1.385  21.215  0.00  0.00    +0.000 A 
BRANCH  14  18
ATOM     18  C   UNL     1       8.432   1.279  23.206  0.00  0.00    +0.000 C 
BRANCH  18  19
ATOM     19  S   UNL     1       9.819   2.401  23.106  0.00  0.00    +0.000 S 
ATOM     20  O   UNL     1       9.387   3.713  23.400  0.00  0.00    +0.000 OA
ATOM     21  O   UNL     1      10.822   1.825  23.968  0.00  0.00    +0.000 OA
BRANCH  19  22
ATOM     22  N   UNL     1      10.393   2.311  21.551  0.00  0.00    +0.000 NA
ATOM     23  H   UNL     1      10.123   1.405  21.167  0.00  0.00    +0.000 HD
ATOM     24  H   UNL     1      11.420   2.172  21.635  0.00  0.00    +0.000 HD
ENDBRANCH  19  22
ENDBRANCH  18  19
ENDBRANCH  14  18
ENDBRANCH   9  11
BRANCH   1  28
ATOM     25  C   UNL     1       2.288  -6.043  24.468  0.00  0.00    +0.000 A 
ATOM     26  C   UNL     1       2.783  -4.787  23.787  0.00  0.00    +0.000 A 
ATOM     27  C   UNL     1       4.138  -4.492  23.303  0.00  0.00    +0.000 A 
ATOM     28  C   UNL     1       5.097  -5.678  23.480  0.00  0.00    +0.000 A 
ATOM     29  C   UNL     1       4.668  -7.031  23.973  0.00  0.00    +0.000 A 
ATOM     30  C   UNL     1       3.328  -7.005  24.761  0.00  0.00    +0.000 A 
ENDBRANCH   1  28
TORSDOF 5
ENDMDL
MODEL 8
REMARK VINA RESULT:      -7.2      2.112      3.996
REMARK  Name = 
REMARK  6 active torsions:
REMARK  status: ('A' for Active; 'I' for Inactive)
REMARK    1  A    between atoms: C_7  and  C_8
REMARK    2  A    between atoms: N_23  and  C_24
REMARK    3  A    between atoms: C_29  and  C_30
REMARK    4  A    between atoms: C_30  and  S_33
REMARK    5  A    between atoms: S_33  and  N_36
REMARK    6  A    between atoms: C_39  and  C_40
REMARK                            x       y       z     vdW  Elec       q    Type
REMARK                         _______ _______ _______ _____ _____    ______ ____
ROOT
ATOM      1  C   UNL     1       8.280   0.493  25.181  0.00  0.00    +0.000 C 
ATOM      2  C   UNL     1       8.080   1.737  24.159  0.00  0.00    +0.000 A 
ATOM      3  C   UNL     1       9.194   2.439  24.101  0.00  0.00    +0.000 A 
ATOM      4  C   UNL     1      10.604   2.297  23.463  0.00  0.00    +0.000 A 
ATOM      5  C   UNL     1      10.234   1.518  22.232  0.00  0.00    +0.000 A 
ATOM      6  C   UNL     1       9.138   0.955  21.616  0.00  0.00    +0.000 A 
ATOM      7  C   UNL     1       7.965   1.292  22.646  0.00  0.00    +0.000 A 
ATOM      8  C   UNL     1       6.886   0.291  22.520  0.00  0.00    +0.000 C 
ATOM      9  N   UNL     1       7.029  -0.762  23.350  0.00  0.00    +0.000 N 
ATOM     10  C   UNL     1       7.938  -0.642  24.298  0.00  0.00    +0.000 C 
ENDROOT
BRANCH   9  11
ATOM     11  C   UNL     1       6.777  -1.955  23.103  0.00  0.00    +0.000 A 
ATOM     12  C   UNL     1       5.530  -2.155  23.986  0.00  0.00    +0.000 A 
ATOM     13  C   UNL     1       5.324  -3.367  24.691  0.00  0.00    +0.000 A 
ATOM     14  C   UNL     1       6.506  -4.415  24.516  0.00  0.00    +0.000 A 
ATOM     15  C   UNL     1       7.397  -4.319  23.325  0.00  0.00    +0.000 A 
ATOM     16  C   UNL     1       7.420  -5.595  22.398  0.00  0.00    +0.000 C 
ATOM     17  C   UNL     1       7.265  -3.052  22.449  0.00  0.00    +0.000 A 
BRANCH  14  18
ATOM     18  C   UNL     1       7.243  -4.252  25.974  0.00  0.00    +0.000 C 
BRANCH  18  19
ATOM     19  S   UNL     1       6.386  -5.409  27.032  0.00  0.00    +0.000 S 
ATOM     20  O   UNL     1       5.467  -4.712  27.847  0.00  0.00    +0.000 OA
ATOM     21  O   UNL     1       5.852  -6.404  26.133  0.00  0.00    +0.000 OA
BRANCH  19  22
ATOM     22  N   UNL     1       7.543  -6.153  27.961  0.00  0.00    +0.000 NA
ATOM     23  H   UNL     1       7.622  -5.637  28.838  0.00  0.00    +0.000 HD
ATOM     24  H   UNL     1       8.456  -5.910  27.527  0.00  0.00    +0.000 HD
ENDBRANCH  19  22
ENDBRANCH  18  19
ENDBRANCH  14  18
ENDBRANCH   9  11
BRANCH   1  28
ATOM     25  C   UNL     1       4.535   0.480  27.223  0.00  0.00    +0.000 A 
ATOM     26  C   UNL     1       5.724  -0.336  27.676  0.00  0.00    +0.000 A 
ATOM     27  C   UNL     1       7.120  -0.228  27.231  0.00  0.00    +0.000 A 
ATOM     28  C   UNL     1       7.333   0.921  26.236  0.00  0.00    +0.000 A 
ATOM     29  C   UNL     1       6.264   1.907  25.859  0.00  0.00    +0.000 A 
ATOM     30  C   UNL     1       4.823   1.393  26.138  0.00  0.00    +0.000 A 
ENDBRANCH   1  28
TORSDOF 5
ENDMDL
MODEL 9
REMARK VINA RESULT:      -7.0      2.986      3.912
REMARK  Name = 
REMARK  6 active torsions:
REMARK  status: ('A' for Active; 'I' for Inactive)
REMARK    1  A    between atoms: C_7  and  C_8
REMARK    2  A    between atoms: N_23  and  C_24
REMARK    3  A    between atoms: C_29  and  C_30
REMARK    4  A    between atoms: C_30  and  S_33
REMARK    5  A    between atoms: S_33  and  N_36
REMARK    6  A    between atoms: C_39  and  C_40
REMARK                            x       y       z     vdW  Elec       q    Type
REMARK                         _______ _______ _______ _____ _____    ______ ____
ROOT
ATOM      1  C   UNL     1       6.903   2.665  22.682  0.00  0.00    +0.000 C 
ATOM      2  C   UNL     1       8.136   3.558  23.241  0.00  0.00    +0.000 A 
ATOM      3  C   UNL     1       7.822   4.835  23.166  0.00  0.00    +0.000 A 
ATOM      4  C   UNL     1       6.908   5.836  23.928  0.00  0.00    +0.000 A 
ATOM      5  C   UNL     1       7.003   5.246  25.307  0.00  0.00    +0.000 A 
ATOM      6  C   UNL     1       7.582   4.191  25.979  0.00  0.00    +0.000 A 
ATOM      7  C   UNL     1       8.346   3.426  24.804  0.00  0.00    +0.000 A 
ATOM      8  C   UNL     1       8.492   1.997  25.149  0.00  0.00    +0.000 C 
ATOM      9  N   UNL     1       7.476   1.229  24.706  0.00  0.00    +0.000 N 
ATOM     10  C   UNL     1       6.650   1.790  23.845  0.00  0.00    +0.000 C 
ENDROOT
BRANCH   9  11
ATOM     11  C   UNL     1       6.946   0.269  25.294  0.00  0.00    +0.000 A 
ATOM     12  C   UNL     1       7.965   0.053  26.430  0.00  0.00    +0.000 A 
ATOM     13  C   UNL     1       8.310  -1.252  26.860  0.00  0.00    +0.000 A 
ATOM     14  C   UNL     1       7.599  -2.406  26.029  0.00  0.00    +0.000 A 
ATOM     15  C   UNL     1       6.334  -2.108  25.299  0.00  0.00    +0.000 A 
ATOM     16  C   UNL     1       5.089  -2.975  25.731  0.00  0.00    +0.000 C 
ATOM     17  C   UNL     1       5.915  -0.623  25.199  0.00  0.00    +0.000 A 
BRANCH  14  18
ATOM     18  C   UNL     1       8.860  -2.899  25.101  0.00  0.00    +0.000 C 
BRANCH  18  19
ATOM     19  S   UNL     1       8.876  -4.675  25.286  0.00  0.00    +0.000 S 
ATOM     20  O   UNL     1       7.884  -5.245  24.458  0.00  0.00    +0.000 OA
ATOM     21  O   UNL     1      10.245  -5.060  25.041  0.00  0.00    +0.000 OA
BRANCH  19  22
ATOM     22  N   UNL     1       8.553  -4.991  26.884  0.00  0.00    +0.000 NA
ATOM     23  H   UNL     1       7.979  -5.833  26.929  0.00  0.00    +0.000 HD
ATOM     24  H   UNL     1       7.854  -4.280  27.178  0.00  0.00    +0.000 HD
ENDBRANCH  19  22
ENDBRANCH  18  19
ENDBRANCH  14  18
ENDBRANCH   9  11
BRANCH   1  28
ATOM     25  C   UNL     1       8.251  -0.472  20.126  0.00  0.00    +0.000 A 
ATOM     26  C   UNL     1       6.950   0.266  19.910  0.00  0.00    +0.000 A 
ATOM     27  C   UNL     1       6.498   1.512  20.542  0.00  0.00    +0.000 A 
ATOM     28  C   UNL     1       7.559   2.117  21.473  0.00  0.00    +0.000 A 
ATOM     29  C   UNL     1       8.950   1.570  21.619  0.00  0.00    +0.000 A 
ATOM     30  C   UNL     1       9.080   0.086  21.173  0.00  0.00    +0.000 A 
ENDBRANCH   1  28
TORSDOF 5
ENDMDL
