MODEL 1
REMARK VINA RESULT:      -8.6      0.000      0.000
REMARK  Name = 
REMARK  3 active torsions:
REMARK  status: ('A' for Active; 'I' for Inactive)
REMARK    1  A    between atoms: C_7  and  C_8
REMARK    2  A    between atoms: C_24  and  C_26
REMARK    3  A    between atoms: N_35  and  C_36
REMARK                            x       y       z     vdW  Elec       q    Type
REMARK                         _______ _______ _______ _____ _____    ______ ____
ROOT
ATOM      1  C   UNL     1       8.711  -0.954  21.967  0.00  0.00    +0.000 C 
ATOM      2  C   UNL     1       9.736  -0.142  22.331  0.00  0.00    +0.000 A 
ATOM      3  C   UNL     1       9.363   1.279  22.110  0.00  0.00    +0.000 A 
ATOM      4  C   UNL     1       9.792   2.456  22.864  0.00  0.00    +0.000 A 
ATOM      5  C   UNL     1      10.692   1.893  23.955  0.00  0.00    +0.000 A 
ATOM      6  C   UNL     1      11.148   0.615  24.385  0.00  0.00    +0.000 A 
ATOM      7  C   UNL     1       9.992  -0.388  23.882  0.00  0.00    +0.000 A 
ATOM      8  C   UNL     1       9.080  -0.739  24.936  0.00  0.00    +0.000 C 
ATOM      9  N   UNL     1       8.330  -1.611  24.294  0.00  0.00    +0.000 N 
ATOM     10  C   UNL     1       6.996  -1.904  24.563  0.00  0.00    +0.000 C 
ATOM     11  O   UNL     1       6.309  -1.137  23.930  0.00  0.00    +0.000 OA
ATOM     12  C   UNL     1       8.437  -2.001  22.981  0.00  0.00    +0.000 C 
ENDROOT
BRANCH  10  13
ATOM     13  C   UNL     1       6.794  -1.790  25.893  0.00  0.00    +0.000 C 
ATOM     14  O   UNL     1       6.354  -0.714  26.154  0.00  0.00    +0.000 OA
ATOM     15  N   UNL     1       6.486  -2.933  26.461  0.00  0.00    +0.000 N 
ATOM     16  C   UNL     1       7.580  -3.928  26.676  0.00  0.00    +0.000 C 
ATOM     17  C   UNL     1       7.044  -5.261  26.150  0.00  0.00    +0.000 C 
ATOM     18  N   UNL     1       5.648  -5.302  26.167  0.00  0.00    +0.000 NA
ATOM     19  C   UNL     1       5.091  -6.526  25.817  0.00  0.00    +0.000 C 
ATOM     20  C   UNL     1       5.076  -4.687  27.299  0.00  0.00    +0.000 C 
ATOM     21  C   UNL     1       5.339  -3.170  27.309  0.00  0.00    +0.000 C 
ENDBRANCH  10  13
BRANCH   1  25
ATOM     22  C   UNL     1       6.107  -0.462  18.598  0.00  0.00    +0.000 A 
ATOM     23  C   UNL     1       5.794  -1.425  19.746  0.00  0.00    +0.000 A 
ATOM     24  C   UNL     1       6.494  -1.577  21.010  0.00  0.00    +0.000 A 
ATOM     25  C   UNL     1       7.526  -0.480  21.229  0.00  0.00    +0.000 A 
ATOM     26  C   UNL     1       7.918   0.595  20.215  0.00  0.00    +0.000 A 
ATOM     27  C   UNL     1       7.355   0.244  18.780  0.00  0.00    +0.000 A 
ENDBRANCH   1  25
TORSDOF 2
ENDMDL
MODEL 2
REMARK VINA RESULT:      -7.4      1.536      2.003
REMARK  Name = 
REMARK  3 active torsions:
REMARK  status: ('A' for Active; 'I' for Inactive)
REMARK    1  A    between atoms: C_7  and  C_8
REMARK    2  A    between atoms: C_24  and  C_26
REMARK    3  A    between atoms: N_35  and  C_36
REMARK                            x       y       z     vdW  Elec       q    Type
REMARK                         _______ _______ _______ _____ _____    ______ ____
ROOT
ATOM      1  C   UNL     1       8.777   0.559  21.229  0.00  0.00    +0.000 C 
ATOM      2  C   UNL     1       9.306   1.737  21.649  0.00  0.00    +0.000 A 
ATOM      3  C   UNL     1       8.221   2.669  22.049  0.00  0.00    +0.000 A 
ATOM      4  C   UNL     1       8.251   3.705  23.080  0.00  0.00    +0.000 A 
ATOM      5  C   UNL     1       9.648   3.599  23.677  0.00  0.00    +0.000 A 
ATOM      6  C   UNL     1      10.806   2.790  23.501  0.00  0.00    +0.000 A 
ATOM      7  C   UNL     1      10.218   1.411  22.910  0.00  0.00    +0.000 A 
ATOM      8  C   UNL     1      10.085   0.398  23.923  0.00  0.00    +0.000 C 
ATOM      9  N   UNL     1       9.694  -0.611  23.173  0.00  0.00    +0.000 N 
ATOM     10  C   UNL     1       8.906  -1.683  23.582  0.00  0.00    +0.000 C 
ATOM     11  O   UNL     1       7.746  -1.373  23.433  0.00  0.00    +0.000 OA
ATOM     12  C   UNL     1       9.474  -0.610  21.817  0.00  0.00    +0.000 C 
ENDROOT
BRANCH  10  13
ATOM     13  C   UNL     1       9.197  -1.958  24.871  0.00  0.00    +0.000 C 
ATOM     14  O   UNL     1       9.299  -0.950  25.498  0.00  0.00    +0.000 OA
ATOM     15  N   UNL     1       8.682  -3.096  25.277  0.00  0.00    +0.000 N 
ATOM     16  C   UNL     1       9.331  -4.362  24.821  0.00  0.00    +0.000 C 
ATOM     17  C   UNL     1       8.198  -5.254  24.309  0.00  0.00    +0.000 C 
ATOM     18  N   UNL     1       6.972  -4.921  24.890  0.00  0.00    +0.000 NA
ATOM     19  C   UNL     1       5.919  -5.766  24.565  0.00  0.00    +0.000 C 
ATOM     20  C   UNL     1       7.066  -4.579  26.254  0.00  0.00    +0.000 C 
ATOM     21  C   UNL     1       7.866  -3.278  26.456  0.00  0.00    +0.000 C 
ENDBRANCH  10  13
BRANCH   1  25
ATOM     22  C   UNL     1       5.214   0.101  18.891  0.00  0.00    +0.000 A 
ATOM     23  C   UNL     1       5.903  -1.079  19.580  0.00  0.00    +0.000 A 
ATOM     24  C   UNL     1       7.009  -1.051  20.521  0.00  0.00    +0.000 A 
ATOM     25  C   UNL     1       7.337   0.363  20.979  0.00  0.00    +0.000 A 
ATOM     26  C   UNL     1       6.705   1.646  20.441  0.00  0.00    +0.000 A 
ATOM     27  C   UNL     1       5.890   1.359  19.116  0.00  0.00    +0.000 A 
ENDBRANCH   1  25
TORSDOF 2
ENDMDL
MODEL 3
REMARK VINA RESULT:      -7.1      1.984      4.524
REMARK  Name = 
REMARK  3 active torsions:
REMARK  status: ('A' for Active; 'I' for Inactive)
REMARK    1  A    between atoms: C_7  and  C_8
REMARK    2  A    between atoms: C_24  and  C_26
REMARK    3  A    between atoms: N_35  and  C_36
REMARK                            x       y       z     vdW  Elec       q    Type
REMARK                         _______ _______ _______ _____ _____    ______ ____
ROOT
ATOM      1  C   UNL     1       7.409  -0.273  22.542  0.00  0.00    +0.000 C 
ATOM      2  C   UNL     1       6.987   0.102  21.307  0.00  0.00    +0.000 A 
ATOM      3  C   UNL     1       8.137   0.150  20.368  0.00  0.00    +0.000 A 
ATOM      4  C   UNL     1       8.146  -0.120  18.932  0.00  0.00    +0.000 A 
ATOM      5  C   UNL     1       6.704  -0.491  18.612  0.00  0.00    +0.000 A 
ATOM      6  C   UNL     1       5.479  -0.647  19.320  0.00  0.00    +0.000 A 
ATOM      7  C   UNL     1       5.949  -1.000  20.819  0.00  0.00    +0.000 A 
ATOM      8  C   UNL     1       5.887  -2.411  21.090  0.00  0.00    +0.000 C 
ATOM      9  N   UNL     1       6.217  -2.403  22.365  0.00  0.00    +0.000 N 
ATOM     10  C   UNL     1       6.844  -3.434  23.059  0.00  0.00    +0.000 C 
ATOM     11  O   UNL     1       8.039  -3.288  22.947  0.00  0.00    +0.000 OA
ATOM     12  C   UNL     1       6.540  -1.315  23.139  0.00  0.00    +0.000 C 
ENDROOT
BRANCH  10  13
ATOM     13  C   UNL     1       6.425  -4.610  22.545  0.00  0.00    +0.000 C 
ATOM     14  O   UNL     1       7.309  -5.142  21.949  0.00  0.00    +0.000 OA
ATOM     15  N   UNL     1       5.506  -5.190  23.284  0.00  0.00    +0.000 N 
ATOM     16  C   UNL     1       4.120  -4.634  23.243  0.00  0.00    +0.000 C 
ATOM     17  C   UNL     1       3.684  -4.484  24.702  0.00  0.00    +0.000 C 
ATOM     18  N   UNL     1       4.380  -5.354  25.544  0.00  0.00    +0.000 NA
ATOM     19  C   UNL     1       3.952  -5.360  26.866  0.00  0.00    +0.000 C 
ATOM     20  C   UNL     1       4.604  -6.627  24.983  0.00  0.00    +0.000 C 
ATOM     21  C   UNL     1       5.551  -6.550  23.770  0.00  0.00    +0.000 C 
ENDBRANCH  10  13
BRANCH   1  25
ATOM     22  C   UNL     1      11.056   0.918  24.454  0.00  0.00    +0.000 A 
ATOM     23  C   UNL     1      10.192  -0.235  24.974  0.00  0.00    +0.000 A 
ATOM     24  C   UNL     1       9.032  -0.844  24.348  0.00  0.00    +0.000 A 
ATOM     25  C   UNL     1       8.832  -0.360  22.918  0.00  0.00    +0.000 A 
ATOM     26  C   UNL     1       9.640   0.736  22.224  0.00  0.00    +0.000 A 
ATOM     27  C   UNL     1      10.509   1.542  23.271  0.00  0.00    +0.000 A 
ENDBRANCH   1  25
TORSDOF 2
ENDMDL
MODEL 4
REMARK VINA RESULT:      -7.1      1.771      4.339
REMARK  Name = 
REMARK  3 active torsions:
REMARK  status: ('A' for Active; 'I' for Inactive)
REMARK    1  A    between atoms: C_7  and  C_8
REMARK    2  A    between atoms: C_24  and  C_26
REMARK    3  A    between atoms: N_35  and  C_36
REMARK                            x       y       z     vdW  Elec       q    Type
REMARK                         _______ _______ _______ _____ _____    ______ ____
ROOT
ATOM      1  C   UNL     1       6.825   0.812  22.367  0.00  0.00    +0.000 C 
ATOM      2  C   UNL     1       6.302   0.451  21.167  0.00  0.00    +0.000 A 
ATOM      3  C   UNL     1       7.121   1.014  20.063  0.00  0.00    +0.000 A 
ATOM      4  C   UNL     1       7.361   0.452  18.736  0.00  0.00    +0.000 A 
ATOM      5  C   UNL     1       6.599  -0.867  18.745  0.00  0.00    +0.000 A 
ATOM      6  C   UNL     1       5.809  -1.616  19.661  0.00  0.00    +0.000 A 
ATOM      7  C   UNL     1       6.344  -1.138  21.103  0.00  0.00    +0.000 A 
ATOM      8  C   UNL     1       7.276  -2.072  21.674  0.00  0.00    +0.000 C 
ATOM      9  N   UNL     1       7.466  -1.501  22.846  0.00  0.00    +0.000 N 
ATOM     10  C   UNL     1       8.612  -1.595  23.631  0.00  0.00    +0.000 C 
ATOM     11  O   UNL     1       9.368  -0.713  23.295  0.00  0.00    +0.000 OA
ATOM     12  C   UNL     1       6.912  -0.331  23.307  0.00  0.00    +0.000 C 
ENDROOT
BRANCH  10  13
ATOM     13  C   UNL     1       9.149  -2.820  23.456  0.00  0.00    +0.000 C 
ATOM     14  O   UNL     1      10.299  -2.730  23.153  0.00  0.00    +0.000 OA
ATOM     15  N   UNL     1       8.601  -3.732  24.227  0.00  0.00    +0.000 N 
ATOM     16  C   UNL     1       7.243  -4.234  23.862  0.00  0.00    +0.000 C 
ATOM     17  C   UNL     1       6.413  -4.175  25.146  0.00  0.00    +0.000 C 
ATOM     18  N   UNL     1       7.218  -4.229  26.286  0.00  0.00    +0.000 NA
ATOM     19  C   UNL     1       6.528  -4.301  27.490  0.00  0.00    +0.000 C 
ATOM     20  C   UNL     1       8.309  -5.113  26.169  0.00  0.00    +0.000 C 
ATOM     21  C   UNL     1       9.314  -4.631  25.106  0.00  0.00    +0.000 C 
ENDBRANCH  10  13
BRANCH   1  25
ATOM     22  C   UNL     1      10.553   2.430  23.731  0.00  0.00    +0.000 A 
ATOM     23  C   UNL     1      10.348   1.928  22.299  0.00  0.00    +0.000 A 
ATOM     24  C   UNL     1       9.113   1.508  21.660  0.00  0.00    +0.000 A 
ATOM     25  C   UNL     1       7.891   1.819  22.513  0.00  0.00    +0.000 A 
ATOM     26  C   UNL     1       7.913   2.377  23.936  0.00  0.00    +0.000 A 
ATOM     27  C   UNL     1       9.369   2.296  24.549  0.00  0.00    +0.000 A 
ENDBRANCH   1  25
TORSDOF 2
ENDMDL
MODEL 5
REMARK VINA RESULT:      -7.0      2.611      5.354
REMARK  Name = 
REMARK  3 active torsions:
REMARK  status: ('A' for Active; 'I' for Inactive)
REMARK    1  A    between atoms: C_7  and  C_8
REMARK    2  A    between atoms: C_24  and  C_26
REMARK    3  A    between atoms: N_35  and  C_36
REMARK                            x       y       z     vdW  Elec       q    Type
REMARK                         _______ _______ _______ _____ _____    ______ ____
ROOT
ATOM      1  C   UNL     1       6.782  -2.768  23.931  0.00  0.00    +0.000 C 
ATOM      2  C   UNL     1       6.296  -3.603  22.978  0.00  0.00    +0.000 A 
ATOM      3  C   UNL     1       7.415  -4.278  22.272  0.00  0.00    +0.000 A 
ATOM      4  C   UNL     1       7.438  -5.614  21.680  0.00  0.00    +0.000 A 
ATOM      5  C   UNL     1       6.054  -6.177  21.973  0.00  0.00    +0.000 A 
ATOM      6  C   UNL     1       4.871  -5.758  22.644  0.00  0.00    +0.000 A 
ATOM      7  C   UNL     1       5.406  -4.690  23.724  0.00  0.00    +0.000 A 
ATOM      8  C   UNL     1       5.537  -5.263  25.037  0.00  0.00    +0.000 C 
ATOM      9  N   UNL     1       5.882  -4.186  25.712  0.00  0.00    +0.000 N 
ATOM     10  C   UNL     1       6.650  -4.153  26.872  0.00  0.00    +0.000 C 
ATOM     11  O   UNL     1       7.813  -4.088  26.548  0.00  0.00    +0.000 OA
ATOM     12  C   UNL     1       6.069  -2.915  25.222  0.00  0.00    +0.000 C 
ENDROOT
BRANCH  10  13
ATOM     13  C   UNL     1       6.383  -5.263  27.591  0.00  0.00    +0.000 C 
ATOM     14  O   UNL     1       7.372  -5.914  27.732  0.00  0.00    +0.000 OA
ATOM     15  N   UNL     1       5.421  -5.083  28.467  0.00  0.00    +0.000 N 
ATOM     16  C   UNL     1       4.015  -5.027  27.963  0.00  0.00    +0.000 C 
ATOM     17  C   UNL     1       3.387  -3.789  28.606  0.00  0.00    +0.000 C 
ATOM     18  N   UNL     1       4.029  -3.442  29.797  0.00  0.00    +0.000 NA
ATOM     19  C   UNL     1       3.438  -2.399  30.501  0.00  0.00    +0.000 C 
ATOM     20  C   UNL     1       4.412  -4.549  30.579  0.00  0.00    +0.000 C 
ATOM     21  C   UNL     1       5.498  -5.386  29.878  0.00  0.00    +0.000 C 
ENDBRANCH  10  13
BRANCH   1  25
ATOM     22  C   UNL     1      10.257  -0.273  23.661  0.00  0.00    +0.000 A 
ATOM     23  C   UNL     1       9.573  -0.590  24.994  0.00  0.00    +0.000 A 
ATOM     24  C   UNL     1       8.500  -1.534  25.253  0.00  0.00    +0.000 A 
ATOM     25  C   UNL     1       8.209  -2.417  24.047  0.00  0.00    +0.000 A 
ATOM     26  C   UNL     1       8.843  -2.277  22.663  0.00  0.00    +0.000 A 
ATOM     27  C   UNL     1       9.608  -0.899  22.532  0.00  0.00    +0.000 A 
ENDBRANCH   1  25
TORSDOF 2
ENDMDL
MODEL 6
REMARK VINA RESULT:      -7.0      2.328      3.122
REMARK  Name = 
REMARK  3 active torsions:
REMARK  status: ('A' for Active; 'I' for Inactive)
REMARK    1  A    between atoms: C_7  and  C_8
REMARK    2  A    between atoms: C_24  and  C_26
REMARK    3  A    between atoms: N_35  and  C_36
REMARK                            x       y       z     vdW  Elec       q    Type
REMARK                         _______ _______ _______ _____ _____    ______ ____
ROOT
ATOM      1  C   UNL     1       8.937   2.005  23.857  0.00  0.00    +0.000 C 
ATOM      2  C   UNL     1       8.491   3.009  24.655  0.00  0.00    +0.000 A 
ATOM      3  C   UNL     1       7.542   3.872  23.906  0.00  0.00    +0.000 A 
ATOM      4  C   UNL     1       6.394   4.615  24.421  0.00  0.00    +0.000 A 
ATOM      5  C   UNL     1       6.369   4.284  25.907  0.00  0.00    +0.000 A 
ATOM      6  C   UNL     1       7.113   3.480  26.815  0.00  0.00    +0.000 A 
ATOM      7  C   UNL     1       7.737   2.327  25.878  0.00  0.00    +0.000 A 
ATOM      8  C   UNL     1       6.984   1.104  25.947  0.00  0.00    +0.000 C 
ATOM      9  N   UNL     1       7.743   0.337  25.192  0.00  0.00    +0.000 N 
ATOM     10  C   UNL     1       7.321  -0.756  24.442  0.00  0.00    +0.000 C 
ATOM     11  O   UNL     1       6.979  -0.353  23.354  0.00  0.00    +0.000 OA
ATOM     12  C   UNL     1       8.899   0.689  24.537  0.00  0.00    +0.000 C 
ENDROOT
BRANCH  10  13
ATOM     13  C   UNL     1       6.310  -1.360  25.102  0.00  0.00    +0.000 C 
ATOM     14  O   UNL     1       5.259  -1.019  24.654  0.00  0.00    +0.000 OA
ATOM     15  N   UNL     1       6.633  -2.554  25.545  0.00  0.00    +0.000 N 
ATOM     16  C   UNL     1       7.518  -2.640  26.746  0.00  0.00    +0.000 C 
ATOM     17  C   UNL     1       8.618  -3.641  26.386  0.00  0.00    +0.000 C 
ATOM     18  N   UNL     1       8.205  -4.531  25.392  0.00  0.00    +0.000 NA
ATOM     19  C   UNL     1       9.108  -5.545  25.099  0.00  0.00    +0.000 C 
ATOM     20  C   UNL     1       6.864  -4.944  25.523  0.00  0.00    +0.000 C 
ATOM     21  C   UNL     1       5.889  -3.770  25.309  0.00  0.00    +0.000 C 
ENDBRANCH  10  13
BRANCH   1  25
ATOM     22  C   UNL     1       7.688   0.308  20.124  0.00  0.00    +0.000 A 
ATOM     23  C   UNL     1       6.857   1.354  20.872  0.00  0.00    +0.000 A 
ATOM     24  C   UNL     1       7.224   2.123  22.048  0.00  0.00    +0.000 A 
ATOM     25  C   UNL     1       8.696   1.960  22.403  0.00  0.00    +0.000 A 
ATOM     26  C   UNL     1       9.679   1.009  21.723  0.00  0.00    +0.000 A 
ATOM     27  C   UNL     1       8.915  -0.031  20.810  0.00  0.00    +0.000 A 
ENDBRANCH   1  25
TORSDOF 2
ENDMDL
MODEL 7
REMARK VINA RESULT:      -6.9      2.259      3.308
REMARK  Name = 
REMARK  3 active torsions:
REMARK  status: ('A' for Active; 'I' for Inactive)
REMARK    1  A    between atoms: C_7  and  C_8
REMARK    2  A    between atoms: C_24  and  C_26
REMARK    3  A    between atoms: N_35  and  C_36
REMARK                            x       y       z     vdW  Elec       q    Type
REMARK                         _______ _______ _______ _____ _____    ______ ____
ROOT
ATOM      1  C   UNL     1       8.116   2.037  21.470  0.00  0.00    +0.000 C 
ATOM      2  C   UNL     1       7.734   3.071  22.262  0.00  0.00    +0.000 A 
ATOM      3  C   UNL     1       6.297   2.940  22.613  0.00  0.00    +0.000 A 
ATOM      4  C   UNL     1       5.620   3.367  23.836  0.00  0.00    +0.000 A 
ATOM      5  C   UNL     1       6.733   3.958  24.692  0.00  0.00    +0.000 A 
ATOM      6  C   UNL     1       8.140   4.149  24.599  0.00  0.00    +0.000 A 
ATOM      7  C   UNL     1       8.613   2.990  23.585  0.00  0.00    +0.000 A 
ATOM      8  C   UNL     1       9.159   1.853  24.276  0.00  0.00    +0.000 C 
ATOM      9  N   UNL     1       9.541   1.132  23.242  0.00  0.00    +0.000 N 
ATOM     10  C   UNL     1       9.643  -0.256  23.200  0.00  0.00    +0.000 C 
ATOM     11  O   UNL     1       8.568  -0.700  22.868  0.00  0.00    +0.000 OA
ATOM     12  C   UNL     1       9.399   1.438  21.910  0.00  0.00    +0.000 C 
ENDROOT
BRANCH  10  13
ATOM     13  C   UNL     1      10.020  -0.693  24.420  0.00  0.00    +0.000 C 
ATOM     14  O   UNL     1      10.435   0.213  25.075  0.00  0.00    +0.000 OA
ATOM     15  N   UNL     1       9.306  -1.712  24.839  0.00  0.00    +0.000 N 
ATOM     16  C   UNL     1       9.574  -3.052  24.236  0.00  0.00    +0.000 C 
ATOM     17  C   UNL     1       8.207  -3.619  23.846  0.00  0.00    +0.000 C 
ATOM     18  N   UNL     1       7.178  -3.062  24.608  0.00  0.00    +0.000 NA
ATOM     19  C   UNL     1       5.922  -3.616  24.394  0.00  0.00    +0.000 C 
ATOM     20  C   UNL     1       7.520  -2.861  25.960  0.00  0.00    +0.000 C 
ATOM     21  C   UNL     1       8.623  -1.797  26.111  0.00  0.00    +0.000 C 
ENDBRANCH  10  13
BRANCH   1  25
ATOM     22  C   UNL     1       5.687   0.341  18.373  0.00  0.00    +0.000 A 
ATOM     23  C   UNL     1       7.009  -0.289  18.820  0.00  0.00    +0.000 A 
ATOM     24  C   UNL     1       7.846   0.080  19.948  0.00  0.00    +0.000 A 
ATOM     25  C   UNL     1       7.165   1.090  20.861  0.00  0.00    +0.000 A 
ATOM     26  C   UNL     1       5.822   1.771  20.597  0.00  0.00    +0.000 A 
ATOM     27  C   UNL     1       5.364   1.547  19.100  0.00  0.00    +0.000 A 
ENDBRANCH   1  25
TORSDOF 2
ENDMDL
MODEL 8
REMARK VINA RESULT:      -6.7      2.119      7.124
REMARK  Name = 
REMARK  3 active torsions:
REMARK  status: ('A' for Active; 'I' for Inactive)
REMARK    1  A    between atoms: C_7  and  C_8
REMARK    2  A    between atoms: C_24  and  C_26
REMARK    3  A    between atoms: N_35  and  C_36
REMARK                            x       y       z     vdW  Elec       q    Type
REMARK                         _______ _______ _______ _____ _____    ______ ____
ROOT
ATOM      1  C   UNL     1       6.733  -3.926  25.178  0.00  0.00    +0.000 C 
ATOM      2  C   UNL     1       6.699  -5.053  24.421  0.00  0.00    +0.000 A 
ATOM      3  C   UNL     1       5.292  -5.422  24.120  0.00  0.00    +0.000 A 
ATOM      4  C   UNL     1       4.765  -6.089  22.931  0.00  0.00    +0.000 A 
ATOM      5  C   UNL     1       5.988  -6.301  22.048  0.00  0.00    +0.000 A 
ATOM      6  C   UNL     1       7.380  -6.007  22.095  0.00  0.00    +0.000 A 
ATOM      7  C   UNL     1       7.464  -4.725  23.066  0.00  0.00    +0.000 A 
ATOM      8  C   UNL     1       7.578  -3.493  22.332  0.00  0.00    +0.000 C 
ATOM      9  N   UNL     1       7.724  -2.654  23.336  0.00  0.00    +0.000 N 
ATOM     10  C   UNL     1       7.356  -1.311  23.346  0.00  0.00    +0.000 C 
ATOM     11  O   UNL     1       6.204  -1.242  23.706  0.00  0.00    +0.000 OA
ATOM     12  C   UNL     1       7.728  -2.946  24.679  0.00  0.00    +0.000 C 
ENDROOT
BRANCH  10  13
ATOM     13  C   UNL     1       7.532  -0.813  22.104  0.00  0.00    +0.000 C 
ATOM     14  O   UNL     1       6.614  -1.109  21.403  0.00  0.00    +0.000 OA
ATOM     15  N   UNL     1       8.200   0.318  22.099  0.00  0.00    +0.000 N 
ATOM     16  C   UNL     1       9.676   0.262  22.326  0.00  0.00    +0.000 C 
ATOM     17  C   UNL     1       9.978   1.318  23.391  0.00  0.00    +0.000 C 
ATOM     18  N   UNL     1       9.008   2.322  23.416  0.00  0.00    +0.000 NA
ATOM     19  C   UNL     1       9.278   3.380  24.276  0.00  0.00    +0.000 C 
ATOM     20  C   UNL     1       8.544   2.694  22.138  0.00  0.00    +0.000 C 
ATOM     21  C   UNL     1       7.778   1.544  21.459  0.00  0.00    +0.000 C 
ENDBRANCH  10  13
BRANCH   1  25
ATOM     22  C   UNL     1       4.109  -2.787  28.369  0.00  0.00    +0.000 A 
ATOM     23  C   UNL     1       5.010  -1.782  27.647  0.00  0.00    +0.000 A 
ATOM     24  C   UNL     1       5.821  -1.991  26.460  0.00  0.00    +0.000 A 
ATOM     25  C   UNL     1       5.535  -3.333  25.799  0.00  0.00    +0.000 A 
ATOM     26  C   UNL     1       4.619  -4.424  26.352  0.00  0.00    +0.000 A 
ATOM     27  C   UNL     1       4.245  -4.133  27.861  0.00  0.00    +0.000 A 
ENDBRANCH   1  25
TORSDOF 2
ENDMDL
MODEL 9
REMARK VINA RESULT:      -6.7      1.795      2.483
REMARK  Name = 
REMARK  3 active torsions:
REMARK  status: ('A' for Active; 'I' for Inactive)
REMARK    1  A    between atoms: C_7  and  C_8
REMARK    2  A    between atoms: C_24  and  C_26
REMARK    3  A    between atoms: N_35  and  C_36
REMARK                            x       y       z     vdW  Elec       q    Type
REMARK                         _______ _______ _______ _____ _____    ______ ____
ROOT
ATOM      1  C   UNL     1       8.684   0.142  21.228  0.00  0.00    +0.000 C 
ATOM      2  C   UNL     1       9.273   1.121  21.961  0.00  0.00    +0.000 A 
ATOM      3  C   UNL     1       8.237   1.975  22.597  0.00  0.00    +0.000 A 
ATOM      4  C   UNL     1       8.305   2.682  23.874  0.00  0.00    +0.000 A 
ATOM      5  C   UNL     1       9.678   2.324  24.428  0.00  0.00    +0.000 A 
ATOM      6  C   UNL     1      10.788   1.521  24.042  0.00  0.00    +0.000 A 
ATOM      7  C   UNL     1      10.133   0.400  23.089  0.00  0.00    +0.000 A 
ATOM      8  C   UNL     1       9.913  -0.841  23.781  0.00  0.00    +0.000 C 
ATOM      9  N   UNL     1       9.480  -1.576  22.778  0.00  0.00    +0.000 N 
ATOM     10  C   UNL     1       8.619  -2.666  22.868  0.00  0.00    +0.000 C 
ATOM     11  O   UNL     1       7.484  -2.252  22.803  0.00  0.00    +0.000 OA
ATOM     12  C   UNL     1       9.294  -1.187  21.473  0.00  0.00    +0.000 C 
ENDROOT
BRANCH  10  13
ATOM     13  C   UNL     1       8.861  -3.305  24.032  0.00  0.00    +0.000 C 
ATOM     14  O   UNL     1      10.035  -3.425  24.203  0.00  0.00    +0.000 OA
ATOM     15  N   UNL     1       7.948  -3.065  24.945  0.00  0.00    +0.000 N 
ATOM     16  C   UNL     1       6.623  -3.742  24.806  0.00  0.00    +0.000 C 
ATOM     17  C   UNL     1       5.570  -2.646  24.988  0.00  0.00    +0.000 C 
ATOM     18  N   UNL     1       6.063  -1.572  25.733  0.00  0.00    +0.000 NA
ATOM     19  C   UNL     1       5.126  -0.593  26.042  0.00  0.00    +0.000 C 
ATOM     20  C   UNL     1       6.899  -1.957  26.799  0.00  0.00    +0.000 C 
ATOM     21  C   UNL     1       8.202  -2.601  26.290  0.00  0.00    +0.000 C 
ENDBRANCH  10  13
BRANCH   1  25
ATOM     22  C   UNL     1       5.168   0.452  18.797  0.00  0.00    +0.000 A 
ATOM     23  C   UNL     1       5.744  -0.894  19.242  0.00  0.00    +0.000 A 
ATOM     24  C   UNL     1       6.821  -1.146  20.184  0.00  0.00    +0.000 A 
ATOM     25  C   UNL     1       7.242   0.117  20.923  0.00  0.00    +0.000 A 
ATOM     26  C   UNL     1       6.725   1.529  20.648  0.00  0.00    +0.000 A 
ATOM     27  C   UNL     1       5.931   1.580  19.281  0.00  0.00    +0.000 A 
ENDBRANCH   1  25
TORSDOF 2
ENDMDL
