MODEL 1
REMARK VINA RESULT:      -8.7      0.000      0.000
REMARK  Name = 
REMARK  3 active torsions:
REMARK  status: ('A' for Active; 'I' for Inactive)
REMARK    1  A    between atoms: C_5  and  C_6
REMARK    2  A    between atoms: C_14  and  C_15
REMARK    3  A    between atoms: C_38  and  C_40
REMARK                            x       y       z     vdW  Elec       q    Type
REMARK                         _______ _______ _______ _____ _____    ______ ____
ROOT
ATOM      1  C   UNL     1       7.686  -0.422  22.464  0.00  0.00    +0.000 C 
ATOM      2  O   UNL     1       7.555   0.769  22.677  0.00  0.00    +0.000 OA
ATOM      3  N   UNL     1       8.093  -1.304  23.419  0.00  0.00    +0.000 N 
ATOM      4  C   UNL     1       7.689  -0.908  24.787  0.00  0.00    +0.000 C 
ATOM      5  C   UNL     1       8.172  -1.892  25.817  0.00  0.00    +0.000 C 
ATOM      6  N   UNL     1       8.616  -3.120  25.146  0.00  0.00    +0.000 N 
ATOM      7  C   UNL     1       8.441  -4.301  25.753  0.00  0.00    +0.000 C 
ATOM      8  O   UNL     1       9.128  -4.686  26.659  0.00  0.00    +0.000 OA
ATOM      9  N   UNL     1       7.686  -5.124  25.003  0.00  0.00    +0.000 N 
ATOM     10  H   UNL     1       7.950  -6.034  25.164  0.00  0.00    +0.000 HD
ATOM     11  C   UNL     1       6.397  -4.961  25.308  0.00  0.00    +0.000 C 
ATOM     12  O   UNL     1       6.010  -4.109  26.068  0.00  0.00    +0.000 OA
ATOM     13  N   UNL     1       5.698  -6.100  25.080  0.00  0.00    +0.000 N 
ATOM     14  C   UNL     1       4.653  -6.442  26.073  0.00  0.00    +0.000 C 
ATOM     15  C   UNL     1       3.504  -5.478  25.865  0.00  0.00    +0.000 C 
ATOM     16  C   UNL     1       3.443  -4.933  24.476  0.00  0.00    +0.000 C 
ATOM     17  C   UNL     1       3.938  -5.882  23.416  0.00  0.00    +0.000 C 
ATOM     18  C   UNL     1       5.327  -6.401  23.694  0.00  0.00    +0.000 C 
ATOM     19  C   UNL     1       9.748  -2.946  24.241  0.00  0.00    +0.000 C 
ATOM     20  C   UNL     1       9.469  -1.806  23.288  0.00  0.00    +0.000 C 
ENDROOT
BRANCH   1  27
ATOM     21  C   UNL     1       8.330  -0.197  20.121  0.00  0.00    +0.000 A 
ATOM     22  C   UNL     1       7.444   0.361  19.061  0.00  0.00    +0.000 A 
ATOM     23  C   UNL     1       6.034  -0.054  18.739  0.00  0.00    +0.000 A 
ATOM     24  C   UNL     1       5.113   1.083  18.987  0.00  0.00    +0.000 C 
ATOM     25  C   UNL     1       5.714  -1.133  19.714  0.00  0.00    +0.000 A 
ATOM     26  C   UNL     1       6.265  -1.696  20.889  0.00  0.00    +0.000 A 
ATOM     27  C   UNL     1       7.568  -0.896  21.154  0.00  0.00    +0.000 A 
ENDBRANCH   1  27
BRANCH  16  28
ATOM     28  C   UNL     1       4.222  -3.646  24.391  0.00  0.00    +0.000 C 
ATOM     29  O   UNL     1       4.808  -3.320  23.376  0.00  0.00    +0.000 OA
ATOM     30  N   UNL     1       3.922  -2.713  25.327  0.00  0.00    +0.000 N 
ATOM     31  H   UNL     1       3.103  -2.275  25.076  0.00  0.00    +0.000 HD
ATOM     32  H   UNL     1       4.695  -2.157  25.469  0.00  0.00    +0.000 HD
ENDBRANCH  16  28
TORSDOF 2
ENDMDL
MODEL 2
REMARK VINA RESULT:      -8.1      2.233      6.388
REMARK  Name = 
REMARK  3 active torsions:
REMARK  status: ('A' for Active; 'I' for Inactive)
REMARK    1  A    between atoms: C_5  and  C_6
REMARK    2  A    between atoms: C_14  and  C_15
REMARK    3  A    between atoms: C_38  and  C_40
REMARK                            x       y       z     vdW  Elec       q    Type
REMARK                         _______ _______ _______ _____ _____    ______ ____
ROOT
ATOM      1  C   UNL     1       7.963  -4.068  26.170  0.00  0.00    +0.000 C 
ATOM      2  O   UNL     1       8.702  -4.415  27.072  0.00  0.00    +0.000 OA
ATOM      3  N   UNL     1       7.335  -2.858  26.151  0.00  0.00    +0.000 N 
ATOM      4  C   UNL     1       8.103  -1.794  26.837  0.00  0.00    +0.000 C 
ATOM      5  C   UNL     1       7.372  -0.479  26.816  0.00  0.00    +0.000 C 
ATOM      6  N   UNL     1       6.273  -0.549  25.846  0.00  0.00    +0.000 N 
ATOM      7  C   UNL     1       5.934   0.547  25.155  0.00  0.00    +0.000 C 
ATOM      8  O   UNL     1       5.308   1.457  25.625  0.00  0.00    +0.000 OA
ATOM      9  N   UNL     1       6.044   0.338  23.831  0.00  0.00    +0.000 N 
ATOM     10  H   UNL     1       5.394   0.873  23.369  0.00  0.00    +0.000 HD
ATOM     11  C   UNL     1       7.274   0.657  23.422  0.00  0.00    +0.000 C 
ATOM     12  O   UNL     1       8.153   0.973  24.184  0.00  0.00    +0.000 OA
ATOM     13  N   UNL     1       7.266   1.049  22.124  0.00  0.00    +0.000 N 
ATOM     14  C   UNL     1       8.150   2.185  21.772  0.00  0.00    +0.000 C 
ATOM     15  C   UNL     1       9.573   1.670  21.798  0.00  0.00    +0.000 C 
ATOM     16  C   UNL     1       9.667   0.199  21.554  0.00  0.00    +0.000 C 
ATOM     17  C   UNL     1       8.598  -0.348  20.644  0.00  0.00    +0.000 C 
ATOM     18  C   UNL     1       7.203   0.001  21.101  0.00  0.00    +0.000 C 
ATOM     19  C   UNL     1       5.246  -1.539  26.158  0.00  0.00    +0.000 C 
ATOM     20  C   UNL     1       5.892  -2.877  26.433  0.00  0.00    +0.000 C 
ENDROOT
BRANCH   1  27
ATOM     21  C   UNL     1       8.162  -4.785  23.846  0.00  0.00    +0.000 A 
ATOM     22  C   UNL     1       7.091  -4.614  22.824  0.00  0.00    +0.000 A 
ATOM     23  C   UNL     1       5.650  -5.033  22.935  0.00  0.00    +0.000 A 
ATOM     24  C   UNL     1       4.779  -3.832  22.886  0.00  0.00    +0.000 C 
ATOM     25  C   UNL     1       5.526  -5.642  24.288  0.00  0.00    +0.000 A 
ATOM     26  C   UNL     1       6.288  -5.753  25.475  0.00  0.00    +0.000 A 
ATOM     27  C   UNL     1       7.611  -4.993  25.183  0.00  0.00    +0.000 A 
ENDBRANCH   1  27
BRANCH  16  28
ATOM     28  C   UNL     1       9.629  -0.545  22.865  0.00  0.00    +0.000 C 
ATOM     29  O   UNL     1       9.122  -1.647  22.959  0.00  0.00    +0.000 OA
ATOM     30  N   UNL     1      10.505  -0.120  23.808  0.00  0.00    +0.000 N 
ATOM     31  H   UNL     1      11.378  -0.465  23.597  0.00  0.00    +0.000 HD
ATOM     32  H   UNL     1      10.147  -0.326  24.678  0.00  0.00    +0.000 HD
ENDBRANCH  16  28
TORSDOF 2
ENDMDL
MODEL 3
REMARK VINA RESULT:      -8.1      3.157      5.417
REMARK  Name = 
REMARK  3 active torsions:
REMARK  status: ('A' for Active; 'I' for Inactive)
REMARK    1  A    between atoms: C_5  and  C_6
REMARK    2  A    between atoms: C_14  and  C_15
REMARK    3  A    between atoms: C_38  and  C_40
REMARK                            x       y       z     vdW  Elec       q    Type
REMARK                         _______ _______ _______ _____ _____    ______ ____
ROOT
ATOM      1  C   UNL     1       9.648   2.447  23.411  0.00  0.00    +0.000 C 
ATOM      2  O   UNL     1      10.756   2.849  23.109  0.00  0.00    +0.000 OA
ATOM      3  N   UNL     1       8.894   1.666  22.589  0.00  0.00    +0.000 N 
ATOM      4  C   UNL     1       9.705   0.796  21.708  0.00  0.00    +0.000 C 
ATOM      5  C   UNL     1       8.842  -0.037  20.799  0.00  0.00    +0.000 C 
ATOM      6  N   UNL     1       7.452   0.011  21.271  0.00  0.00    +0.000 N 
ATOM      7  C   UNL     1       6.671  -1.068  21.126  0.00  0.00    +0.000 C 
ATOM      8  O   UNL     1       6.183  -1.394  20.079  0.00  0.00    +0.000 OA
ATOM      9  N   UNL     1       6.213  -1.497  22.315  0.00  0.00    +0.000 N 
ATOM     10  H   UNL     1       5.348  -1.899  22.197  0.00  0.00    +0.000 HD
ATOM     11  C   UNL     1       7.063  -2.384  22.837  0.00  0.00    +0.000 C 
ATOM     12  O   UNL     1       8.126  -2.643  22.331  0.00  0.00    +0.000 OA
ATOM     13  N   UNL     1       6.415  -3.256  23.648  0.00  0.00    +0.000 N 
ATOM     14  C   UNL     1       6.856  -4.670  23.582  0.00  0.00    +0.000 C 
ATOM     15  C   UNL     1       8.205  -4.751  24.266  0.00  0.00    +0.000 C 
ATOM     16  C   UNL     1       8.414  -3.670  25.275  0.00  0.00    +0.000 C 
ATOM     17  C   UNL     1       7.155  -3.213  25.964  0.00  0.00    +0.000 C 
ATOM     18  C   UNL     1       6.073  -2.800  24.997  0.00  0.00    +0.000 C 
ATOM     19  C   UNL     1       6.845   1.337  21.247  0.00  0.00    +0.000 C 
ATOM     20  C   UNL     1       7.750   2.327  21.943  0.00  0.00    +0.000 C 
ENDROOT
BRANCH   1  27
ATOM     21  C   UNL     1       8.204   1.990  25.325  0.00  0.00    +0.000 A 
ATOM     22  C   UNL     1       6.805   2.487  25.453  0.00  0.00    +0.000 A 
ATOM     23  C   UNL     1       6.323   3.904  25.299  0.00  0.00    +0.000 A 
ATOM     24  C   UNL     1       5.398   3.990  24.141  0.00  0.00    +0.000 C 
ATOM     25  C   UNL     1       7.542   4.697  24.980  0.00  0.00    +0.000 A 
ATOM     26  C   UNL     1       8.892   4.468  24.624  0.00  0.00    +0.000 A 
ATOM     27  C   UNL     1       9.047   2.924  24.580  0.00  0.00    +0.000 A 
ENDBRANCH   1  27
BRANCH  16  28
ATOM     28  C   UNL     1       9.083  -2.483  24.629  0.00  0.00    +0.000 C 
ATOM     29  O   UNL     1       8.928  -1.353  25.054  0.00  0.00    +0.000 OA
ATOM     30  N   UNL     1      10.140  -2.766  23.830  0.00  0.00    +0.000 N 
ATOM     31  H   UNL     1      10.907  -2.942  24.383  0.00  0.00    +0.000 HD
ATOM     32  H   UNL     1      10.222  -2.072  23.168  0.00  0.00    +0.000 HD
ENDBRANCH  16  28
TORSDOF 2
ENDMDL
MODEL 4
REMARK VINA RESULT:      -7.9      2.321      6.479
REMARK  Name = 
REMARK  3 active torsions:
REMARK  status: ('A' for Active; 'I' for Inactive)
REMARK    1  A    between atoms: C_5  and  C_6
REMARK    2  A    between atoms: C_14  and  C_15
REMARK    3  A    between atoms: C_38  and  C_40
REMARK                            x       y       z     vdW  Elec       q    Type
REMARK                         _______ _______ _______ _____ _____    ______ ____
ROOT
ATOM      1  C   UNL     1       6.746  -4.012  25.592  0.00  0.00    +0.000 C 
ATOM      2  O   UNL     1       7.399  -4.912  26.085  0.00  0.00    +0.000 OA
ATOM      3  N   UNL     1       6.855  -2.713  25.990  0.00  0.00    +0.000 N 
ATOM      4  C   UNL     1       8.208  -2.369  26.484  0.00  0.00    +0.000 C 
ATOM      5  C   UNL     1       8.287  -0.935  26.935  0.00  0.00    +0.000 C 
ATOM      6  N   UNL     1       7.106  -0.208  26.453  0.00  0.00    +0.000 N 
ATOM      7  C   UNL     1       7.222   1.081  26.111  0.00  0.00    +0.000 C 
ATOM      8  O   UNL     1       7.301   1.972  26.911  0.00  0.00    +0.000 OA
ATOM      9  N   UNL     1       6.867   1.276  24.828  0.00  0.00    +0.000 N 
ATOM     10  H   UNL     1       6.495   2.157  24.731  0.00  0.00    +0.000 HD
ATOM     11  C   UNL     1       7.933   1.138  24.036  0.00  0.00    +0.000 C 
ATOM     12  O   UNL     1       9.007   0.781  24.447  0.00  0.00    +0.000 OA
ATOM     13  N   UNL     1       7.798   1.882  22.911  0.00  0.00    +0.000 N 
ATOM     14  C   UNL     1       9.019   2.566  22.422  0.00  0.00    +0.000 C 
ATOM     15  C   UNL     1       9.921   1.502  21.832  0.00  0.00    +0.000 C 
ATOM     16  C   UNL     1       9.174   0.299  21.358  0.00  0.00    +0.000 C 
ATOM     17  C   UNL     1       7.787   0.592  20.849  0.00  0.00    +0.000 C 
ATOM     18  C   UNL     1       6.944   1.350  21.845  0.00  0.00    +0.000 C 
ATOM     19  C   UNL     1       5.834  -0.693  26.981  0.00  0.00    +0.000 C 
ATOM     20  C   UNL     1       5.739  -2.189  26.790  0.00  0.00    +0.000 C 
ENDROOT
BRANCH   1  27
ATOM     21  C   UNL     1       5.293  -5.721  24.630  0.00  0.00    +0.000 A 
ATOM     22  C   UNL     1       5.475  -6.305  23.272  0.00  0.00    +0.000 A 
ATOM     23  C   UNL     1       5.629  -5.561  21.973  0.00  0.00    +0.000 A 
ATOM     24  C   UNL     1       6.970  -5.839  21.398  0.00  0.00    +0.000 C 
ATOM     25  C   UNL     1       5.571  -4.119  22.342  0.00  0.00    +0.000 A 
ATOM     26  C   UNL     1       5.599  -3.322  23.510  0.00  0.00    +0.000 A 
ATOM     27  C   UNL     1       5.728  -4.327  24.687  0.00  0.00    +0.000 A 
ENDBRANCH   1  27
BRANCH  16  28
ATOM     28  C   UNL     1       9.091  -0.726  22.461  0.00  0.00    +0.000 C 
ATOM     29  O   UNL     1       8.121  -1.449  22.587  0.00  0.00    +0.000 OA
ATOM     30  N   UNL     1      10.269  -1.065  23.037  0.00  0.00    +0.000 N 
ATOM     31  H   UNL     1      10.733  -1.676  22.457  0.00  0.00    +0.000 HD
ATOM     32  H   UNL     1      10.099  -1.356  23.939  0.00  0.00    +0.000 HD
ENDBRANCH  16  28
TORSDOF 2
ENDMDL
MODEL 5
REMARK VINA RESULT:      -7.9      2.018      6.345
REMARK  Name = 
REMARK  3 active torsions:
REMARK  status: ('A' for Active; 'I' for Inactive)
REMARK    1  A    between atoms: C_5  and  C_6
REMARK    2  A    between atoms: C_14  and  C_15
REMARK    3  A    between atoms: C_38  and  C_40
REMARK                            x       y       z     vdW  Elec       q    Type
REMARK                         _______ _______ _______ _____ _____    ______ ____
ROOT
ATOM      1  C   UNL     1       7.230  -4.887  25.501  0.00  0.00    +0.000 C 
ATOM      2  O   UNL     1       7.970  -5.715  25.997  0.00  0.00    +0.000 OA
ATOM      3  N   UNL     1       7.217  -3.580  25.885  0.00  0.00    +0.000 N 
ATOM      4  C   UNL     1       8.534  -3.101  26.362  0.00  0.00    +0.000 C 
ATOM      5  C   UNL     1       8.478  -1.662  26.797  0.00  0.00    +0.000 C 
ATOM      6  N   UNL     1       7.229  -1.057  26.319  0.00  0.00    +0.000 N 
ATOM      7  C   UNL     1       7.217   0.234  25.963  0.00  0.00    +0.000 C 
ATOM      8  O   UNL     1       7.217   1.137  26.754  0.00  0.00    +0.000 OA
ATOM      9  N   UNL     1       6.834   0.379  24.682  0.00  0.00    +0.000 N 
ATOM     10  H   UNL     1       6.378   1.219  24.579  0.00  0.00    +0.000 HD
ATOM     11  C   UNL     1       7.901   0.336  23.881  0.00  0.00    +0.000 C 
ATOM     12  O   UNL     1       9.009   0.088  24.286  0.00  0.00    +0.000 OA
ATOM     13  N   UNL     1       7.686   1.051  22.750  0.00  0.00    +0.000 N 
ATOM     14  C   UNL     1       8.831   1.843  22.242  0.00  0.00    +0.000 C 
ATOM     15  C   UNL     1       9.826   0.865  21.654  0.00  0.00    +0.000 C 
ATOM     16  C   UNL     1       9.194  -0.409  21.200  0.00  0.00    +0.000 C 
ATOM     17  C   UNL     1       7.781  -0.257  20.702  0.00  0.00    +0.000 C 
ATOM     18  C   UNL     1       6.878   0.427  21.698  0.00  0.00    +0.000 C 
ATOM     19  C   UNL     1       6.014  -1.656  26.864  0.00  0.00    +0.000 C 
ATOM     20  C   UNL     1       6.062  -3.156  26.690  0.00  0.00    +0.000 C 
ENDROOT
BRANCH   1  27
ATOM     21  C   UNL     1       5.979  -4.456  23.450  0.00  0.00    +0.000 A 
ATOM     22  C   UNL     1       4.567  -3.980  23.417  0.00  0.00    +0.000 A 
ATOM     23  C   UNL     1       3.386  -4.579  24.131  0.00  0.00    +0.000 A 
ATOM     24  C   UNL     1       2.851  -3.601  25.112  0.00  0.00    +0.000 C 
ATOM     25  C   UNL     1       3.936  -5.740  24.885  0.00  0.00    +0.000 A 
ATOM     26  C   UNL     1       5.197  -6.275  25.234  0.00  0.00    +0.000 A 
ATOM     27  C   UNL     1       6.239  -5.308  24.609  0.00  0.00    +0.000 A 
ENDBRANCH   1  27
BRANCH  16  28
ATOM     28  C   UNL     1       9.220  -1.425  22.314  0.00  0.00    +0.000 C 
ATOM     29  O   UNL     1       8.321  -2.231  22.463  0.00  0.00    +0.000 OA
ATOM     30  N   UNL     1      10.433  -1.652  22.874  0.00  0.00    +0.000 N 
ATOM     31  H   UNL     1      10.940  -2.226  22.293  0.00  0.00    +0.000 HD
ATOM     32  H   UNL     1      10.303  -1.947  23.782  0.00  0.00    +0.000 HD
ENDBRANCH  16  28
TORSDOF 2
ENDMDL
MODEL 6
REMARK VINA RESULT:      -7.7      2.268      6.420
REMARK  Name = 
REMARK  3 active torsions:
REMARK  status: ('A' for Active; 'I' for Inactive)
REMARK    1  A    between atoms: C_5  and  C_6
REMARK    2  A    between atoms: C_14  and  C_15
REMARK    3  A    between atoms: C_38  and  C_40
REMARK                            x       y       z     vdW  Elec       q    Type
REMARK                         _______ _______ _______ _____ _____    ______ ____
ROOT
ATOM      1  C   UNL     1       4.132  -4.351  23.930  0.00  0.00    +0.000 C 
ATOM      2  O   UNL     1       3.500  -4.901  23.048  0.00  0.00    +0.000 OA
ATOM      3  N   UNL     1       5.463  -4.564  24.129  0.00  0.00    +0.000 N 
ATOM      4  C   UNL     1       6.193  -4.887  22.882  0.00  0.00    +0.000 C 
ATOM      5  C   UNL     1       7.654  -5.136  23.141  0.00  0.00    +0.000 C 
ATOM      6  N   UNL     1       7.995  -4.668  24.490  0.00  0.00    +0.000 N 
ATOM      7  C   UNL     1       9.209  -4.149  24.719  0.00  0.00    +0.000 C 
ATOM      8  O   UNL     1      10.202  -4.815  24.824  0.00  0.00    +0.000 OA
ATOM      9  N   UNL     1       9.119  -2.889  25.178  0.00  0.00    +0.000 N 
ATOM     10  H   UNL     1       9.859  -2.708  25.763  0.00  0.00    +0.000 HD
ATOM     11  C   UNL     1       9.124  -2.032  24.154  0.00  0.00    +0.000 C 
ATOM     12  O   UNL     1       9.101  -2.391  23.004  0.00  0.00    +0.000 OA
ATOM     13  N   UNL     1       9.637  -0.834  24.529  0.00  0.00    +0.000 N 
ATOM     14  C   UNL     1      10.513  -0.155  23.545  0.00  0.00    +0.000 C 
ATOM     15  C   UNL     1       9.622   0.367  22.438  0.00  0.00    +0.000 C 
ATOM     16  C   UNL     1       8.218   0.611  22.883  0.00  0.00    +0.000 C 
ATOM     17  C   UNL     1       8.089   1.030  24.325  0.00  0.00    +0.000 C 
ATOM     18  C   UNL     1       8.762   0.073  25.277  0.00  0.00    +0.000 C 
ATOM     19  C   UNL     1       7.304  -5.364  25.571  0.00  0.00    +0.000 C 
ATOM     20  C   UNL     1       5.817  -5.382  25.298  0.00  0.00    +0.000 C 
ENDROOT
BRANCH   1  27
ATOM     21  C   UNL     1       4.182  -2.484  25.500  0.00  0.00    +0.000 A 
ATOM     22  C   UNL     1       4.275  -2.638  26.979  0.00  0.00    +0.000 A 
ATOM     23  C   UNL     1       3.405  -3.490  27.863  0.00  0.00    +0.000 A 
ATOM     24  C   UNL     1       4.231  -4.544  28.505  0.00  0.00    +0.000 C 
ATOM     25  C   UNL     1       2.442  -4.152  26.940  0.00  0.00    +0.000 A 
ATOM     26  C   UNL     1       2.260  -4.329  25.549  0.00  0.00    +0.000 A 
ATOM     27  C   UNL     1       3.450  -3.588  24.882  0.00  0.00    +0.000 A 
ENDBRANCH   1  27
BRANCH  16  28
ATOM     28  C   UNL     1       7.380  -0.621  22.649  0.00  0.00    +0.000 C 
ATOM     29  O   UNL     1       6.477  -0.931  23.404  0.00  0.00    +0.000 OA
ATOM     30  N   UNL     1       7.415  -1.126  21.393  0.00  0.00    +0.000 N 
ATOM     31  H   UNL     1       6.849  -0.591  20.828  0.00  0.00    +0.000 HD
ATOM     32  H   UNL     1       7.232  -2.070  21.434  0.00  0.00    +0.000 HD
ENDBRANCH  16  28
TORSDOF 2
ENDMDL
MODEL 7
REMARK VINA RESULT:      -7.6      3.135      6.780
REMARK  Name = 
REMARK  3 active torsions:
REMARK  status: ('A' for Active; 'I' for Inactive)
REMARK    1  A    between atoms: C_5  and  C_6
REMARK    2  A    between atoms: C_14  and  C_15
REMARK    3  A    between atoms: C_38  and  C_40
REMARK                            x       y       z     vdW  Elec       q    Type
REMARK                         _______ _______ _______ _____ _____    ______ ____
ROOT
ATOM      1  C   UNL     1       6.229  -2.440  21.951  0.00  0.00    +0.000 C 
ATOM      2  O   UNL     1       5.577  -2.788  20.984  0.00  0.00    +0.000 OA
ATOM      3  N   UNL     1       7.214  -1.501  21.880  0.00  0.00    +0.000 N 
ATOM      4  C   UNL     1       6.975  -0.485  20.831  0.00  0.00    +0.000 C 
ATOM      5  C   UNL     1       8.091   0.522  20.767  0.00  0.00    +0.000 C 
ATOM      6  N   UNL     1       8.925   0.401  21.969  0.00  0.00    +0.000 N 
ATOM      7  C   UNL     1       9.492   1.497  22.490  0.00  0.00    +0.000 C 
ATOM      8  O   UNL     1      10.457   2.030  22.014  0.00  0.00    +0.000 OA
ATOM      9  N   UNL     1       9.100   1.688  23.761  0.00  0.00    +0.000 N 
ATOM     10  H   UNL     1       9.806   2.117  24.252  0.00  0.00    +0.000 HD
ATOM     11  C   UNL     1       7.999   2.443  23.788  0.00  0.00    +0.000 C 
ATOM     12  O   UNL     1       7.418   2.783  22.789  0.00  0.00    +0.000 OA
ATOM     13  N   UNL     1       7.923   3.145  24.945  0.00  0.00    +0.000 N 
ATOM     14  C   UNL     1       7.427   4.539  24.839  0.00  0.00    +0.000 C 
ATOM     15  C   UNL     1       5.939   4.465  24.572  0.00  0.00    +0.000 C 
ATOM     16  C   UNL     1       5.317   3.203  25.072  0.00  0.00    +0.000 C 
ATOM     17  C   UNL     1       5.972   2.635  26.304  0.00  0.00    +0.000 C 
ATOM     18  C   UNL     1       7.458   2.435  26.140  0.00  0.00    +0.000 C 
ATOM     19  C   UNL     1       9.596  -0.887  22.118  0.00  0.00    +0.000 C 
ATOM     20  C   UNL     1       8.593  -2.007  21.967  0.00  0.00    +0.000 C 
ENDROOT
BRANCH   1  27
ATOM     21  C   UNL     1       6.179  -2.350  24.389  0.00  0.00    +0.000 A 
ATOM     22  C   UNL     1       7.282  -2.835  25.265  0.00  0.00    +0.000 A 
ATOM     23  C   UNL     1       7.951  -4.182  25.228  0.00  0.00    +0.000 A 
ATOM     24  C   UNL     1       9.384  -4.016  24.874  0.00  0.00    +0.000 C 
ATOM     25  C   UNL     1       7.281  -4.918  24.120  0.00  0.00    +0.000 A 
ATOM     26  C   UNL     1       6.389  -4.649  23.057  0.00  0.00    +0.000 A 
ATOM     27  C   UNL     1       6.080  -3.131  23.157  0.00  0.00    +0.000 A 
ENDBRANCH   1  27
BRANCH  16  28
ATOM     28  C   UNL     1       5.320   2.158  23.984  0.00  0.00    +0.000 C 
ATOM     29  O   UNL     1       5.433   0.974  24.237  0.00  0.00    +0.000 OA
ATOM     30  N   UNL     1       4.808   2.550  22.792  0.00  0.00    +0.000 N 
ATOM     31  H   UNL     1       3.848   2.538  22.849  0.00  0.00    +0.000 HD
ATOM     32  H   UNL     1       5.216   2.026  22.094  0.00  0.00    +0.000 HD
ENDBRANCH  16  28
TORSDOF 2
ENDMDL
MODEL 8
REMARK VINA RESULT:      -7.6      1.750      2.448
REMARK  Name = 
REMARK  3 active torsions:
REMARK  status: ('A' for Active; 'I' for Inactive)
REMARK    1  A    between atoms: C_5  and  C_6
REMARK    2  A    between atoms: C_14  and  C_15
REMARK    3  A    between atoms: C_38  and  C_40
REMARK                            x       y       z     vdW  Elec       q    Type
REMARK                         _______ _______ _______ _____ _____    ______ ____
ROOT
ATOM      1  C   UNL     1       7.808   0.095  25.326  0.00  0.00    +0.000 C 
ATOM      2  O   UNL     1       7.978   0.780  26.317  0.00  0.00    +0.000 OA
ATOM      3  N   UNL     1       8.267  -1.184  25.223  0.00  0.00    +0.000 N 
ATOM      4  C   UNL     1       8.326  -1.888  26.523  0.00  0.00    +0.000 C 
ATOM      5  C   UNL     1       8.857  -3.288  26.375  0.00  0.00    +0.000 C 
ATOM      6  N   UNL     1       8.854  -3.661  24.956  0.00  0.00    +0.000 N 
ATOM      7  C   UNL     1       8.613  -4.933  24.611  0.00  0.00    +0.000 C 
ATOM      8  O   UNL     1       9.423  -5.811  24.721  0.00  0.00    +0.000 OA
ATOM      9  N   UNL     1       7.539  -5.022  23.807  0.00  0.00    +0.000 N 
ATOM     10  H   UNL     1       7.649  -5.766  23.209  0.00  0.00    +0.000 HD
ATOM     11  C   UNL     1       6.435  -5.182  24.540  0.00  0.00    +0.000 C 
ATOM     12  O   UNL     1       6.441  -5.134  25.744  0.00  0.00    +0.000 OA
ATOM     13  N   UNL     1       5.488  -5.860  23.846  0.00  0.00    +0.000 N 
ATOM     14  C   UNL     1       4.695  -6.853  24.610  0.00  0.00    +0.000 C 
ATOM     15  C   UNL     1       3.749  -6.079  25.503  0.00  0.00    +0.000 C 
ATOM     16  C   UNL     1       3.433  -4.717  24.979  0.00  0.00    +0.000 C 
ATOM     17  C   UNL     1       3.431  -4.616  23.476  0.00  0.00    +0.000 C 
ATOM     18  C   UNL     1       4.712  -5.113  22.853  0.00  0.00    +0.000 C 
ATOM     19  C   UNL     1       9.718  -2.845  24.108  0.00  0.00    +0.000 C 
ATOM     20  C   UNL     1       9.431  -1.381  24.345  0.00  0.00    +0.000 C 
ENDROOT
BRANCH   1  27
ATOM     21  C   UNL     1       6.429  -0.175  23.331  0.00  0.00    +0.000 A 
ATOM     22  C   UNL     1       6.973  -0.273  21.947  0.00  0.00    +0.000 A 
ATOM     23  C   UNL     1       7.936   0.669  21.277  0.00  0.00    +0.000 A 
ATOM     24  C   UNL     1       9.197  -0.050  20.964  0.00  0.00    +0.000 C 
ATOM     25  C   UNL     1       8.235   1.710  22.299  0.00  0.00    +0.000 A 
ATOM     26  C   UNL     1       8.025   1.930  23.680  0.00  0.00    +0.000 A 
ATOM     27  C   UNL     1       7.256   0.678  24.181  0.00  0.00    +0.000 A 
ENDBRANCH   1  27
BRANCH  16  28
ATOM     28  C   UNL     1       4.404  -3.709  25.541  0.00  0.00    +0.000 C 
ATOM     29  O   UNL     1       4.755  -2.735  24.902  0.00  0.00    +0.000 OA
ATOM     30  N   UNL     1       4.552  -3.723  26.888  0.00  0.00    +0.000 N 
ATOM     31  H   UNL     1       3.800  -3.274  27.287  0.00  0.00    +0.000 HD
ATOM     32  H   UNL     1       5.429  -3.393  27.106  0.00  0.00    +0.000 HD
ENDBRANCH  16  28
TORSDOF 2
ENDMDL
MODEL 9
REMARK VINA RESULT:      -7.5      2.389      4.357
REMARK  Name = 
REMARK  3 active torsions:
REMARK  status: ('A' for Active; 'I' for Inactive)
REMARK    1  A    between atoms: C_5  and  C_6
REMARK    2  A    between atoms: C_14  and  C_15
REMARK    3  A    between atoms: C_38  and  C_40
REMARK                            x       y       z     vdW  Elec       q    Type
REMARK                         _______ _______ _______ _____ _____    ______ ____
ROOT
ATOM      1  C   UNL     1       8.685  -1.951  23.563  0.00  0.00    +0.000 C 
ATOM      2  O   UNL     1       9.822  -2.135  23.172  0.00  0.00    +0.000 OA
ATOM      3  N   UNL     1       7.652  -2.784  23.253  0.00  0.00    +0.000 N 
ATOM      4  C   UNL     1       8.076  -4.189  23.059  0.00  0.00    +0.000 C 
ATOM      5  C   UNL     1       6.915  -5.076  22.697  0.00  0.00    +0.000 C 
ATOM      6  N   UNL     1       5.659  -4.364  22.961  0.00  0.00    +0.000 N 
ATOM      7  C   UNL     1       4.588  -5.053  23.377  0.00  0.00    +0.000 C 
ATOM      8  O   UNL     1       3.916  -5.731  22.649  0.00  0.00    +0.000 OA
ATOM      9  N   UNL     1       4.155  -4.603  24.568  0.00  0.00    +0.000 N 
ATOM     10  H   UNL     1       3.204  -4.722  24.627  0.00  0.00    +0.000 HD
ATOM     11  C   UNL     1       4.762  -5.269  25.553  0.00  0.00    +0.000 C 
ATOM     12  O   UNL     1       5.643  -6.067  25.352  0.00  0.00    +0.000 OA
ATOM     13  N   UNL     1       3.981  -5.315  26.659  0.00  0.00    +0.000 N 
ATOM     14  C   UNL     1       3.982  -6.591  27.415  0.00  0.00    +0.000 C 
ATOM     15  C   UNL     1       5.314  -6.687  28.128  0.00  0.00    +0.000 C 
ATOM     16  C   UNL     1       5.936  -5.354  28.387  0.00  0.00    +0.000 C 
ATOM     17  C   UNL     1       4.946  -4.242  28.616  0.00  0.00    +0.000 C 
ATOM     18  C   UNL     1       3.933  -4.120  27.505  0.00  0.00    +0.000 C 
ATOM     19  C   UNL     1       5.464  -3.156  22.166  0.00  0.00    +0.000 C 
ATOM     20  C   UNL     1       6.687  -2.274  22.267  0.00  0.00    +0.000 C 
ENDROOT
BRANCH   1  27
ATOM     21  C   UNL     1       7.429   0.141  23.578  0.00  0.00    +0.000 A 
ATOM     22  C   UNL     1       8.029   1.478  23.308  0.00  0.00    +0.000 A 
ATOM     23  C   UNL     1       9.240   2.083  23.965  0.00  0.00    +0.000 A 
ATOM     24  C   UNL     1      10.304   2.289  22.951  0.00  0.00    +0.000 C 
ATOM     25  C   UNL     1       9.712   1.053  24.932  0.00  0.00    +0.000 A 
ATOM     26  C   UNL     1       9.464  -0.305  25.239  0.00  0.00    +0.000 A 
ATOM     27  C   UNL     1       8.377  -0.761  24.228  0.00  0.00    +0.000 A 
ENDBRANCH   1  27
BRANCH  16  28
ATOM     28  C   UNL     1       6.847  -4.978  27.246  0.00  0.00    +0.000 C 
ATOM     29  O   UNL     1       6.966  -3.824  26.878  0.00  0.00    +0.000 OA
ATOM     30  N   UNL     1       7.794  -5.892  26.924  0.00  0.00    +0.000 N 
ATOM     31  H   UNL     1       8.511  -5.833  27.562  0.00  0.00    +0.000 HD
ATOM     32  H   UNL     1       8.020  -5.787  25.994  0.00  0.00    +0.000 HD
ENDBRANCH  16  28
TORSDOF 2
ENDMDL
