MODEL 1
REMARK VINA RESULT:      -8.6      0.000      0.000
REMARK  Name = 
REMARK  12 active torsions:
REMARK  status: ('A' for Active; 'I' for Inactive)
REMARK    1  A    between atoms: O_2  and  C_3
REMARK    2  A    between atoms: C_8  and  C_9
REMARK    3  A    between atoms: C_9  and  C_12
REMARK    4  A    between atoms: C_12  and  C_14
REMARK    5  A    between atoms: C_12  and  N_56
REMARK    6  A    between atoms: N_16  and  C_18
REMARK    7  A    between atoms: C_18  and  C_21
REMARK    8  A    between atoms: C_22  and  C_23
REMARK    9  A    between atoms: C_32  and  C_34
REMARK   10  A    between atoms: N_36  and  C_38
REMARK   11  A    between atoms: C_47  and  O_48
REMARK   12  A    between atoms: C_58  and  C_60
REMARK                            x       y       z     vdW  Elec       q    Type
REMARK                         _______ _______ _______ _____ _____    ______ ____
ROOT
ATOM      1  C   UNL     1      10.032  -0.212  22.531  0.00  0.00    +0.000 C 
ATOM      2  C   UNL     1      10.110   0.980  22.644  0.00  0.00    +0.000 C 
ENDROOT
BRANCH   2   3
ATOM      3  C   UNL     1       9.727   1.386  23.796  0.00  0.00    +0.000 C 
ATOM      4  O   UNL     1      10.623   1.357  24.597  0.00  0.00    +0.000 OA
ATOM      5  N   UNL     1       8.741   2.276  23.799  0.00  0.00    +0.000 N 
ATOM      6  C   UNL     1       8.641   3.306  22.788  0.00  0.00    +0.000 C 
ATOM      7  C   UNL     1       7.358   4.073  22.868  0.00  0.00    +0.000 C 
ATOM      8  C   UNL     1       6.151   3.380  23.444  0.00  0.00    +0.000 C 
ATOM      9  C   UNL     1       6.411   2.329  24.439  0.00  0.00    +0.000 C 
ATOM     10  C   UNL     1       7.859   2.421  24.955  0.00  0.00    +0.000 C 
BRANCH   8  11
ATOM     11  C   UNL     1       5.265   2.971  22.286  0.00  0.00    +0.000 C 
ATOM     12  O   UNL     1       4.099   3.297  22.176  0.00  0.00    +0.000 OA
ATOM     13  N   UNL     1       5.961   2.626  21.183  0.00  0.00    +0.000 N 
ATOM     14  H   UNL     1       5.658   3.233  20.465  0.00  0.00    +0.000 HD
BRANCH  13  15
ATOM     15  C   UNL     1       5.936   1.379  20.759  0.00  0.00    +0.000 A 
ATOM     16  C   UNL     1       5.323   1.575  19.382  0.00  0.00    +0.000 A 
ATOM     17  C   UNL     1       5.864   1.125  18.082  0.00  0.00    +0.000 A 
ATOM     18  C   UNL     1       7.122   0.384  18.416  0.00  0.00    +0.000 A 
ATOM     19  C   UNL     1       7.807  -0.097  19.575  0.00  0.00    +0.000 A 
ATOM     20  C   UNL     1       6.933   0.301  20.771  0.00  0.00    +0.000 A 
BRANCH  20  21
ATOM     21  O   UNL     1       6.545  -0.813  21.625  0.00  0.00    +0.000 OA
ATOM     22  H   UNL     1       7.404  -1.152  21.892  0.00  0.00    +0.000 HD
ENDBRANCH  20  21
ENDBRANCH  13  15
ENDBRANCH   8  11
ENDBRANCH   2   3
BRANCH   1  23
ATOM     23  C   UNL     1      10.040  -1.663  22.427  0.00  0.00    +0.000 C 
BRANCH  23  26
ATOM     24  C   UNL     1       9.243  -3.378  24.053  0.00  0.00    +0.000 C 
ATOM     25  O   UNL     1       9.928  -4.236  24.671  0.00  0.00    +0.000 OA
ATOM     26  N   UNL     1       9.871  -2.288  23.688  0.00  0.00    +0.000 N 
ATOM     27  H   UNL     1      10.435  -1.992  24.448  0.00  0.00    +0.000 HD
BRANCH  24  28
ATOM     28  C   UNL     1       7.804  -3.662  23.793  0.00  0.00    +0.000 C 
BRANCH  28  29
ATOM     29  N   UNL     1       7.525  -3.695  22.370  0.00  0.00    +0.000 N 
ATOM     30  H   UNL     1       7.698  -2.950  21.786  0.00  0.00    +0.000 HD
ATOM     31  C   UNL     1       6.373  -4.267  21.907  0.00  0.00    +0.000 C 
ATOM     32  O   UNL     1       5.478  -3.501  21.537  0.00  0.00    +0.000 OA
ATOM     33  C   UNL     1       6.512  -5.628  21.281  0.00  0.00    +0.000 C 
ENDBRANCH  28  29
BRANCH  28  34
ATOM     34  C   UNL     1       7.236  -4.793  24.517  0.00  0.00    +0.000 C 
BRANCH  34  38
ATOM     35  C   UNL     1       4.755  -6.098  27.534  0.00  0.00    +0.000 A 
ATOM     36  C   UNL     1       5.922  -5.223  27.901  0.00  0.00    +0.000 A 
ATOM     37  C   UNL     1       6.699  -4.354  26.982  0.00  0.00    +0.000 A 
ATOM     38  C   UNL     1       6.093  -4.350  25.562  0.00  0.00    +0.000 A 
ATOM     39  C   UNL     1       4.692  -4.712  25.264  0.00  0.00    +0.000 A 
ATOM     40  C   UNL     1       4.046  -5.638  26.326  0.00  0.00    +0.000 A 
BRANCH  35  42
ATOM     41  H   UNL     1       4.846  -7.973  27.296  0.00  0.00    +0.000 HD
ATOM     42  O   UNL     1       5.407  -7.331  27.701  0.00  0.00    +0.000 OA
ENDBRANCH  35  42
ENDBRANCH  34  38
ENDBRANCH  28  34
ENDBRANCH  24  28
ENDBRANCH  23  26
ENDBRANCH   1  23
TORSDOF 11
ENDMDL
MODEL 2
REMARK VINA RESULT:      -8.5      2.127      7.391
REMARK  Name = 
REMARK  12 active torsions:
REMARK  status: ('A' for Active; 'I' for Inactive)
REMARK    1  A    between atoms: O_2  and  C_3
REMARK    2  A    between atoms: C_8  and  C_9
REMARK    3  A    between atoms: C_9  and  C_12
REMARK    4  A    between atoms: C_12  and  C_14
REMARK    5  A    between atoms: C_12  and  N_56
REMARK    6  A    between atoms: N_16  and  C_18
REMARK    7  A    between atoms: C_18  and  C_21
REMARK    8  A    between atoms: C_22  and  C_23
REMARK    9  A    between atoms: C_32  and  C_34
REMARK   10  A    between atoms: N_36  and  C_38
REMARK   11  A    between atoms: C_47  and  O_48
REMARK   12  A    between atoms: C_58  and  C_60
REMARK                            x       y       z     vdW  Elec       q    Type
REMARK                         _______ _______ _______ _____ _____    ______ ____
ROOT
ATOM      1  C   UNL     1       5.983   0.693  25.000  0.00  0.00    +0.000 C 
ATOM      2  C   UNL     1       5.812  -0.357  25.554  0.00  0.00    +0.000 C 
ENDROOT
BRANCH   2   3
ATOM      3  C   UNL     1       6.901  -0.847  26.015  0.00  0.00    +0.000 C 
ATOM      4  O   UNL     1       7.608   0.005  26.483  0.00  0.00    +0.000 OA
ATOM      5  N   UNL     1       6.831  -2.098  26.458  0.00  0.00    +0.000 N 
ATOM      6  C   UNL     1       5.663  -2.598  27.149  0.00  0.00    +0.000 C 
ATOM      7  C   UNL     1       5.719  -4.075  27.387  0.00  0.00    +0.000 C 
ATOM      8  C   UNL     1       6.519  -4.918  26.429  0.00  0.00    +0.000 C 
ATOM      9  C   UNL     1       7.661  -4.263  25.775  0.00  0.00    +0.000 C 
ATOM     10  C   UNL     1       8.017  -2.951  26.498  0.00  0.00    +0.000 C 
BRANCH   8  11
ATOM     11  C   UNL     1       5.541  -5.599  25.495  0.00  0.00    +0.000 C 
ATOM     12  O   UNL     1       5.116  -6.726  25.663  0.00  0.00    +0.000 OA
ATOM     13  N   UNL     1       4.831  -4.730  24.746  0.00  0.00    +0.000 N 
ATOM     14  H   UNL     1       3.880  -4.900  24.954  0.00  0.00    +0.000 HD
BRANCH  13  15
ATOM     15  C   UNL     1       5.008  -4.697  23.441  0.00  0.00    +0.000 A 
ATOM     16  C   UNL     1       5.192  -3.203  23.232  0.00  0.00    +0.000 A 
ATOM     17  C   UNL     1       6.317  -2.519  22.560  0.00  0.00    +0.000 A 
ATOM     18  C   UNL     1       7.212  -3.618  22.077  0.00  0.00    +0.000 A 
ATOM     19  C   UNL     1       7.197  -5.044  21.969  0.00  0.00    +0.000 A 
ATOM     20  C   UNL     1       5.838  -5.489  22.527  0.00  0.00    +0.000 A 
BRANCH  20  21
ATOM     21  O   UNL     1       5.049  -6.294  21.604  0.00  0.00    +0.000 OA
ATOM     22  H   UNL     1       5.367  -5.972  20.756  0.00  0.00    +0.000 HD
ENDBRANCH  20  21
ENDBRANCH  13  15
ENDBRANCH   8  11
ENDBRANCH   2   3
BRANCH   1  23
ATOM     23  C   UNL     1       6.169   2.015  24.420  0.00  0.00    +0.000 C 
BRANCH  23  26
ATOM     24  C   UNL     1       8.480   2.750  23.838  0.00  0.00    +0.000 C 
ATOM     25  O   UNL     1       8.946   3.920  23.854  0.00  0.00    +0.000 OA
ATOM     26  N   UNL     1       7.476   2.515  24.645  0.00  0.00    +0.000 N 
ATOM     27  H   UNL     1       7.683   2.934  25.520  0.00  0.00    +0.000 HD
BRANCH  24  28
ATOM     28  C   UNL     1       9.093   1.746  22.923  0.00  0.00    +0.000 C 
BRANCH  28  29
ATOM     29  N   UNL     1       8.917   0.400  23.431  0.00  0.00    +0.000 N 
ATOM     30  H   UNL     1       8.274   0.177  24.110  0.00  0.00    +0.000 HD
ATOM     31  C   UNL     1      10.006  -0.389  23.680  0.00  0.00    +0.000 C 
ATOM     32  O   UNL     1      10.326  -0.542  24.863  0.00  0.00    +0.000 OA
ATOM     33  C   UNL     1      10.288  -1.471  22.674  0.00  0.00    +0.000 C 
ENDBRANCH  28  29
BRANCH  28  34
ATOM     34  C   UNL     1       8.751   1.878  21.512  0.00  0.00    +0.000 C 
BRANCH  34  38
ATOM     35  C   UNL     1       6.274   0.798  18.403  0.00  0.00    +0.000 A 
ATOM     36  C   UNL     1       7.303  -0.194  18.870  0.00  0.00    +0.000 A 
ATOM     37  C   UNL     1       8.022  -0.178  20.170  0.00  0.00    +0.000 A 
ATOM     38  C   UNL     1       7.504   0.951  21.086  0.00  0.00    +0.000 A 
ATOM     39  C   UNL     1       6.177   1.584  20.943  0.00  0.00    +0.000 A 
ATOM     40  C   UNL     1       5.586   1.483  19.513  0.00  0.00    +0.000 A 
BRANCH  35  42
ATOM     41  H   UNL     1       7.245   0.721  16.782  0.00  0.00    +0.000 HD
ATOM     42  O   UNL     1       7.060   1.402  17.408  0.00  0.00    +0.000 OA
ENDBRANCH  35  42
ENDBRANCH  34  38
ENDBRANCH  28  34
ENDBRANCH  24  28
ENDBRANCH  23  26
ENDBRANCH   1  23
TORSDOF 11
ENDMDL
MODEL 3
REMARK VINA RESULT:      -8.3      2.094      7.844
REMARK  Name = 
REMARK  12 active torsions:
REMARK  status: ('A' for Active; 'I' for Inactive)
REMARK    1  A    between atoms: O_2  and  C_3
REMARK    2  A    between atoms: C_8  and  C_9
REMARK    3  A    between atoms: C_9  and  C_12
REMARK    4  A    between atoms: C_12  and  C_14
REMARK    5  A    between atoms: C_12  and  N_56
REMARK    6  A    between atoms: N_16  and  C_18
REMARK    7  A    between atoms: C_18  and  C_21
REMARK    8  A    between atoms: C_22  and  C_23
REMARK    9  A    between atoms: C_32  and  C_34
REMARK   10  A    between atoms: N_36  and  C_38
REMARK   11  A    between atoms: C_47  and  O_48
REMARK   12  A    between atoms: C_58  and  C_60
REMARK                            x       y       z     vdW  Elec       q    Type
REMARK                         _______ _______ _______ _____ _____    ______ ____
ROOT
ATOM      1  C   UNL     1       8.538  -0.088  24.617  0.00  0.00    +0.000 C 
ATOM      2  C   UNL     1       8.234  -1.110  24.067  0.00  0.00    +0.000 C 
ENDROOT
BRANCH   2   3
ATOM      3  C   UNL     1       9.162  -1.991  24.129  0.00  0.00    +0.000 C 
ATOM      4  O   UNL     1      10.248  -1.505  23.955  0.00  0.00    +0.000 OA
ATOM      5  N   UNL     1       8.919  -3.034  24.913  0.00  0.00    +0.000 N 
ATOM      6  C   UNL     1       8.202  -2.899  26.162  0.00  0.00    +0.000 C 
ATOM      7  C   UNL     1       7.871  -4.219  26.787  0.00  0.00    +0.000 C 
ATOM      8  C   UNL     1       7.708  -5.412  25.882  0.00  0.00    +0.000 C 
ATOM      9  C   UNL     1       8.477  -5.394  24.628  0.00  0.00    +0.000 C 
ATOM     10  C   UNL     1       9.578  -4.319  24.686  0.00  0.00    +0.000 C 
BRANCH   8  11
ATOM     11  C   UNL     1       6.223  -5.666  25.728  0.00  0.00    +0.000 C 
ATOM     12  O   UNL     1       5.603  -6.480  26.385  0.00  0.00    +0.000 OA
ATOM     13  N   UNL     1       5.564  -4.633  25.164  0.00  0.00    +0.000 N 
ATOM     14  H   UNL     1       4.876  -4.356  25.816  0.00  0.00    +0.000 HD
BRANCH  13  15
ATOM     15  C   UNL     1       5.023  -4.776  23.971  0.00  0.00    +0.000 A 
ATOM     16  C   UNL     1       5.289  -3.398  23.387  0.00  0.00    +0.000 A 
ATOM     17  C   UNL     1       5.971  -3.074  22.118  0.00  0.00    +0.000 A 
ATOM     18  C   UNL     1       6.298  -4.398  21.499  0.00  0.00    +0.000 A 
ATOM     19  C   UNL     1       6.015  -5.782  21.717  0.00  0.00    +0.000 A 
ATOM     20  C   UNL     1       5.112  -5.833  22.956  0.00  0.00    +0.000 A 
BRANCH  20  21
ATOM     21  O   UNL     1       3.844  -6.517  22.744  0.00  0.00    +0.000 OA
ATOM     22  H   UNL     1       3.399  -5.905  22.151  0.00  0.00    +0.000 HD
ENDBRANCH  20  21
ENDBRANCH  13  15
ENDBRANCH   8  11
ENDBRANCH   2   3
BRANCH   1  23
ATOM     23  C   UNL     1       8.860   1.114  25.371  0.00  0.00    +0.000 C 
BRANCH  23  26
ATOM     24  C   UNL     1       9.241   3.112  23.929  0.00  0.00    +0.000 C 
ATOM     25  O   UNL     1       9.830   4.184  24.231  0.00  0.00    +0.000 OA
ATOM     26  N   UNL     1       9.598   2.045  24.599  0.00  0.00    +0.000 N 
ATOM     27  H   UNL     1      10.588   2.044  24.665  0.00  0.00    +0.000 HD
BRANCH  24  28
ATOM     28  C   UNL     1       8.207   3.140  22.855  0.00  0.00    +0.000 C 
BRANCH  28  29
ATOM     29  N   UNL     1       7.761   4.495  22.593  0.00  0.00    +0.000 N 
ATOM     30  H   UNL     1       8.369   5.221  22.420  0.00  0.00    +0.000 HD
ATOM     31  C   UNL     1       6.738   5.036  23.321  0.00  0.00    +0.000 C 
ATOM     32  O   UNL     1       7.044   5.859  24.190  0.00  0.00    +0.000 OA
ATOM     33  C   UNL     1       5.405   5.126  22.629  0.00  0.00    +0.000 C 
ENDBRANCH  28  29
BRANCH  28  34
ATOM     34  C   UNL     1       8.527   2.396  21.644  0.00  0.00    +0.000 C 
BRANCH  34  38
ATOM     35  C   UNL     1       6.362   0.721  18.566  0.00  0.00    +0.000 A 
ATOM     36  C   UNL     1       7.447  -0.104  19.203  0.00  0.00    +0.000 A 
ATOM     37  C   UNL     1       8.078   0.135  20.526  0.00  0.00    +0.000 A 
ATOM     38  C   UNL     1       7.400   1.306  21.271  0.00  0.00    +0.000 A 
ATOM     39  C   UNL     1       6.032   1.783  20.982  0.00  0.00    +0.000 A 
ATOM     40  C   UNL     1       5.544   1.457  19.547  0.00  0.00    +0.000 A 
BRANCH  35  42
ATOM     41  H   UNL     1       7.337   2.162  17.825  0.00  0.00    +0.000 HD
ATOM     42  O   UNL     1       7.150   1.280  17.546  0.00  0.00    +0.000 OA
ENDBRANCH  35  42
ENDBRANCH  34  38
ENDBRANCH  28  34
ENDBRANCH  24  28
ENDBRANCH  23  26
ENDBRANCH   1  23
TORSDOF 11
ENDMDL
MODEL 4
REMARK VINA RESULT:      -8.3      2.210      4.725
REMARK  Name = 
REMARK  12 active torsions:
REMARK  status: ('A' for Active; 'I' for Inactive)
REMARK    1  A    between atoms: O_2  and  C_3
REMARK    2  A    between atoms: C_8  and  C_9
REMARK    3  A    between atoms: C_9  and  C_12
REMARK    4  A    between atoms: C_12  and  C_14
REMARK    5  A    between atoms: C_12  and  N_56
REMARK    6  A    between atoms: N_16  and  C_18
REMARK    7  A    between atoms: C_18  and  C_21
REMARK    8  A    between atoms: C_22  and  C_23
REMARK    9  A    between atoms: C_32  and  C_34
REMARK   10  A    between atoms: N_36  and  C_38
REMARK   11  A    between atoms: C_47  and  O_48
REMARK   12  A    between atoms: C_58  and  C_60
REMARK                            x       y       z     vdW  Elec       q    Type
REMARK                         _______ _______ _______ _____ _____    ______ ____
ROOT
ATOM      1  C   UNL     1       8.885  -3.183  25.057  0.00  0.00    +0.000 C 
ATOM      2  C   UNL     1       8.660  -2.145  24.500  0.00  0.00    +0.000 C 
ENDROOT
BRANCH   2   3
ATOM      3  C   UNL     1       9.440  -1.947  23.503  0.00  0.00    +0.000 C 
ATOM      4  O   UNL     1      10.331  -2.753  23.471  0.00  0.00    +0.000 OA
ATOM      5  N   UNL     1       8.883  -1.394  22.432  0.00  0.00    +0.000 N 
ATOM      6  C   UNL     1       7.534  -1.716  22.022  0.00  0.00    +0.000 C 
ATOM      7  C   UNL     1       7.041  -0.842  20.912  0.00  0.00    +0.000 C 
ATOM      8  C   UNL     1       7.618   0.545  20.791  0.00  0.00    +0.000 C 
ATOM      9  C   UNL     1       8.992   0.729  21.281  0.00  0.00    +0.000 C 
ATOM     10  C   UNL     1       9.683  -0.634  21.474  0.00  0.00    +0.000 C 
BRANCH   8  11
ATOM     11  C   UNL     1       6.596   1.513  21.349  0.00  0.00    +0.000 C 
ATOM     12  O   UNL     1       5.804   2.133  20.665  0.00  0.00    +0.000 OA
ATOM     13  N   UNL     1       6.314   1.294  22.651  0.00  0.00    +0.000 N 
ATOM     14  H   UNL     1       5.343   1.120  22.697  0.00  0.00    +0.000 HD
BRANCH  13  15
ATOM     15  C   UNL     1       6.656   2.191  23.553  0.00  0.00    +0.000 A 
ATOM     16  C   UNL     1       7.484   1.328  24.491  0.00  0.00    +0.000 A 
ATOM     17  C   UNL     1       8.869   1.566  24.947  0.00  0.00    +0.000 A 
ATOM     18  C   UNL     1       9.266   2.872  24.332  0.00  0.00    +0.000 A 
ATOM     19  C   UNL     1       8.660   3.940  23.600  0.00  0.00    +0.000 A 
ATOM     20  C   UNL     1       7.182   3.557  23.451  0.00  0.00    +0.000 A 
BRANCH  20  21
ATOM     21  O   UNL     1       6.252   4.557  23.959  0.00  0.00    +0.000 OA
ATOM     22  H   UNL     1       6.592   4.694  24.848  0.00  0.00    +0.000 HD
ENDBRANCH  20  21
ENDBRANCH  13  15
ENDBRANCH   8  11
ENDBRANCH   2   3
BRANCH   1  23
ATOM     23  C   UNL     1       9.084  -4.487  25.670  0.00  0.00    +0.000 C 
BRANCH  23  26
ATOM     24  C   UNL     1       7.319  -5.471  27.133  0.00  0.00    +0.000 C 
ATOM     25  O   UNL     1       7.475  -6.175  28.166  0.00  0.00    +0.000 OA
ATOM     26  N   UNL     1       8.297  -4.651  26.838  0.00  0.00    +0.000 N 
ATOM     27  H   UNL     1       8.589  -4.210  27.677  0.00  0.00    +0.000 HD
BRANCH  24  28
ATOM     28  C   UNL     1       6.063  -5.620  26.346  0.00  0.00    +0.000 C 
BRANCH  28  29
ATOM     29  N   UNL     1       5.297  -6.767  26.795  0.00  0.00    +0.000 N 
ATOM     30  H   UNL     1       5.295  -7.609  26.330  0.00  0.00    +0.000 HD
ATOM     31  C   UNL     1       4.024  -6.602  27.266  0.00  0.00    +0.000 C 
ATOM     32  O   UNL     1       3.102  -6.936  26.515  0.00  0.00    +0.000 OA
ATOM     33  C   UNL     1       3.852  -6.684  28.758  0.00  0.00    +0.000 C 
ENDBRANCH  28  29
BRANCH  28  34
ATOM     34  C   UNL     1       5.259  -4.414  26.194  0.00  0.00    +0.000 C 
BRANCH  34  38
ATOM     35  C   UNL     1       3.556  -6.078  22.834  0.00  0.00    +0.000 A 
ATOM     36  C   UNL     1       2.760  -5.061  23.604  0.00  0.00    +0.000 A 
ATOM     37  C   UNL     1       3.291  -4.084  24.588  0.00  0.00    +0.000 A 
ATOM     38  C   UNL     1       4.832  -4.141  24.665  0.00  0.00    +0.000 A 
ATOM     39  C   UNL     1       5.690  -4.682  23.590  0.00  0.00    +0.000 A 
ATOM     40  C   UNL     1       4.972  -5.700  22.668  0.00  0.00    +0.000 A 
BRANCH  35  42
ATOM     41  H   UNL     1       2.273  -6.938  23.925  0.00  0.00    +0.000 HD
ATOM     42  O   UNL     1       3.067  -7.216  23.497  0.00  0.00    +0.000 OA
ENDBRANCH  35  42
ENDBRANCH  34  38
ENDBRANCH  28  34
ENDBRANCH  24  28
ENDBRANCH  23  26
ENDBRANCH   1  23
TORSDOF 11
ENDMDL
MODEL 5
REMARK VINA RESULT:      -8.2      1.967      7.269
REMARK  Name = 
REMARK  12 active torsions:
REMARK  status: ('A' for Active; 'I' for Inactive)
REMARK    1  A    between atoms: O_2  and  C_3
REMARK    2  A    between atoms: C_8  and  C_9
REMARK    3  A    between atoms: C_9  and  C_12
REMARK    4  A    between atoms: C_12  and  C_14
REMARK    5  A    between atoms: C_12  and  N_56
REMARK    6  A    between atoms: N_16  and  C_18
REMARK    7  A    between atoms: C_18  and  C_21
REMARK    8  A    between atoms: C_22  and  C_23
REMARK    9  A    between atoms: C_32  and  C_34
REMARK   10  A    between atoms: N_36  and  C_38
REMARK   11  A    between atoms: C_47  and  O_48
REMARK   12  A    between atoms: C_58  and  C_60
REMARK                            x       y       z     vdW  Elec       q    Type
REMARK                         _______ _______ _______ _____ _____    ______ ____
ROOT
ATOM      1  C   UNL     1       9.622  -1.389  23.548  0.00  0.00    +0.000 C 
ATOM      2  C   UNL     1       8.925  -2.353  23.388  0.00  0.00    +0.000 C 
ENDROOT
BRANCH   2   3
ATOM      3  C   UNL     1       9.275  -3.336  24.131  0.00  0.00    +0.000 C 
ATOM      4  O   UNL     1      10.470  -3.459  24.172  0.00  0.00    +0.000 OA
ATOM      5  N   UNL     1       8.452  -3.626  25.133  0.00  0.00    +0.000 N 
ATOM      6  C   UNL     1       7.756  -2.596  25.871  0.00  0.00    +0.000 C 
ATOM      7  C   UNL     1       6.740  -3.149  26.821  0.00  0.00    +0.000 C 
ATOM      8  C   UNL     1       6.112  -4.479  26.494  0.00  0.00    +0.000 C 
ATOM      9  C   UNL     1       6.930  -5.414  25.707  0.00  0.00    +0.000 C 
ATOM     10  C   UNL     1       8.404  -4.971  25.704  0.00  0.00    +0.000 C 
BRANCH   8  11
ATOM     11  C   UNL     1       4.729  -4.205  25.942  0.00  0.00    +0.000 C 
ATOM     12  O   UNL     1       3.705  -4.326  26.587  0.00  0.00    +0.000 OA
ATOM     13  N   UNL     1       4.739  -3.392  24.865  0.00  0.00    +0.000 N 
ATOM     14  H   UNL     1       4.183  -2.611  25.105  0.00  0.00    +0.000 HD
BRANCH  13  15
ATOM     15  C   UNL     1       4.376  -3.861  23.689  0.00  0.00    +0.000 A 
ATOM     16  C   UNL     1       5.316  -3.080  22.786  0.00  0.00    +0.000 A 
ATOM     17  C   UNL     1       6.252  -3.619  21.778  0.00  0.00    +0.000 A 
ATOM     18  C   UNL     1       6.037  -5.100  21.796  0.00  0.00    +0.000 A 
ATOM     19  C   UNL     1       5.134  -6.046  22.374  0.00  0.00    +0.000 A 
ATOM     20  C   UNL     1       4.131  -5.219  23.189  0.00  0.00    +0.000 A 
BRANCH  20  21
ATOM     21  O   UNL     1       2.738  -5.442  22.826  0.00  0.00    +0.000 OA
ATOM     22  H   UNL     1       2.285  -5.067  23.586  0.00  0.00    +0.000 HD
ENDBRANCH  20  21
ENDBRANCH  13  15
ENDBRANCH   8  11
ENDBRANCH   2   3
BRANCH   1  23
ATOM     23  C   UNL     1      10.395  -0.187  23.814  0.00  0.00    +0.000 C 
BRANCH  23  26
ATOM     24  C   UNL     1       8.590   1.020  25.041  0.00  0.00    +0.000 C 
ATOM     25  O   UNL     1       8.076   0.721  26.152  0.00  0.00    +0.000 OA
ATOM     26  N   UNL     1       9.815   0.603  24.838  0.00  0.00    +0.000 N 
ATOM     27  H   UNL     1      10.335   0.772  25.666  0.00  0.00    +0.000 HD
BRANCH  24  28
ATOM     28  C   UNL     1       7.783   1.807  24.067  0.00  0.00    +0.000 C 
BRANCH  28  29
ATOM     29  N   UNL     1       8.575   2.859  23.460  0.00  0.00    +0.000 N 
ATOM     30  H   UNL     1       9.519   2.772  23.292  0.00  0.00    +0.000 HD
ATOM     31  C   UNL     1       8.385   4.163  23.827  0.00  0.00    +0.000 C 
ATOM     32  O   UNL     1       9.235   4.665  24.570  0.00  0.00    +0.000 OA
ATOM     33  C   UNL     1       7.628   5.023  22.852  0.00  0.00    +0.000 C 
ENDBRANCH  28  29
BRANCH  28  34
ATOM     34  C   UNL     1       7.019   1.031  23.097  0.00  0.00    +0.000 C 
BRANCH  34  38
ATOM     35  C   UNL     1       6.276   0.154  19.143  0.00  0.00    +0.000 A 
ATOM     36  C   UNL     1       5.660   1.397  19.723  0.00  0.00    +0.000 A 
ATOM     37  C   UNL     1       6.079   2.094  20.966  0.00  0.00    +0.000 A 
ATOM     38  C   UNL     1       7.342   1.450  21.575  0.00  0.00    +0.000 A 
ATOM     39  C   UNL     1       8.296   0.622  20.808  0.00  0.00    +0.000 A 
ATOM     40  C   UNL     1       7.679  -0.040  19.550  0.00  0.00    +0.000 A 
BRANCH  35  42
ATOM     41  H   UNL     1       4.427  -0.169  19.382  0.00  0.00    +0.000 HD
ATOM     42  O   UNL     1       5.201  -0.710  19.411  0.00  0.00    +0.000 OA
ENDBRANCH  35  42
ENDBRANCH  34  38
ENDBRANCH  28  34
ENDBRANCH  24  28
ENDBRANCH  23  26
ENDBRANCH   1  23
TORSDOF 11
ENDMDL
MODEL 6
REMARK VINA RESULT:      -8.2      2.152      4.331
REMARK  Name = 
REMARK  12 active torsions:
REMARK  status: ('A' for Active; 'I' for Inactive)
REMARK    1  A    between atoms: O_2  and  C_3
REMARK    2  A    between atoms: C_8  and  C_9
REMARK    3  A    between atoms: C_9  and  C_12
REMARK    4  A    between atoms: C_12  and  C_14
REMARK    5  A    between atoms: C_12  and  N_56
REMARK    6  A    between atoms: N_16  and  C_18
REMARK    7  A    between atoms: C_18  and  C_21
REMARK    8  A    between atoms: C_22  and  C_23
REMARK    9  A    between atoms: C_32  and  C_34
REMARK   10  A    between atoms: N_36  and  C_38
REMARK   11  A    between atoms: C_47  and  O_48
REMARK   12  A    between atoms: C_58  and  C_60
REMARK                            x       y       z     vdW  Elec       q    Type
REMARK                         _______ _______ _______ _____ _____    ______ ____
ROOT
ATOM      1  C   UNL     1       8.557  -3.283  25.462  0.00  0.00    +0.000 C 
ATOM      2  C   UNL     1       8.516  -2.248  24.856  0.00  0.00    +0.000 C 
ENDROOT
BRANCH   2   3
ATOM      3  C   UNL     1       9.333  -2.227  23.870  0.00  0.00    +0.000 C 
ATOM      4  O   UNL     1      10.157  -3.098  23.959  0.00  0.00    +0.000 OA
ATOM      5  N   UNL     1       8.848  -1.761  22.725  0.00  0.00    +0.000 N 
ATOM      6  C   UNL     1       7.487  -2.024  22.310  0.00  0.00    +0.000 C 
ATOM      7  C   UNL     1       7.092  -1.249  21.092  0.00  0.00    +0.000 C 
ATOM      8  C   UNL     1       7.781   0.066  20.834  0.00  0.00    +0.000 C 
ATOM      9  C   UNL     1       9.153   0.200  21.345  0.00  0.00    +0.000 C 
ATOM     10  C   UNL     1       9.728  -1.180  21.714  0.00  0.00    +0.000 C 
BRANCH   8  11
ATOM     11  C   UNL     1       6.826   1.168  21.245  0.00  0.00    +0.000 C 
ATOM     12  O   UNL     1       6.125   1.783  20.466  0.00  0.00    +0.000 OA
ATOM     13  N   UNL     1       6.469   1.102  22.545  0.00  0.00    +0.000 N 
ATOM     14  H   UNL     1       5.485   1.017  22.556  0.00  0.00    +0.000 HD
BRANCH  13  15
ATOM     15  C   UNL     1       6.849   2.050  23.376  0.00  0.00    +0.000 A 
ATOM     16  C   UNL     1       7.428   1.207  24.500  0.00  0.00    +0.000 A 
ATOM     17  C   UNL     1       8.777   1.302  25.095  0.00  0.00    +0.000 A 
ATOM     18  C   UNL     1       9.436   2.447  24.391  0.00  0.00    +0.000 A 
ATOM     19  C   UNL     1       9.086   3.487  23.475  0.00  0.00    +0.000 A 
ATOM     20  C   UNL     1       7.590   3.303  23.188  0.00  0.00    +0.000 A 
BRANCH  20  21
ATOM     21  O   UNL     1       6.780   4.482  23.462  0.00  0.00    +0.000 OA
ATOM     22  H   UNL     1       6.066   4.101  23.981  0.00  0.00    +0.000 HD
ENDBRANCH  20  21
ENDBRANCH  13  15
ENDBRANCH   8  11
ENDBRANCH   2   3
BRANCH   1  23
ATOM     23  C   UNL     1       8.528  -4.572  26.134  0.00  0.00    +0.000 C 
BRANCH  23  26
ATOM     24  C   UNL     1       6.253  -5.590  26.038  0.00  0.00    +0.000 C 
ATOM     25  O   UNL     1       5.813  -6.565  26.703  0.00  0.00    +0.000 OA
ATOM     26  N   UNL     1       7.227  -4.907  26.587  0.00  0.00    +0.000 N 
ATOM     27  H   UNL     1       7.003  -4.771  27.543  0.00  0.00    +0.000 HD
BRANCH  24  28
ATOM     28  C   UNL     1       5.644  -5.294  24.710  0.00  0.00    +0.000 C 
BRANCH  28  29
ATOM     29  N   UNL     1       6.207  -6.140  23.676  0.00  0.00    +0.000 N 
ATOM     30  H   UNL     1       6.582  -7.008  23.857  0.00  0.00    +0.000 HD
ATOM     31  C   UNL     1       6.987  -5.599  22.692  0.00  0.00    +0.000 C 
ATOM     32  O   UNL     1       8.205  -5.783  22.780  0.00  0.00    +0.000 OA
ATOM     33  C   UNL     1       6.341  -5.440  21.343  0.00  0.00    +0.000 C 
ENDBRANCH  28  29
BRANCH  28  34
ATOM     34  C   UNL     1       4.188  -5.234  24.676  0.00  0.00    +0.000 C 
BRANCH  34  38
ATOM     35  C   UNL     1       4.681  -1.838  26.953  0.00  0.00    +0.000 A 
ATOM     36  C   UNL     1       5.066  -1.781  25.500  0.00  0.00    +0.000 A 
ATOM     37  C   UNL     1       4.639  -2.724  24.435  0.00  0.00    +0.000 A 
ATOM     38  C   UNL     1       3.621  -3.755  24.970  0.00  0.00    +0.000 A 
ATOM     39  C   UNL     1       2.796  -3.547  26.178  0.00  0.00    +0.000 A 
ATOM     40  C   UNL     1       3.406  -2.541  27.187  0.00  0.00    +0.000 A 
BRANCH  35  42
ATOM     41  H   UNL     1       6.441  -2.483  26.697  0.00  0.00    +0.000 HD
ATOM     42  O   UNL     1       5.942  -2.207  27.449  0.00  0.00    +0.000 OA
ENDBRANCH  35  42
ENDBRANCH  34  38
ENDBRANCH  28  34
ENDBRANCH  24  28
ENDBRANCH  23  26
ENDBRANCH   1  23
TORSDOF 11
ENDMDL
MODEL 7
REMARK VINA RESULT:      -8.1      2.545      4.327
REMARK  Name = 
REMARK  12 active torsions:
REMARK  status: ('A' for Active; 'I' for Inactive)
REMARK    1  A    between atoms: O_2  and  C_3
REMARK    2  A    between atoms: C_8  and  C_9
REMARK    3  A    between atoms: C_9  and  C_12
REMARK    4  A    between atoms: C_12  and  C_14
REMARK    5  A    between atoms: C_12  and  N_56
REMARK    6  A    between atoms: N_16  and  C_18
REMARK    7  A    between atoms: C_18  and  C_21
REMARK    8  A    between atoms: C_22  and  C_23
REMARK    9  A    between atoms: C_32  and  C_34
REMARK   10  A    between atoms: N_36  and  C_38
REMARK   11  A    between atoms: C_47  and  O_48
REMARK   12  A    between atoms: C_58  and  C_60
REMARK                            x       y       z     vdW  Elec       q    Type
REMARK                         _______ _______ _______ _____ _____    ______ ____
ROOT
ATOM      1  C   UNL     1       8.902  -3.607  25.513  0.00  0.00    +0.000 C 
ATOM      2  C   UNL     1       8.897  -2.474  25.120  0.00  0.00    +0.000 C 
ENDROOT
BRANCH   2   3
ATOM      3  C   UNL     1       7.894  -1.810  25.560  0.00  0.00    +0.000 C 
ATOM      4  O   UNL     1       7.480  -2.265  26.593  0.00  0.00    +0.000 OA
ATOM      5  N   UNL     1       7.865  -0.522  25.237  0.00  0.00    +0.000 N 
ATOM      6  C   UNL     1       9.070   0.276  25.173  0.00  0.00    +0.000 C 
ATOM      7  C   UNL     1       8.832   1.640  24.605  0.00  0.00    +0.000 C 
ATOM      8  C   UNL     1       7.686   1.819  23.643  0.00  0.00    +0.000 C 
ATOM      9  C   UNL     1       6.541   0.912  23.810  0.00  0.00    +0.000 C 
ATOM     10  C   UNL     1       6.603   0.213  25.181  0.00  0.00    +0.000 C 
BRANCH   8  11
ATOM     11  C   UNL     1       8.270   1.875  22.247  0.00  0.00    +0.000 C 
ATOM     12  O   UNL     1       8.427   2.904  21.618  0.00  0.00    +0.000 OA
ATOM     13  N   UNL     1       9.017   0.794  21.940  0.00  0.00    +0.000 N 
ATOM     14  H   UNL     1       9.918   1.135  21.721  0.00  0.00    +0.000 HD
BRANCH  13  15
ATOM     15  C   UNL     1       8.609  -0.038  21.004  0.00  0.00    +0.000 A 
ATOM     16  C   UNL     1       8.711  -1.357  21.752  0.00  0.00    +0.000 A 
ATOM     17  C   UNL     1       7.652  -2.370  21.940  0.00  0.00    +0.000 A 
ATOM     18  C   UNL     1       6.469  -1.845  21.187  0.00  0.00    +0.000 A 
ATOM     19  C   UNL     1       6.160  -0.783  20.281  0.00  0.00    +0.000 A 
ATOM     20  C   UNL     1       7.472  -0.015  20.076  0.00  0.00    +0.000 A 
BRANCH  20  21
ATOM     21  O   UNL     1       7.884   0.103  18.684  0.00  0.00    +0.000 OA
ATOM     22  H   UNL     1       7.114  -0.252  18.231  0.00  0.00    +0.000 HD
ENDBRANCH  20  21
ENDBRANCH  13  15
ENDBRANCH   8  11
ENDBRANCH   2   3
BRANCH   1  23
ATOM     23  C   UNL     1       8.970  -4.949  26.069  0.00  0.00    +0.000 C 
BRANCH  23  26
ATOM     24  C   UNL     1       7.099  -5.861  27.443  0.00  0.00    +0.000 C 
ATOM     25  O   UNL     1       7.175  -6.603  28.459  0.00  0.00    +0.000 OA
ATOM     26  N   UNL     1       8.135  -5.097  27.206  0.00  0.00    +0.000 N 
ATOM     27  H   UNL     1       8.425  -4.699  28.067  0.00  0.00    +0.000 HD
BRANCH  24  28
ATOM     28  C   UNL     1       5.863  -5.909  26.611  0.00  0.00    +0.000 C 
BRANCH  28  29
ATOM     29  N   UNL     1       4.997  -6.997  27.022  0.00  0.00    +0.000 N 
ATOM     30  H   UNL     1       5.113  -7.901  26.715  0.00  0.00    +0.000 HD
ATOM     31  C   UNL     1       3.646  -6.806  27.109  0.00  0.00    +0.000 C 
ATOM     32  O   UNL     1       2.955  -7.287  26.205  0.00  0.00    +0.000 OA
ATOM     33  C   UNL     1       3.083  -6.659  28.496  0.00  0.00    +0.000 C 
ENDBRANCH  28  29
BRANCH  28  34
ATOM     34  C   UNL     1       5.159  -4.644  26.445  0.00  0.00    +0.000 C 
BRANCH  34  38
ATOM     35  C   UNL     1       3.734  -5.991  22.824  0.00  0.00    +0.000 A 
ATOM     36  C   UNL     1       2.932  -4.954  23.561  0.00  0.00    +0.000 A 
ATOM     37  C   UNL     1       3.418  -4.074  24.655  0.00  0.00    +0.000 A 
ATOM     38  C   UNL     1       4.932  -4.259  24.897  0.00  0.00    +0.000 A 
ATOM     39  C   UNL     1       5.864  -4.812  23.893  0.00  0.00    +0.000 A 
ATOM     40  C   UNL     1       5.183  -5.720  22.838  0.00  0.00    +0.000 A 
BRANCH  35  42
ATOM     41  H   UNL     1       2.256  -6.807  23.678  0.00  0.00    +0.000 HD
ATOM     42  O   UNL     1       3.088  -7.118  23.359  0.00  0.00    +0.000 OA
ENDBRANCH  35  42
ENDBRANCH  34  38
ENDBRANCH  28  34
ENDBRANCH  24  28
ENDBRANCH  23  26
ENDBRANCH   1  23
TORSDOF 11
ENDMDL
MODEL 8
REMARK VINA RESULT:      -8.1      2.273      4.337
REMARK  Name = 
REMARK  12 active torsions:
REMARK  status: ('A' for Active; 'I' for Inactive)
REMARK    1  A    between atoms: O_2  and  C_3
REMARK    2  A    between atoms: C_8  and  C_9
REMARK    3  A    between atoms: C_9  and  C_12
REMARK    4  A    between atoms: C_12  and  C_14
REMARK    5  A    between atoms: C_12  and  N_56
REMARK    6  A    between atoms: N_16  and  C_18
REMARK    7  A    between atoms: C_18  and  C_21
REMARK    8  A    between atoms: C_22  and  C_23
REMARK    9  A    between atoms: C_32  and  C_34
REMARK   10  A    between atoms: N_36  and  C_38
REMARK   11  A    between atoms: C_47  and  O_48
REMARK   12  A    between atoms: C_58  and  C_60
REMARK                            x       y       z     vdW  Elec       q    Type
REMARK                         _______ _______ _______ _____ _____    ______ ____
ROOT
ATOM      1  C   UNL     1       6.722  -1.751  21.544  0.00  0.00    +0.000 C 
ATOM      2  C   UNL     1       7.530  -0.865  21.586  0.00  0.00    +0.000 C 
ENDROOT
BRANCH   2   3
ATOM      3  C   UNL     1       8.543  -1.162  22.310  0.00  0.00    +0.000 C 
ATOM      4  O   UNL     1       8.937  -2.276  22.086  0.00  0.00    +0.000 OA
ATOM      5  N   UNL     1       9.319  -0.145  22.666  0.00  0.00    +0.000 N 
ATOM      6  C   UNL     1       9.584   0.962  21.773  0.00  0.00    +0.000 C 
ATOM      7  C   UNL     1      10.318   2.082  22.441  0.00  0.00    +0.000 C 
ATOM      8  C   UNL     1      10.143   2.261  23.926  0.00  0.00    +0.000 C 
ATOM      9  C   UNL     1       9.844   1.048  24.702  0.00  0.00    +0.000 C 
ATOM     10  C   UNL     1      10.146  -0.212  23.870  0.00  0.00    +0.000 C 
BRANCH   8  11
ATOM     11  C   UNL     1       9.186   3.415  24.135  0.00  0.00    +0.000 C 
ATOM     12  O   UNL     1       9.539   4.559  24.351  0.00  0.00    +0.000 OA
ATOM     13  N   UNL     1       7.961   3.190  23.615  0.00  0.00    +0.000 N 
ATOM     14  H   UNL     1       7.802   3.913  22.961  0.00  0.00    +0.000 HD
BRANCH  13  15
ATOM     15  C   UNL     1       6.923   3.070  24.417  0.00  0.00    +0.000 A 
ATOM     16  C   UNL     1       6.301   1.798  23.864  0.00  0.00    +0.000 A 
ATOM     17  C   UNL     1       5.958   0.567  24.605  0.00  0.00    +0.000 A 
ATOM     18  C   UNL     1       6.302   0.860  26.033  0.00  0.00    +0.000 A 
ATOM     19  C   UNL     1       6.703   1.975  26.832  0.00  0.00    +0.000 A 
ATOM     20  C   UNL     1       6.771   3.171  25.873  0.00  0.00    +0.000 A 
BRANCH  20  21
ATOM     21  O   UNL     1       5.951   4.306  26.275  0.00  0.00    +0.000 OA
ATOM     22  H   UNL     1       6.593   5.021  26.243  0.00  0.00    +0.000 HD
ENDBRANCH  20  21
ENDBRANCH  13  15
ENDBRANCH   8  11
ENDBRANCH   2   3
BRANCH   1  23
ATOM     23  C   UNL     1       5.792  -2.861  21.405  0.00  0.00    +0.000 C 
BRANCH  23  26
ATOM     24  C   UNL     1       6.301  -4.917  22.721  0.00  0.00    +0.000 C 
ATOM     25  O   UNL     1       5.968  -6.104  22.461  0.00  0.00    +0.000 OA
ATOM     26  N   UNL     1       6.402  -4.106  21.698  0.00  0.00    +0.000 N 
ATOM     27  H   UNL     1       6.878  -4.588  20.973  0.00  0.00    +0.000 HD
BRANCH  24  28
ATOM     28  C   UNL     1       6.550  -4.537  24.140  0.00  0.00    +0.000 C 
BRANCH  28  29
ATOM     29  N   UNL     1       7.931  -4.146  24.343  0.00  0.00    +0.000 N 
ATOM     30  H   UNL     1       8.501  -3.849  23.627  0.00  0.00    +0.000 HD
ATOM     31  C   UNL     1       8.736  -4.868  25.179  0.00  0.00    +0.000 C 
ATOM     32  O   UNL     1       9.568  -5.612  24.650  0.00  0.00    +0.000 OA
ATOM     33  C   UNL     1       9.015  -4.257  26.525  0.00  0.00    +0.000 C 
ENDBRANCH  28  29
BRANCH  28  34
ATOM     34  C   UNL     1       5.596  -3.603  24.726  0.00  0.00    +0.000 C 
BRANCH  34  38
ATOM     35  C   UNL     1       3.332  -7.040  24.902  0.00  0.00    +0.000 A 
ATOM     36  C   UNL     1       4.351  -6.804  25.982  0.00  0.00    +0.000 A 
ATOM     37  C   UNL     1       4.991  -5.509  26.327  0.00  0.00    +0.000 A 
ATOM     38  C   UNL     1       4.396  -4.348  25.501  0.00  0.00    +0.000 A 
ATOM     39  C   UNL     1       3.066  -4.393  24.858  0.00  0.00    +0.000 A 
ATOM     40  C   UNL     1       2.564  -5.829  24.557  0.00  0.00    +0.000 A 
BRANCH  35  42
ATOM     41  H   UNL     1       4.617  -8.393  24.592  0.00  0.00    +0.000 HD
ATOM     42  O   UNL     1       4.163  -7.776  24.041  0.00  0.00    +0.000 OA
ENDBRANCH  35  42
ENDBRANCH  34  38
ENDBRANCH  28  34
ENDBRANCH  24  28
ENDBRANCH  23  26
ENDBRANCH   1  23
TORSDOF 11
ENDMDL
MODEL 9
REMARK VINA RESULT:      -8.1      2.455      7.473
REMARK  Name = 
REMARK  12 active torsions:
REMARK  status: ('A' for Active; 'I' for Inactive)
REMARK    1  A    between atoms: O_2  and  C_3
REMARK    2  A    between atoms: C_8  and  C_9
REMARK    3  A    between atoms: C_9  and  C_12
REMARK    4  A    between atoms: C_12  and  C_14
REMARK    5  A    between atoms: C_12  and  N_56
REMARK    6  A    between atoms: N_16  and  C_18
REMARK    7  A    between atoms: C_18  and  C_21
REMARK    8  A    between atoms: C_22  and  C_23
REMARK    9  A    between atoms: C_32  and  C_34
REMARK   10  A    between atoms: N_36  and  C_38
REMARK   11  A    between atoms: C_47  and  O_48
REMARK   12  A    between atoms: C_58  and  C_60
REMARK                            x       y       z     vdW  Elec       q    Type
REMARK                         _______ _______ _______ _____ _____    ______ ____
ROOT
ATOM      1  C   UNL     1       5.900   0.636  26.611  0.00  0.00    +0.000 C 
ATOM      2  C   UNL     1       5.058   0.113  25.935  0.00  0.00    +0.000 C 
ENDROOT
BRANCH   2   3
ATOM      3  C   UNL     1       4.307  -0.673  26.613  0.00  0.00    +0.000 C 
ATOM      4  O   UNL     1       3.238  -0.175  26.845  0.00  0.00    +0.000 OA
ATOM      5  N   UNL     1       4.510  -1.972  26.426  0.00  0.00    +0.000 N 
ATOM      6  C   UNL     1       4.845  -2.512  25.126  0.00  0.00    +0.000 C 
ATOM      7  C   UNL     1       5.219  -3.960  25.179  0.00  0.00    +0.000 C 
ATOM      8  C   UNL     1       5.809  -4.495  26.458  0.00  0.00    +0.000 C 
ATOM      9  C   UNL     1       5.400  -3.823  27.700  0.00  0.00    +0.000 C 
ATOM     10  C   UNL     1       4.158  -2.947  27.456  0.00  0.00    +0.000 C 
BRANCH   8  11
ATOM     11  C   UNL     1       7.303  -4.622  26.251  0.00  0.00    +0.000 C 
ATOM     12  O   UNL     1       8.126  -4.455  27.131  0.00  0.00    +0.000 OA
ATOM     13  N   UNL     1       7.629  -5.369  25.176  0.00  0.00    +0.000 N 
ATOM     14  H   UNL     1       8.182  -6.114  25.515  0.00  0.00    +0.000 HD
BRANCH  13  15
ATOM     15  C   UNL     1       8.218  -4.804  24.142  0.00  0.00    +0.000 A 
ATOM     16  C   UNL     1       7.477  -5.487  23.003  0.00  0.00    +0.000 A 
ATOM     17  C   UNL     1       6.759  -4.846  21.883  0.00  0.00    +0.000 A 
ATOM     18  C   UNL     1       6.965  -3.375  22.076  0.00  0.00    +0.000 A 
ATOM     19  C   UNL     1       7.734  -2.500  22.904  0.00  0.00    +0.000 A 
ATOM     20  C   UNL     1       8.555  -3.412  23.824  0.00  0.00    +0.000 A 
BRANCH  20  21
ATOM     21  O   UNL     1       9.992  -3.181  23.766  0.00  0.00    +0.000 OA
ATOM     22  H   UNL     1      10.313  -4.058  23.538  0.00  0.00    +0.000 HD
ENDBRANCH  20  21
ENDBRANCH  13  15
ENDBRANCH   8  11
ENDBRANCH   2   3
BRANCH   1  23
ATOM     23  C   UNL     1       6.853   1.352  27.445  0.00  0.00    +0.000 C 
BRANCH  23  26
ATOM     24  C   UNL     1       7.540   2.816  25.546  0.00  0.00    +0.000 C 
ATOM     25  O   UNL     1       6.969   3.857  25.126  0.00  0.00    +0.000 OA
ATOM     26  N   UNL     1       7.347   2.518  26.807  0.00  0.00    +0.000 N 
ATOM     27  H   UNL     1       7.429   3.353  27.334  0.00  0.00    +0.000 HD
BRANCH  24  28
ATOM     28  C   UNL     1       8.374   2.023  24.599  0.00  0.00    +0.000 C 
BRANCH  28  29
ATOM     29  N   UNL     1       9.445   1.336  25.294  0.00  0.00    +0.000 N 
ATOM     30  H   UNL     1      10.335   1.695  25.368  0.00  0.00    +0.000 HD
ATOM     31  C   UNL     1       9.603  -0.015  25.152  0.00  0.00    +0.000 C 
ATOM     32  O   UNL     1      10.528  -0.397  24.428  0.00  0.00    +0.000 OA
ATOM     33  C   UNL     1       9.146  -0.863  26.307  0.00  0.00    +0.000 C 
ENDBRANCH  28  29
BRANCH  28  34
ATOM     34  C   UNL     1       7.646   1.165  23.673  0.00  0.00    +0.000 C 
BRANCH  34  38
ATOM     35  C   UNL     1       6.821   0.147  19.768  0.00  0.00    +0.000 A 
ATOM     36  C   UNL     1       6.214   1.409  20.317  0.00  0.00    +0.000 A 
ATOM     37  C   UNL     1       6.657   2.150  21.526  0.00  0.00    +0.000 A 
ATOM     38  C   UNL     1       7.935   1.530  22.131  0.00  0.00    +0.000 A 
ATOM     39  C   UNL     1       8.875   0.679  21.373  0.00  0.00    +0.000 A 
ATOM     40  C   UNL     1       8.234  -0.029  20.152  0.00  0.00    +0.000 A 
BRANCH  35  42
ATOM     41  H   UNL     1       5.927  -1.514  19.628  0.00  0.00    +0.000 HD
ATOM     42  O   UNL     1       5.754  -0.709  20.089  0.00  0.00    +0.000 OA
ENDBRANCH  35  42
ENDBRANCH  34  38
ENDBRANCH  28  34
ENDBRANCH  24  28
ENDBRANCH  23  26
ENDBRANCH   1  23
TORSDOF 11
ENDMDL
