MODEL 1
REMARK VINA RESULT:      -8.8      0.000      0.000
REMARK  Name = 
REMARK  5 active torsions:
REMARK  status: ('A' for Active; 'I' for Inactive)
REMARK    1  A    between atoms: C_8  and  C_9
REMARK    2  A    between atoms: C_9  and  C_12
REMARK    3  A    between atoms: N_14  and  C_16
REMARK    4  A    between atoms: C_26  and  C_27
REMARK    5  A    between atoms: C_43  and  C_45
REMARK                            x       y       z     vdW  Elec       q    Type
REMARK                         _______ _______ _______ _____ _____    ______ ____
ROOT
ATOM      1  C   UNL     1       8.458  -0.397  24.993  0.00  0.00    +0.000 C 
ATOM      2  C   UNL     1       9.471   0.591  25.370  0.00  0.00    +0.000 C 
ATOM      3  C   UNL     1      10.794   0.505  24.477  0.00  0.00    +0.000 C 
ATOM      4  C   UNL     1      10.118  -0.224  23.201  0.00  0.00    +0.000 C 
ATOM      5  C   UNL     1       9.071  -1.084  23.649  0.00  0.00    +0.000 C 
ENDROOT
BRANCH   5   6
ATOM      6  C   UNL     1       8.828  -2.553  23.608  0.00  0.00    +0.000 C 
ATOM      7  C   UNL     1       7.770  -2.802  24.792  0.00  0.00    +0.000 A 
ATOM      8  C   UNL     1       8.576  -3.141  25.867  0.00  0.00    +0.000 A 
ATOM      9  C   UNL     1       8.958  -4.459  26.559  0.00  0.00    +0.000 A 
ATOM     10  C   UNL     1       7.757  -5.304  26.232  0.00  0.00    +0.000 A 
ATOM     11  C   UNL     1       6.729  -5.255  25.343  0.00  0.00    +0.000 A 
ATOM     12  C   UNL     1       6.617  -3.786  24.899  0.00  0.00    +0.000 A 
ATOM     13  C   UNL     1       5.714  -3.641  23.731  0.00  0.00    +0.000 C 
ATOM     14  N   UNL     1       6.831  -3.942  22.717  0.00  0.00    +0.000 N 
ATOM     15  C   UNL     1       7.417  -5.160  22.808  0.00  0.00    +0.000 C 
ATOM     16  O   UNL     1       8.440  -5.283  23.501  0.00  0.00    +0.000 OA
ATOM     17  C   UNL     1       7.842  -2.877  22.442  0.00  0.00    +0.000 C 
BRANCH  15  18
ATOM     18  C   UNL     1       6.798  -6.349  22.189  0.00  0.00    +0.000 C 
ATOM     19 CL   UNL     1       6.058  -5.936  20.624  0.00  0.00    +0.000 Cl
ENDBRANCH  15  18
ENDBRANCH   5   6
BRANCH   4  20
ATOM     20  C   UNL     1       9.988   0.841  22.095  0.00  0.00    +0.000 C 
BRANCH  20  21
ATOM     21  C   UNL     1       8.591   1.112  21.599  0.00  0.00    +0.000 C 
ATOM     22  O   UNL     1       7.754   1.394  22.509  0.00  0.00    +0.000 OA
ATOM     23  N   UNL     1       8.143   0.144  20.706  0.00  0.00    +0.000 N 
ATOM     24  H   UNL     1       8.177  -0.701  21.172  0.00  0.00    +0.000 HD
BRANCH  23  25
ATOM     25  C   UNL     1       6.860   0.404  20.373  0.00  0.00    +0.000 A 
ATOM     26  C   UNL     1       6.311  -0.947  20.049  0.00  0.00    +0.000 A 
ATOM     27  N   UNL     1       5.862  -0.657  18.934  0.00  0.00    +0.000 NA
ATOM     28  C   UNL     1       5.681  -0.062  17.925  0.00  0.00    +0.000 A 
ATOM     29  C   UNL     1       6.015   1.259  18.020  0.00  0.00    +0.000 A 
ATOM     30  C   UNL     1       6.255   1.349  19.534  0.00  0.00    +0.000 A 
ENDBRANCH  23  25
ENDBRANCH  20  21
ENDBRANCH   4  20
TORSDOF 5
ENDMDL
MODEL 2
REMARK VINA RESULT:      -8.7      2.547      4.960
REMARK  Name = 
REMARK  5 active torsions:
REMARK  status: ('A' for Active; 'I' for Inactive)
REMARK    1  A    between atoms: C_8  and  C_9
REMARK    2  A    between atoms: C_9  and  C_12
REMARK    3  A    between atoms: N_14  and  C_16
REMARK    4  A    between atoms: C_26  and  C_27
REMARK    5  A    between atoms: C_43  and  C_45
REMARK                            x       y       z     vdW  Elec       q    Type
REMARK                         _______ _______ _______ _____ _____    ______ ____
ROOT
ATOM      1  C   UNL     1       7.454   0.177  18.875  0.00  0.00    +0.000 C 
ATOM      2  C   UNL     1       6.361   0.976  18.319  0.00  0.00    +0.000 C 
ATOM      3  C   UNL     1       5.240   1.341  19.397  0.00  0.00    +0.000 C 
ATOM      4  C   UNL     1       6.169   1.167  20.709  0.00  0.00    +0.000 C 
ATOM      5  C   UNL     1       7.132   0.142  20.471  0.00  0.00    +0.000 C 
ENDROOT
BRANCH   5   6
ATOM      6  C   UNL     1       7.419  -1.191  21.073  0.00  0.00    +0.000 C 
ATOM      7  C   UNL     1       7.787  -0.854  22.601  0.00  0.00    +0.000 A 
ATOM      8  C   UNL     1       9.169  -0.760  22.578  0.00  0.00    +0.000 A 
ATOM      9  C   UNL     1      10.323  -1.687  22.991  0.00  0.00    +0.000 A 
ATOM     10  C   UNL     1       9.650  -2.515  24.051  0.00  0.00    +0.000 A 
ATOM     11  C   UNL     1       8.371  -2.780  24.432  0.00  0.00    +0.000 A 
ATOM     12  C   UNL     1       7.514  -1.629  23.879  0.00  0.00    +0.000 A 
ATOM     13  C   UNL     1       6.066  -1.932  23.990  0.00  0.00    +0.000 C 
ATOM     14  N   UNL     1       6.032  -2.699  22.658  0.00  0.00    +0.000 N 
ATOM     15  C   UNL     1       6.816  -3.800  22.574  0.00  0.00    +0.000 C 
ATOM     16  O   UNL     1       7.967  -3.684  22.121  0.00  0.00    +0.000 OA
ATOM     17  C   UNL     1       6.072  -1.913  21.388  0.00  0.00    +0.000 C 
BRANCH  15  18
ATOM     18  C   UNL     1       6.363  -5.098  23.113  0.00  0.00    +0.000 C 
ATOM     19 CL   UNL     1       6.370  -6.347  21.845  0.00  0.00    +0.000 Cl
ENDBRANCH  15  18
ENDBRANCH   5   6
BRANCH   4  20
ATOM     20  C   UNL     1       6.483   2.584  21.227  0.00  0.00    +0.000 C 
BRANCH  20  21
ATOM     21  C   UNL     1       7.488   2.672  22.346  0.00  0.00    +0.000 C 
ATOM     22  O   UNL     1       7.022   2.411  23.495  0.00  0.00    +0.000 OA
ATOM     23  N   UNL     1       8.240   3.842  22.298  0.00  0.00    +0.000 N 
ATOM     24  H   UNL     1       7.615   4.576  22.348  0.00  0.00    +0.000 HD
BRANCH  23  25
ATOM     25  C   UNL     1       9.056   3.891  23.374  0.00  0.00    +0.000 A 
ATOM     26  C   UNL     1       8.984   5.324  23.790  0.00  0.00    +0.000 A 
ATOM     27  N   UNL     1      10.203   5.531  23.808  0.00  0.00    +0.000 NA
ATOM     28  C   UNL     1      11.362   5.384  23.609  0.00  0.00    +0.000 A 
ATOM     29  C   UNL     1      11.689   4.091  23.312  0.00  0.00    +0.000 A 
ATOM     30  C   UNL     1      10.348   3.413  23.627  0.00  0.00    +0.000 A 
ENDBRANCH  23  25
ENDBRANCH  20  21
ENDBRANCH   4  20
TORSDOF 5
ENDMDL
MODEL 3
REMARK VINA RESULT:      -8.3      1.720      2.669
REMARK  Name = 
REMARK  5 active torsions:
REMARK  status: ('A' for Active; 'I' for Inactive)
REMARK    1  A    between atoms: C_8  and  C_9
REMARK    2  A    between atoms: C_9  and  C_12
REMARK    3  A    between atoms: N_14  and  C_16
REMARK    4  A    between atoms: C_26  and  C_27
REMARK    5  A    between atoms: C_43  and  C_45
REMARK                            x       y       z     vdW  Elec       q    Type
REMARK                         _______ _______ _______ _____ _____    ______ ____
ROOT
ATOM      1  C   UNL     1       9.624  -0.070  25.669  0.00  0.00    +0.000 C 
ATOM      2  C   UNL     1      10.792   0.420  24.934  0.00  0.00    +0.000 C 
ATOM      3  C   UNL     1      10.626   0.307  23.348  0.00  0.00    +0.000 C 
ATOM      4  C   UNL     1       9.009   0.276  23.324  0.00  0.00    +0.000 C 
ATOM      5  C   UNL     1       8.533  -0.378  24.499  0.00  0.00    +0.000 C 
ENDROOT
BRANCH   5   6
ATOM      6  C   UNL     1       7.757  -1.621  24.769  0.00  0.00    +0.000 C 
ATOM      7  C   UNL     1       8.521  -2.747  23.914  0.00  0.00    +0.000 A 
ATOM      8  C   UNL     1       7.813  -2.771  22.724  0.00  0.00    +0.000 A 
ATOM      9  C   UNL     1       6.746  -3.696  22.118  0.00  0.00    +0.000 A 
ATOM     10  C   UNL     1       7.062  -4.987  22.823  0.00  0.00    +0.000 A 
ATOM     11  C   UNL     1       7.769  -5.362  23.923  0.00  0.00    +0.000 A 
ATOM     12  C   UNL     1       8.759  -4.220  24.206  0.00  0.00    +0.000 A 
ATOM     13  C   UNL     1       9.403  -4.378  25.532  0.00  0.00    +0.000 C 
ATOM     14  N   UNL     1       8.256  -3.670  26.274  0.00  0.00    +0.000 N 
ATOM     15  C   UNL     1       7.033  -4.247  26.187  0.00  0.00    +0.000 C 
ATOM     16  O   UNL     1       6.261  -3.881  25.285  0.00  0.00    +0.000 OA
ATOM     17  C   UNL     1       8.157  -2.182  26.169  0.00  0.00    +0.000 C 
BRANCH  15  18
ATOM     18  C   UNL     1       6.658  -5.367  27.072  0.00  0.00    +0.000 C 
ATOM     19 CL   UNL     1       5.338  -6.324  26.357  0.00  0.00    +0.000 Cl
ENDBRANCH  15  18
ENDBRANCH   5   6
BRANCH   4  20
ATOM     20  C   UNL     1       8.543   1.655  22.818  0.00  0.00    +0.000 C 
BRANCH  20  21
ATOM     21  C   UNL     1       7.340   1.654  21.911  0.00  0.00    +0.000 C 
ATOM     22  O   UNL     1       6.238   1.881  22.495  0.00  0.00    +0.000 OA
ATOM     23  N   UNL     1       7.310   0.549  21.065  0.00  0.00    +0.000 N 
ATOM     24  H   UNL     1       7.305  -0.233  21.631  0.00  0.00    +0.000 HD
BRANCH  23  25
ATOM     25  C   UNL     1       6.166   0.571  20.345  0.00  0.00    +0.000 A 
ATOM     26  C   UNL     1       6.005  -0.852  19.920  0.00  0.00    +0.000 A 
ATOM     27  N   UNL     1       5.876  -0.627  18.711  0.00  0.00    +0.000 NA
ATOM     28  C   UNL     1       5.906  -0.055  17.673  0.00  0.00    +0.000 A 
ATOM     29  C   UNL     1       5.943   1.304  17.817  0.00  0.00    +0.000 A 
ATOM     30  C   UNL     1       5.684   1.403  19.327  0.00  0.00    +0.000 A 
ENDBRANCH  23  25
ENDBRANCH  20  21
ENDBRANCH   4  20
TORSDOF 5
ENDMDL
MODEL 4
REMARK VINA RESULT:      -8.3      3.004      7.292
REMARK  Name = 
REMARK  5 active torsions:
REMARK  status: ('A' for Active; 'I' for Inactive)
REMARK    1  A    between atoms: C_8  and  C_9
REMARK    2  A    between atoms: C_9  and  C_12
REMARK    3  A    between atoms: N_14  and  C_16
REMARK    4  A    between atoms: C_26  and  C_27
REMARK    5  A    between atoms: C_43  and  C_45
REMARK                            x       y       z     vdW  Elec       q    Type
REMARK                         _______ _______ _______ _____ _____    ______ ____
ROOT
ATOM      1  C   UNL     1       5.653  -3.522  23.445  0.00  0.00    +0.000 C 
ATOM      2  C   UNL     1       5.851  -4.799  22.756  0.00  0.00    +0.000 C 
ATOM      3  C   UNL     1       7.393  -5.152  22.523  0.00  0.00    +0.000 C 
ATOM      4  C   UNL     1       7.985  -4.222  23.706  0.00  0.00    +0.000 C 
ATOM      5  C   UNL     1       7.162  -3.065  23.852  0.00  0.00    +0.000 C 
ENDROOT
BRANCH   5   6
ATOM      6  C   UNL     1       7.370  -1.599  23.684  0.00  0.00    +0.000 C 
ATOM      7  C   UNL     1       8.863  -1.485  23.100  0.00  0.00    +0.000 A 
ATOM      8  C   UNL     1       9.630  -1.287  24.237  0.00  0.00    +0.000 A 
ATOM      9  C   UNL     1      10.293  -0.068  24.896  0.00  0.00    +0.000 A 
ATOM     10  C   UNL     1      10.490   0.823  23.700  0.00  0.00    +0.000 A 
ATOM     11  C   UNL     1      10.003   0.893  22.431  0.00  0.00    +0.000 A 
ATOM     12  C   UNL     1       9.464  -0.509  22.102  0.00  0.00    +0.000 A 
ATOM     13  C   UNL     1       8.664  -0.502  20.853  0.00  0.00    +0.000 C 
ATOM     14  N   UNL     1       7.371  -0.092  21.577  0.00  0.00    +0.000 N 
ATOM     15  C   UNL     1       7.391   1.100  22.221  0.00  0.00    +0.000 C 
ATOM     16  O   UNL     1       7.704   1.127  23.423  0.00  0.00    +0.000 OA
ATOM     17  C   UNL     1       6.652  -1.126  22.382  0.00  0.00    +0.000 C 
BRANCH  15  18
ATOM     18  C   UNL     1       7.155   2.362  21.491  0.00  0.00    +0.000 C 
ATOM     19 CL   UNL     1       7.660   3.761  22.467  0.00  0.00    +0.000 Cl
ENDBRANCH  15  18
ENDBRANCH   5   6
BRANCH   4  20
ATOM     20  C   UNL     1       8.410  -5.166  24.848  0.00  0.00    +0.000 C 
BRANCH  20  21
ATOM     21  C   UNL     1       7.697  -4.976  26.162  0.00  0.00    +0.000 C 
ATOM     22  O   UNL     1       8.451  -5.014  27.181  0.00  0.00    +0.000 OA
ATOM     23  N   UNL     1       6.562  -5.772  26.274  0.00  0.00    +0.000 N 
ATOM     24  H   UNL     1       6.855  -6.688  26.179  0.00  0.00    +0.000 HD
BRANCH  23  25
ATOM     25  C   UNL     1       6.027  -5.614  27.505  0.00  0.00    +0.000 A 
ATOM     26  C   UNL     1       5.189  -6.840  27.671  0.00  0.00    +0.000 A 
ATOM     27  N   UNL     1       4.140  -6.257  27.972  0.00  0.00    +0.000 NA
ATOM     28  C   UNL     1       3.345  -5.388  28.103  0.00  0.00    +0.000 A 
ATOM     29  C   UNL     1       3.912  -4.145  28.095  0.00  0.00    +0.000 A 
ATOM     30  C   UNL     1       5.393  -4.544  28.150  0.00  0.00    +0.000 A 
ENDBRANCH  23  25
ENDBRANCH  20  21
ENDBRANCH   4  20
TORSDOF 5
ENDMDL
MODEL 5
REMARK VINA RESULT:      -8.2      2.112      3.099
REMARK  Name = 
REMARK  5 active torsions:
REMARK  status: ('A' for Active; 'I' for Inactive)
REMARK    1  A    between atoms: C_8  and  C_9
REMARK    2  A    between atoms: C_9  and  C_12
REMARK    3  A    between atoms: N_14  and  C_16
REMARK    4  A    between atoms: C_26  and  C_27
REMARK    5  A    between atoms: C_43  and  C_45
REMARK                            x       y       z     vdW  Elec       q    Type
REMARK                         _______ _______ _______ _____ _____    ______ ____
ROOT
ATOM      1  C   UNL     1       6.723  -1.785  26.249  0.00  0.00    +0.000 C 
ATOM      2  C   UNL     1       8.147  -1.613  26.539  0.00  0.00    +0.000 C 
ATOM      3  C   UNL     1       9.055  -1.577  25.224  0.00  0.00    +0.000 C 
ATOM      4  C   UNL     1       7.887  -1.133  24.196  0.00  0.00    +0.000 C 
ATOM      5  C   UNL     1       6.646  -1.690  24.624  0.00  0.00    +0.000 C 
ENDROOT
BRANCH   5   6
ATOM      6  C   UNL     1       5.677  -2.665  24.050  0.00  0.00    +0.000 C 
ATOM      7  C   UNL     1       6.377  -4.092  24.292  0.00  0.00    +0.000 A 
ATOM      8  C   UNL     1       7.046  -4.320  23.101  0.00  0.00    +0.000 A 
ATOM      9  C   UNL     1       6.779  -5.183  21.858  0.00  0.00    +0.000 A 
ATOM     10  C   UNL     1       5.923  -6.269  22.451  0.00  0.00    +0.000 A 
ATOM     11  C   UNL     1       5.202  -6.444  23.591  0.00  0.00    +0.000 A 
ATOM     12  C   UNL     1       5.773  -5.449  24.615  0.00  0.00    +0.000 A 
ATOM     13  C   UNL     1       4.904  -5.346  25.812  0.00  0.00    +0.000 C 
ATOM     14  N   UNL     1       3.994  -4.284  25.172  0.00  0.00    +0.000 N 
ATOM     15  C   UNL     1       3.335  -4.651  24.047  0.00  0.00    +0.000 C 
ATOM     16  O   UNL     1       3.858  -4.420  22.944  0.00  0.00    +0.000 OA
ATOM     17  C   UNL     1       4.509  -2.885  25.062  0.00  0.00    +0.000 C 
BRANCH  15  18
ATOM     18  C   UNL     1       2.072  -5.411  24.121  0.00  0.00    +0.000 C 
ATOM     19 CL   UNL     1       1.732  -6.226  22.576  0.00  0.00    +0.000 Cl
ENDBRANCH  15  18
ENDBRANCH   5   6
BRANCH   4  20
ATOM     20  C   UNL     1       8.131   0.350  23.856  0.00  0.00    +0.000 C 
BRANCH  20  21
ATOM     21  C   UNL     1       8.184   0.692  22.389  0.00  0.00    +0.000 C 
ATOM     22  O   UNL     1       8.804   1.764  22.119  0.00  0.00    +0.000 OA
ATOM     23  N   UNL     1       6.941   0.592  21.772  0.00  0.00    +0.000 N 
ATOM     24  H   UNL     1       6.351   1.198  22.237  0.00  0.00    +0.000 HD
BRANCH  23  25
ATOM     25  C   UNL     1       7.049   0.994  20.486  0.00  0.00    +0.000 A 
ATOM     26  C   UNL     1       5.826   1.828  20.286  0.00  0.00    +0.000 A 
ATOM     27  N   UNL     1       5.418   1.246  19.275  0.00  0.00    +0.000 NA
ATOM     28  C   UNL     1       5.295   0.412  18.440  0.00  0.00    +0.000 A 
ATOM     29  C   UNL     1       6.374  -0.422  18.361  0.00  0.00    +0.000 A 
ATOM     30  C   UNL     1       7.340   0.327  19.289  0.00  0.00    +0.000 A 
ENDBRANCH  23  25
ENDBRANCH  20  21
ENDBRANCH   4  20
TORSDOF 5
ENDMDL
MODEL 6
REMARK VINA RESULT:      -8.1      2.953      6.643
REMARK  Name = 
REMARK  5 active torsions:
REMARK  status: ('A' for Active; 'I' for Inactive)
REMARK    1  A    between atoms: C_8  and  C_9
REMARK    2  A    between atoms: C_9  and  C_12
REMARK    3  A    between atoms: N_14  and  C_16
REMARK    4  A    between atoms: C_26  and  C_27
REMARK    5  A    between atoms: C_43  and  C_45
REMARK                            x       y       z     vdW  Elec       q    Type
REMARK                         _______ _______ _______ _____ _____    ______ ____
ROOT
ATOM      1  C   UNL     1       7.763  -3.984  23.641  0.00  0.00    +0.000 C 
ATOM      2  C   UNL     1       8.621  -5.024  24.210  0.00  0.00    +0.000 C 
ATOM      3  C   UNL     1       9.182  -4.651  25.660  0.00  0.00    +0.000 C 
ATOM      4  C   UNL     1       8.033  -3.578  26.041  0.00  0.00    +0.000 C 
ATOM      5  C   UNL     1       7.600  -2.911  24.857  0.00  0.00    +0.000 C 
ENDROOT
BRANCH   5   6
ATOM      6  C   UNL     1       7.633  -1.503  24.371  0.00  0.00    +0.000 C 
ATOM      7  C   UNL     1       9.022  -1.404  23.568  0.00  0.00    +0.000 A 
ATOM      8  C   UNL     1       9.901  -0.913  24.520  0.00  0.00    +0.000 A 
ATOM      9  C   UNL     1      10.512   0.464  24.820  0.00  0.00    +0.000 A 
ATOM     10  C   UNL     1      10.465   1.094  23.454  0.00  0.00    +0.000 A 
ATOM     11  C   UNL     1       9.819   0.857  22.280  0.00  0.00    +0.000 A 
ATOM     12  C   UNL     1       9.390  -0.619  22.319  0.00  0.00    +0.000 A 
ATOM     13  C   UNL     1       8.444  -0.937  21.222  0.00  0.00    +0.000 C 
ATOM     14  N   UNL     1       7.216  -0.480  22.028  0.00  0.00    +0.000 N 
ATOM     15  C   UNL     1       7.194   0.819  22.411  0.00  0.00    +0.000 C 
ATOM     16  O   UNL     1       7.650   1.123  23.525  0.00  0.00    +0.000 OA
ATOM     17  C   UNL     1       6.713  -1.371  23.117  0.00  0.00    +0.000 C 
BRANCH  15  18
ATOM     18  C   UNL     1       6.740   1.876  21.485  0.00  0.00    +0.000 C 
ATOM     19 CL   UNL     1       7.194   3.487  22.092  0.00  0.00    +0.000 Cl
ENDBRANCH  15  18
ENDBRANCH   5   6
BRANCH   4  20
ATOM     20  C   UNL     1       7.111  -4.257  27.072  0.00  0.00    +0.000 C 
BRANCH  20  21
ATOM     21  C   UNL     1       5.670  -4.423  26.662  0.00  0.00    +0.000 C 
ATOM     22  O   UNL     1       4.832  -4.230  27.592  0.00  0.00    +0.000 OA
ATOM     23  N   UNL     1       5.451  -5.595  25.944  0.00  0.00    +0.000 N 
ATOM     24  H   UNL     1       5.726  -6.325  26.513  0.00  0.00    +0.000 HD
BRANCH  23  25
ATOM     25  C   UNL     1       4.130  -5.718  25.686  0.00  0.00    +0.000 A 
ATOM     26  C   UNL     1       3.986  -7.164  25.337  0.00  0.00    +0.000 A 
ATOM     27  N   UNL     1       3.406  -6.993  24.258  0.00  0.00    +0.000 NA
ATOM     28  C   UNL     1       2.997  -6.456  23.284  0.00  0.00    +0.000 A 
ATOM     29  C   UNL     1       2.932  -5.097  23.416  0.00  0.00    +0.000 A 
ATOM     30  C   UNL     1       3.225  -4.976  24.917  0.00  0.00    +0.000 A 
ENDBRANCH  23  25
ENDBRANCH  20  21
ENDBRANCH   4  20
TORSDOF 5
ENDMDL
MODEL 7
REMARK VINA RESULT:      -8.0      2.688      4.305
REMARK  Name = 
REMARK  5 active torsions:
REMARK  status: ('A' for Active; 'I' for Inactive)
REMARK    1  A    between atoms: C_8  and  C_9
REMARK    2  A    between atoms: C_9  and  C_12
REMARK    3  A    between atoms: N_14  and  C_16
REMARK    4  A    between atoms: C_26  and  C_27
REMARK    5  A    between atoms: C_43  and  C_45
REMARK                            x       y       z     vdW  Elec       q    Type
REMARK                         _______ _______ _______ _____ _____    ______ ____
ROOT
ATOM      1  C   UNL     1       8.453  -1.563  24.292  0.00  0.00    +0.000 C 
ATOM      2  C   UNL     1       9.877  -1.513  23.958  0.00  0.00    +0.000 C 
ATOM      3  C   UNL     1      10.157  -1.647  22.390  0.00  0.00    +0.000 C 
ATOM      4  C   UNL     1       8.699  -1.157  21.890  0.00  0.00    +0.000 C 
ATOM      5  C   UNL     1       7.715  -1.563  22.840  0.00  0.00    +0.000 C 
ENDROOT
BRANCH   5   6
ATOM      6  C   UNL     1       6.536  -2.474  22.809  0.00  0.00    +0.000 C 
ATOM      7  C   UNL     1       7.126  -3.885  23.303  0.00  0.00    +0.000 A 
ATOM      8  C   UNL     1       7.436  -4.529  22.116  0.00  0.00    +0.000 A 
ATOM      9  C   UNL     1       6.769  -5.629  21.276  0.00  0.00    +0.000 A 
ATOM     10  C   UNL     1       5.991  -6.358  22.337  0.00  0.00    +0.000 A 
ATOM     11  C   UNL     1       5.577  -6.101  23.608  0.00  0.00    +0.000 A 
ATOM     12  C   UNL     1       6.493  -4.986  24.138  0.00  0.00    +0.000 A 
ATOM     13  C   UNL     1       5.980  -4.425  25.412  0.00  0.00    +0.000 C 
ATOM     14  N   UNL     1       5.048  -3.428  24.703  0.00  0.00    +0.000 N 
ATOM     15  C   UNL     1       4.085  -3.959  23.911  0.00  0.00    +0.000 C 
ATOM     16  O   UNL     1       4.324  -4.119  22.703  0.00  0.00    +0.000 OA
ATOM     17  C   UNL     1       5.656  -2.217  24.072  0.00  0.00    +0.000 C 
BRANCH  15  18
ATOM     18  C   UNL     1       2.814  -4.445  24.484  0.00  0.00    +0.000 C 
ATOM     19 CL   UNL     1       1.919  -5.424  23.298  0.00  0.00    +0.000 Cl
ENDBRANCH  15  18
ENDBRANCH   5   6
BRANCH   4  20
ATOM     20  C   UNL     1       8.872   0.270  21.337  0.00  0.00    +0.000 C 
BRANCH  20  21
ATOM     21  C   UNL     1       8.031   1.338  21.988  0.00  0.00    +0.000 C 
ATOM     22  O   UNL     1       7.226   1.926  21.205  0.00  0.00    +0.000 OA
ATOM     23  N   UNL     1       8.783   2.205  22.774  0.00  0.00    +0.000 N 
ATOM     24  H   UNL     1       9.443   2.604  22.194  0.00  0.00    +0.000 HD
BRANCH  23  25
ATOM     25  C   UNL     1       7.980   3.181  23.254  0.00  0.00    +0.000 A 
ATOM     26  C   UNL     1       8.917   4.328  23.446  0.00  0.00    +0.000 A 
ATOM     27  N   UNL     1       8.625   4.557  24.625  0.00  0.00    +0.000 NA
ATOM     28  C   UNL     1       8.188   4.403  25.717  0.00  0.00    +0.000 A 
ATOM     29  C   UNL     1       7.207   3.453  25.765  0.00  0.00    +0.000 A 
ATOM     30  C   UNL     1       7.007   3.220  24.261  0.00  0.00    +0.000 A 
ENDBRANCH  23  25
ENDBRANCH  20  21
ENDBRANCH   4  20
TORSDOF 5
ENDMDL
MODEL 8
REMARK VINA RESULT:      -7.9      2.160      6.005
REMARK  Name = 
REMARK  5 active torsions:
REMARK  status: ('A' for Active; 'I' for Inactive)
REMARK    1  A    between atoms: C_8  and  C_9
REMARK    2  A    between atoms: C_9  and  C_12
REMARK    3  A    between atoms: N_14  and  C_16
REMARK    4  A    between atoms: C_26  and  C_27
REMARK    5  A    between atoms: C_43  and  C_45
REMARK                            x       y       z     vdW  Elec       q    Type
REMARK                         _______ _______ _______ _____ _____    ______ ____
ROOT
ATOM      1  C   UNL     1       7.016   0.871  27.008  0.00  0.00    +0.000 C 
ATOM      2  C   UNL     1       6.009   0.334  27.924  0.00  0.00    +0.000 C 
ATOM      3  C   UNL     1       5.269  -0.963  27.352  0.00  0.00    +0.000 C 
ATOM      4  C   UNL     1       6.425  -1.401  26.309  0.00  0.00    +0.000 C 
ATOM      5  C   UNL     1       7.077  -0.233  25.811  0.00  0.00    +0.000 C 
ENDROOT
BRANCH   5   6
ATOM      6  C   UNL     1       7.221   0.399  24.470  0.00  0.00    +0.000 C 
ATOM      7  C   UNL     1       8.723   0.034  24.029  0.00  0.00    +0.000 A 
ATOM      8  C   UNL     1       9.448   1.141  24.437  0.00  0.00    +0.000 A 
ATOM      9  C   UNL     1      10.035   2.371  23.727  0.00  0.00    +0.000 A 
ATOM     10  C   UNL     1      10.223   1.828  22.337  0.00  0.00    +0.000 A 
ATOM     11  C   UNL     1       9.769   0.761  21.625  0.00  0.00    +0.000 A 
ATOM     12  C   UNL     1       9.306  -0.277  22.660  0.00  0.00    +0.000 A 
ATOM     13  C   UNL     1       8.541  -1.375  22.020  0.00  0.00    +0.000 C 
ATOM     14  N   UNL     1       7.210  -0.606  22.082  0.00  0.00    +0.000 N 
ATOM     15  C   UNL     1       7.157   0.565  21.405  0.00  0.00    +0.000 C 
ATOM     16  O   UNL     1       7.436   1.617  22.004  0.00  0.00    +0.000 OA
ATOM     17  C   UNL     1       6.518  -0.496  23.402  0.00  0.00    +0.000 C 
BRANCH  15  18
ATOM     18  C   UNL     1       6.884   0.592  19.954  0.00  0.00    +0.000 C 
ATOM     19 CL   UNL     1       5.885  -0.801  19.472  0.00  0.00    +0.000 Cl
ENDBRANCH  15  18
ENDBRANCH   5   6
BRANCH   4  20
ATOM     20  C   UNL     1       7.132  -2.629  26.915  0.00  0.00    +0.000 C 
BRANCH  20  21
ATOM     21  C   UNL     1       6.852  -3.950  26.246  0.00  0.00    +0.000 C 
ATOM     22  O   UNL     1       7.485  -4.934  26.734  0.00  0.00    +0.000 OA
ATOM     23  N   UNL     1       6.921  -3.871  24.858  0.00  0.00    +0.000 N 
ATOM     24  H   UNL     1       7.812  -3.566  24.642  0.00  0.00    +0.000 HD
BRANCH  23  25
ATOM     25  C   UNL     1       6.745  -5.103  24.333  0.00  0.00    +0.000 A 
ATOM     26  C   UNL     1       7.807  -5.182  23.285  0.00  0.00    +0.000 A 
ATOM     27  N   UNL     1       7.064  -5.508  22.352  0.00  0.00    +0.000 NA
ATOM     28  C   UNL     1       6.075  -5.686  21.723  0.00  0.00    +0.000 A 
ATOM     29  C   UNL     1       4.957  -5.765  22.504  0.00  0.00    +0.000 A 
ATOM     30  C   UNL     1       5.620  -5.810  23.888  0.00  0.00    +0.000 A 
ENDBRANCH  23  25
ENDBRANCH  20  21
ENDBRANCH   4  20
TORSDOF 5
ENDMDL
MODEL 9
REMARK VINA RESULT:      -7.6      3.222      4.730
REMARK  Name = 
REMARK  5 active torsions:
REMARK  status: ('A' for Active; 'I' for Inactive)
REMARK    1  A    between atoms: C_8  and  C_9
REMARK    2  A    between atoms: C_9  and  C_12
REMARK    3  A    between atoms: N_14  and  C_16
REMARK    4  A    between atoms: C_26  and  C_27
REMARK    5  A    between atoms: C_43  and  C_45
REMARK                            x       y       z     vdW  Elec       q    Type
REMARK                         _______ _______ _______ _____ _____    ______ ____
ROOT
ATOM      1  C   UNL     1       6.909  -5.368  23.216  0.00  0.00    +0.000 C 
ATOM      2  C   UNL     1       6.752  -4.946  21.823  0.00  0.00    +0.000 C 
ATOM      3  C   UNL     1       6.246  -3.436  21.679  0.00  0.00    +0.000 C 
ATOM      4  C   UNL     1       6.744  -2.926  23.131  0.00  0.00    +0.000 C 
ATOM      5  C   UNL     1       6.652  -4.001  24.065  0.00  0.00    +0.000 C 
ENDROOT
BRANCH   5   6
ATOM      6  C   UNL     1       5.869  -4.251  25.307  0.00  0.00    +0.000 C 
ATOM      7  C   UNL     1       4.471  -4.835  24.772  0.00  0.00    +0.000 A 
ATOM      8  C   UNL     1       3.667  -3.709  24.698  0.00  0.00    +0.000 A 
ATOM      9  C   UNL     1       2.552  -3.117  25.574  0.00  0.00    +0.000 A 
ATOM     10  C   UNL     1       2.033  -4.361  26.244  0.00  0.00    +0.000 A 
ATOM     11  C   UNL     1       2.474  -5.633  26.439  0.00  0.00    +0.000 A 
ATOM     12  C   UNL     1       3.544  -5.884  25.364  0.00  0.00    +0.000 A 
ATOM     13  C   UNL     1       4.297  -7.134  25.631  0.00  0.00    +0.000 C 
ATOM     14  N   UNL     1       5.296  -6.438  26.571  0.00  0.00    +0.000 N 
ATOM     15  C   UNL     1       4.779  -5.862  27.682  0.00  0.00    +0.000 C 
ATOM     16  O   UNL     1       4.458  -4.663  27.642  0.00  0.00    +0.000 OA
ATOM     17  C   UNL     1       6.357  -5.579  25.964  0.00  0.00    +0.000 C 
BRANCH  15  18
ATOM     18  C   UNL     1       4.495  -6.662  28.891  0.00  0.00    +0.000 C 
ATOM     19 CL   UNL     1       3.377  -5.799  29.973  0.00  0.00    +0.000 Cl
ENDBRANCH  15  18
ENDBRANCH   5   6
BRANCH   4  20
ATOM     20  C   UNL     1       7.991  -2.052  22.895  0.00  0.00    +0.000 C 
BRANCH  20  21
ATOM     21  C   UNL     1       7.964  -1.180  21.666  0.00  0.00    +0.000 C 
ATOM     22  O   UNL     1       9.094  -0.721  21.320  0.00  0.00    +0.000 OA
ATOM     23  N   UNL     1       6.959  -0.219  21.716  0.00  0.00    +0.000 N 
ATOM     24  H   UNL     1       7.124   0.315  22.503  0.00  0.00    +0.000 HD
BRANCH  23  25
ATOM     25  C   UNL     1       7.050   0.577  20.627  0.00  0.00    +0.000 A 
ATOM     26  C   UNL     1       6.269   1.787  21.023  0.00  0.00    +0.000 A 
ATOM     27  N   UNL     1       5.525   1.807  20.036  0.00  0.00    +0.000 NA
ATOM     28  C   UNL     1       4.955   1.447  19.060  0.00  0.00    +0.000 A 
ATOM     29  C   UNL     1       5.568   0.391  18.447  0.00  0.00    +0.000 A 
ATOM     30  C   UNL     1       6.874   0.356  19.255  0.00  0.00    +0.000 A 
ENDBRANCH  23  25
ENDBRANCH  20  21
ENDBRANCH   4  20
TORSDOF 5
ENDMDL
