MODEL 1
REMARK VINA RESULT:      -8.7      0.000      0.000
REMARK  Name = 
REMARK  7 active torsions:
REMARK  status: ('A' for Active; 'I' for Inactive)
REMARK    1  A    between atoms: C_7  and  C_8
REMARK    2  A    between atoms: C_24  and  C_26
REMARK    3  A    between atoms: C_26  and  C_29
REMARK    4  A    between atoms: N_31  and  C_33
REMARK    5  A    between atoms: C_33  and  C_36
REMARK    6  A    between atoms: C_41  and  S_42
REMARK    7  A    between atoms: S_42  and  N_45
REMARK                            x       y       z     vdW  Elec       q    Type
REMARK                         _______ _______ _______ _____ _____    ______ ____
ROOT
ATOM      1  C   UNL     1       4.955  -4.550  24.932  0.00  0.00    +0.000 C 
ATOM      2  C   UNL     1       4.915  -4.553  23.423  0.00  0.00    +0.000 A 
ATOM      3  C   UNL     1       5.065  -5.609  22.871  0.00  0.00    +0.000 A 
ATOM      4  C   UNL     1       6.021  -6.519  22.079  0.00  0.00    +0.000 A 
ATOM      5  C   UNL     1       7.011  -5.415  21.653  0.00  0.00    +0.000 A 
ATOM      6  C   UNL     1       7.297  -4.083  21.997  0.00  0.00    +0.000 A 
ATOM      7  C   UNL     1       6.078  -3.679  22.759  0.00  0.00    +0.000 A 
ATOM      8  C   UNL     1       5.959  -2.382  23.255  0.00  0.00    +0.000 C 
ATOM      9  N   UNL     1       6.164  -2.360  24.597  0.00  0.00    +0.000 N 
ATOM     10  C   UNL     1       7.010  -1.621  25.439  0.00  0.00    +0.000 C 
ATOM     11  O   UNL     1       6.447  -0.583  25.730  0.00  0.00    +0.000 OA
ATOM     12  C   UNL     1       5.508  -3.267  25.277  0.00  0.00    +0.000 C 
ENDROOT
BRANCH   1  16
ATOM     13  C   UNL     1       6.178  -5.958  28.333  0.00  0.00    +0.000 A 
ATOM     14  C   UNL     1       7.023  -5.287  27.291  0.00  0.00    +0.000 A 
ATOM     15  C   UNL     1       6.893  -5.328  25.868  0.00  0.00    +0.000 A 
ATOM     16  C   UNL     1       5.297  -5.756  25.494  0.00  0.00    +0.000 A 
ATOM     17  C   UNL     1       4.639  -6.707  26.308  0.00  0.00    +0.000 A 
ATOM     18  C   UNL     1       5.131  -6.844  27.786  0.00  0.00    +0.000 A 
ENDBRANCH   1  16
BRANCH  10  19
ATOM     19  C   UNL     1       8.374  -1.748  25.018  0.00  0.00    +0.000 C 
BRANCH  19  20
ATOM     20  C   UNL     1       9.195  -0.459  25.032  0.00  0.00    +0.000 C 
ATOM     21  O   UNL     1       9.593  -0.133  26.189  0.00  0.00    +0.000 OA
ATOM     22  N   UNL     1       8.575   0.598  24.376  0.00  0.00    +0.000 N 
ATOM     23  H   UNL     1       7.893   0.903  25.033  0.00  0.00    +0.000 HD
BRANCH  22  24
ATOM     24  C   UNL     1       9.445   1.655  23.871  0.00  0.00    +0.000 C 
BRANCH  24  25
ATOM     25  C   UNL     1       9.397   1.670  22.349  0.00  0.00    +0.000 A 
ATOM     26  C   UNL     1       8.102   2.377  21.980  0.00  0.00    +0.000 A 
ATOM     27  C   UNL     1       6.990   1.757  21.307  0.00  0.00    +0.000 A 
ATOM     28  C   UNL     1       7.248   0.297  20.947  0.00  0.00    +0.000 A 
ATOM     29  C   UNL     1       8.505  -0.447  20.992  0.00  0.00    +0.000 A 
ATOM     30  C   UNL     1       9.674   0.499  21.536  0.00  0.00    +0.000 A 
BRANCH  28  31
ATOM     31  S   UNL     1       6.469   0.161  19.325  0.00  0.00    +0.000 S 
ATOM     32  O   UNL     1       7.616   0.065  18.386  0.00  0.00    +0.000 OA
ATOM     33  O   UNL     1       5.676   1.329  19.121  0.00  0.00    +0.000 OA
BRANCH  31  34
ATOM     34  N   UNL     1       5.615  -1.187  19.156  0.00  0.00    +0.000 NA
ATOM     35  H   UNL     1       5.627  -1.773  19.962  0.00  0.00    +0.000 HD
ATOM     36  H   UNL     1       5.962  -1.742  18.386  0.00  0.00    +0.000 HD
ENDBRANCH  31  34
ENDBRANCH  28  31
ENDBRANCH  24  25
ENDBRANCH  22  24
ENDBRANCH  19  20
ENDBRANCH  10  19
TORSDOF 7
ENDMDL
MODEL 2
REMARK VINA RESULT:      -8.6      3.109      6.866
REMARK  Name = 
REMARK  7 active torsions:
REMARK  status: ('A' for Active; 'I' for Inactive)
REMARK    1  A    between atoms: C_7  and  C_8
REMARK    2  A    between atoms: C_24  and  C_26
REMARK    3  A    between atoms: C_26  and  C_29
REMARK    4  A    between atoms: N_31  and  C_33
REMARK    5  A    between atoms: C_33  and  C_36
REMARK    6  A    between atoms: C_41  and  S_42
REMARK    7  A    between atoms: S_42  and  N_45
REMARK                            x       y       z     vdW  Elec       q    Type
REMARK                         _______ _______ _______ _____ _____    ______ ____
ROOT
ATOM      1  C   UNL     1       8.742   1.605  21.442  0.00  0.00    +0.000 C 
ATOM      2  C   UNL     1      10.001   1.030  22.045  0.00  0.00    +0.000 A 
ATOM      3  C   UNL     1      10.184  -0.150  21.915  0.00  0.00    +0.000 A 
ATOM      4  C   UNL     1      10.152  -1.535  22.584  0.00  0.00    +0.000 A 
ATOM      5  C   UNL     1      10.161  -1.032  24.043  0.00  0.00    +0.000 A 
ATOM      6  C   UNL     1       9.961   0.178  24.728  0.00  0.00    +0.000 A 
ATOM      7  C   UNL     1      10.070   1.189  23.634  0.00  0.00    +0.000 A 
ATOM      8  C   UNL     1       9.960   2.548  23.922  0.00  0.00    +0.000 C 
ATOM      9  N   UNL     1       8.752   3.026  23.529  0.00  0.00    +0.000 N 
ATOM     10  C   UNL     1       7.733   3.745  24.175  0.00  0.00    +0.000 C 
ATOM     11  O   UNL     1       7.986   4.931  24.082  0.00  0.00    +0.000 OA
ATOM     12  C   UNL     1       8.387   2.693  22.315  0.00  0.00    +0.000 C 
ENDROOT
BRANCH   1  16
ATOM     13  C   UNL     1       5.807   1.398  18.915  0.00  0.00    +0.000 A 
ATOM     14  C   UNL     1       5.726   1.871  20.336  0.00  0.00    +0.000 A 
ATOM     15  C   UNL     1       6.461   1.416  21.476  0.00  0.00    +0.000 A 
ATOM     16  C   UNL     1       7.879   0.669  20.927  0.00  0.00    +0.000 A 
ATOM     17  C   UNL     1       7.827  -0.105  19.744  0.00  0.00    +0.000 A 
ATOM     18  C   UNL     1       6.711   0.250  18.708  0.00  0.00    +0.000 A 
ENDBRANCH   1  16
BRANCH  10  19
ATOM     19  C   UNL     1       7.315   3.065  25.365  0.00  0.00    +0.000 C 
BRANCH  19  20
ATOM     20  C   UNL     1       6.135   2.108  25.201  0.00  0.00    +0.000 C 
ATOM     21  O   UNL     1       5.071   2.530  25.741  0.00  0.00    +0.000 OA
ATOM     22  N   UNL     1       6.427   0.801  25.576  0.00  0.00    +0.000 N 
ATOM     23  H   UNL     1       6.393   0.838  26.569  0.00  0.00    +0.000 HD
BRANCH  22  24
ATOM     24  C   UNL     1       5.608  -0.249  24.980  0.00  0.00    +0.000 C 
BRANCH  24  25
ATOM     25  C   UNL     1       6.471  -1.473  24.705  0.00  0.00    +0.000 A 
ATOM     26  C   UNL     1       6.653  -1.525  23.196  0.00  0.00    +0.000 A 
ATOM     27  C   UNL     1       6.143  -2.566  22.342  0.00  0.00    +0.000 A 
ATOM     28  C   UNL     1       5.419  -3.669  23.110  0.00  0.00    +0.000 A 
ATOM     29  C   UNL     1       5.380  -3.904  24.552  0.00  0.00    +0.000 A 
ATOM     30  C   UNL     1       6.219  -2.771  25.307  0.00  0.00    +0.000 A 
BRANCH  28  31
ATOM     31  S   UNL     1       5.932  -5.152  22.222  0.00  0.00    +0.000 S 
ATOM     32  O   UNL     1       7.317  -5.393  22.700  0.00  0.00    +0.000 OA
ATOM     33  O   UNL     1       5.864  -4.872  20.824  0.00  0.00    +0.000 OA
BRANCH  31  34
ATOM     34  N   UNL     1       5.070  -6.446  22.621  0.00  0.00    +0.000 NA
ATOM     35  H   UNL     1       5.158  -7.201  21.977  0.00  0.00    +0.000 HD
ATOM     36  H   UNL     1       4.085  -6.223  22.676  0.00  0.00    +0.000 HD
ENDBRANCH  31  34
ENDBRANCH  28  31
ENDBRANCH  24  25
ENDBRANCH  22  24
ENDBRANCH  19  20
ENDBRANCH  10  19
TORSDOF 7
ENDMDL
MODEL 3
REMARK VINA RESULT:      -8.3      3.315      7.594
REMARK  Name = 
REMARK  7 active torsions:
REMARK  status: ('A' for Active; 'I' for Inactive)
REMARK    1  A    between atoms: C_7  and  C_8
REMARK    2  A    between atoms: C_24  and  C_26
REMARK    3  A    between atoms: C_26  and  C_29
REMARK    4  A    between atoms: N_31  and  C_33
REMARK    5  A    between atoms: C_33  and  C_36
REMARK    6  A    between atoms: C_41  and  S_42
REMARK    7  A    between atoms: S_42  and  N_45
REMARK                            x       y       z     vdW  Elec       q    Type
REMARK                         _______ _______ _______ _____ _____    ______ ____
ROOT
ATOM      1  C   UNL     1       8.964  -0.422  25.385  0.00  0.00    +0.000 C 
ATOM      2  C   UNL     1      10.114   0.086  24.551  0.00  0.00    +0.000 A 
ATOM      3  C   UNL     1      10.146   1.263  24.316  0.00  0.00    +0.000 A 
ATOM      4  C   UNL     1       9.910   2.371  23.274  0.00  0.00    +0.000 A 
ATOM      5  C   UNL     1       9.933   1.459  22.030  0.00  0.00    +0.000 A 
ATOM      6  C   UNL     1       9.869   0.084  21.745  0.00  0.00    +0.000 A 
ATOM      7  C   UNL     1      10.148  -0.533  23.077  0.00  0.00    +0.000 A 
ATOM      8  C   UNL     1      10.206  -1.919  23.208  0.00  0.00    +0.000 C 
ATOM      9  N   UNL     1       9.085  -2.392  23.811  0.00  0.00    +0.000 N 
ATOM     10  C   UNL     1       8.147  -3.383  23.480  0.00  0.00    +0.000 C 
ATOM     11  O   UNL     1       8.556  -4.450  23.897  0.00  0.00    +0.000 OA
ATOM     12  C   UNL     1       8.724  -1.755  24.897  0.00  0.00    +0.000 C 
ENDROOT
BRANCH   1  16
ATOM     13  C   UNL     1       5.201  -0.252  26.311  0.00  0.00    +0.000 A 
ATOM     14  C   UNL     1       5.772  -0.435  24.937  0.00  0.00    +0.000 A 
ATOM     15  C   UNL     1       6.975   0.109  24.385  0.00  0.00    +0.000 A 
ATOM     16  C   UNL     1       8.005   0.520  25.665  0.00  0.00    +0.000 A 
ATOM     17  C   UNL     1       7.443   1.060  26.846  0.00  0.00    +0.000 A 
ATOM     18  C   UNL     1       5.957   0.690  27.162  0.00  0.00    +0.000 A 
ENDBRANCH   1  16
BRANCH  10  19
ATOM     19  C   UNL     1       7.601  -3.143  22.176  0.00  0.00    +0.000 C 
BRANCH  19  20
ATOM     20  C   UNL     1       6.206  -3.714  21.927  0.00  0.00    +0.000 C 
ATOM     21  O   UNL     1       5.642  -3.225  20.905  0.00  0.00    +0.000 OA
ATOM     22  N   UNL     1       5.384  -3.674  23.046  0.00  0.00    +0.000 N 
ATOM     23  H   UNL     1       5.100  -2.722  23.084  0.00  0.00    +0.000 HD
BRANCH  22  24
ATOM     24  C   UNL     1       4.287  -4.635  23.087  0.00  0.00    +0.000 C 
BRANCH  24  25
ATOM     25  C   UNL     1       3.792  -4.782  24.519  0.00  0.00    +0.000 A 
ATOM     26  C   UNL     1       4.740  -3.957  25.375  0.00  0.00    +0.000 A 
ATOM     27  C   UNL     1       5.627  -4.496  26.372  0.00  0.00    +0.000 A 
ATOM     28  C   UNL     1       5.500  -6.008  26.532  0.00  0.00    +0.000 A 
ATOM     29  C   UNL     1       4.479  -6.901  25.989  0.00  0.00    +0.000 A 
ATOM     30  C   UNL     1       3.440  -6.063  25.109  0.00  0.00    +0.000 A 
BRANCH  28  31
ATOM     31  S   UNL     1       5.667  -6.220  28.316  0.00  0.00    +0.000 S 
ATOM     32  O   UNL     1       5.183  -4.932  28.875  0.00  0.00    +0.000 OA
ATOM     33  O   UNL     1       7.043  -6.470  28.600  0.00  0.00    +0.000 OA
BRANCH  31  34
ATOM     34  N   UNL     1       4.710  -7.369  28.898  0.00  0.00    +0.000 NA
ATOM     35  H   UNL     1       4.585  -8.139  28.279  0.00  0.00    +0.000 HD
ATOM     36  H   UNL     1       3.789  -7.006  29.102  0.00  0.00    +0.000 HD
ENDBRANCH  31  34
ENDBRANCH  28  31
ENDBRANCH  24  25
ENDBRANCH  22  24
ENDBRANCH  19  20
ENDBRANCH  10  19
TORSDOF 7
ENDMDL
MODEL 4
REMARK VINA RESULT:      -8.2      3.564      7.458
REMARK  Name = 
REMARK  7 active torsions:
REMARK  status: ('A' for Active; 'I' for Inactive)
REMARK    1  A    between atoms: C_7  and  C_8
REMARK    2  A    between atoms: C_24  and  C_26
REMARK    3  A    between atoms: C_26  and  C_29
REMARK    4  A    between atoms: N_31  and  C_33
REMARK    5  A    between atoms: C_33  and  C_36
REMARK    6  A    between atoms: C_41  and  S_42
REMARK    7  A    between atoms: S_42  and  N_45
REMARK                            x       y       z     vdW  Elec       q    Type
REMARK                         _______ _______ _______ _____ _____    ______ ____
ROOT
ATOM      1  C   UNL     1       8.732   1.510  21.485  0.00  0.00    +0.000 C 
ATOM      2  C   UNL     1       9.977   0.873  22.050  0.00  0.00    +0.000 A 
ATOM      3  C   UNL     1      10.076  -0.320  21.956  0.00  0.00    +0.000 A 
ATOM      4  C   UNL     1       9.986  -1.676  22.679  0.00  0.00    +0.000 A 
ATOM      5  C   UNL     1      10.100  -1.124  24.115  0.00  0.00    +0.000 A 
ATOM      6  C   UNL     1      10.014   0.120  24.763  0.00  0.00    +0.000 A 
ATOM      7  C   UNL     1      10.135   1.083  23.627  0.00  0.00    +0.000 A 
ATOM      8  C   UNL     1      10.129   2.456  23.867  0.00  0.00    +0.000 C 
ATOM      9  N   UNL     1       8.936   3.000  23.513  0.00  0.00    +0.000 N 
ATOM     10  C   UNL     1       8.000   3.808  24.177  0.00  0.00    +0.000 C 
ATOM     11  O   UNL     1       8.325   4.970  24.028  0.00  0.00    +0.000 OA
ATOM     12  C   UNL     1       8.492   2.650  22.331  0.00  0.00    +0.000 C 
ENDROOT
BRANCH   1  16
ATOM     13  C   UNL     1       5.723   1.389  19.039  0.00  0.00    +0.000 A 
ATOM     14  C   UNL     1       5.718   1.950  20.430  0.00  0.00    +0.000 A 
ATOM     15  C   UNL     1       6.445   1.506  21.579  0.00  0.00    +0.000 A 
ATOM     16  C   UNL     1       7.784   0.617  21.046  0.00  0.00    +0.000 A 
ATOM     17  C   UNL     1       7.641  -0.219  19.914  0.00  0.00    +0.000 A 
ATOM     18  C   UNL     1       6.529   0.162  18.883  0.00  0.00    +0.000 A 
ENDBRANCH   1  16
BRANCH  10  19
ATOM     19  C   UNL     1       7.597   3.200  25.411  0.00  0.00    +0.000 C 
BRANCH  19  20
ATOM     20  C   UNL     1       6.401   2.253  25.323  0.00  0.00    +0.000 C 
ATOM     21  O   UNL     1       5.463   2.558  26.117  0.00  0.00    +0.000 OA
ATOM     22  N   UNL     1       6.749   0.911  25.419  0.00  0.00    +0.000 N 
ATOM     23  H   UNL     1       6.907   0.788  26.393  0.00  0.00    +0.000 HD
BRANCH  22  24
ATOM     24  C   UNL     1       5.823  -0.049  24.829  0.00  0.00    +0.000 C 
BRANCH  24  25
ATOM     25  C   UNL     1       5.488  -1.127  25.851  0.00  0.00    +0.000 A 
ATOM     26  C   UNL     1       6.780  -1.408  26.602  0.00  0.00    +0.000 A 
ATOM     27  C   UNL     1       7.497  -2.656  26.566  0.00  0.00    +0.000 A 
ATOM     28  C   UNL     1       6.804  -3.720  25.720  0.00  0.00    +0.000 A 
ATOM     29  C   UNL     1       5.456  -3.703  25.156  0.00  0.00    +0.000 A 
ATOM     30  C   UNL     1       4.733  -2.325  25.521  0.00  0.00    +0.000 A 
BRANCH  28  31
ATOM     31  S   UNL     1       7.088  -5.219  26.682  0.00  0.00    +0.000 S 
ATOM     32  O   UNL     1       6.145  -6.204  26.095  0.00  0.00    +0.000 OA
ATOM     33  O   UNL     1       6.806  -4.921  28.049  0.00  0.00    +0.000 OA
BRANCH  31  34
ATOM     34  N   UNL     1       8.566  -5.814  26.485  0.00  0.00    +0.000 NA
ATOM     35  H   UNL     1       8.600  -6.810  26.483  0.00  0.00    +0.000 HD
ATOM     36  H   UNL     1       9.184  -5.501  27.221  0.00  0.00    +0.000 HD
ENDBRANCH  31  34
ENDBRANCH  28  31
ENDBRANCH  24  25
ENDBRANCH  22  24
ENDBRANCH  19  20
ENDBRANCH  10  19
TORSDOF 7
ENDMDL
MODEL 5
REMARK VINA RESULT:      -8.1      1.222      3.369
REMARK  Name = 
REMARK  7 active torsions:
REMARK  status: ('A' for Active; 'I' for Inactive)
REMARK    1  A    between atoms: C_7  and  C_8
REMARK    2  A    between atoms: C_24  and  C_26
REMARK    3  A    between atoms: C_26  and  C_29
REMARK    4  A    between atoms: N_31  and  C_33
REMARK    5  A    between atoms: C_33  and  C_36
REMARK    6  A    between atoms: C_41  and  S_42
REMARK    7  A    between atoms: S_42  and  N_45
REMARK                            x       y       z     vdW  Elec       q    Type
REMARK                         _______ _______ _______ _____ _____    ______ ____
ROOT
ATOM      1  C   UNL     1       6.555  -5.387  24.693  0.00  0.00    +0.000 C 
ATOM      2  C   UNL     1       5.830  -5.754  25.965  0.00  0.00    +0.000 A 
ATOM      3  C   UNL     1       4.744  -6.255  25.854  0.00  0.00    +0.000 A 
ATOM      4  C   UNL     1       3.222  -6.056  25.956  0.00  0.00    +0.000 A 
ATOM      5  C   UNL     1       3.264  -4.779  26.821  0.00  0.00    +0.000 A 
ATOM      6  C   UNL     1       4.212  -3.820  27.218  0.00  0.00    +0.000 A 
ATOM      7  C   UNL     1       5.505  -4.493  26.893  0.00  0.00    +0.000 A 
ATOM      8  C   UNL     1       6.715  -3.862  27.178  0.00  0.00    +0.000 C 
ATOM      9  N   UNL     1       7.284  -3.381  26.043  0.00  0.00    +0.000 N 
ATOM     10  C   UNL     1       7.772  -2.123  25.658  0.00  0.00    +0.000 C 
ATOM     11  O   UNL     1       8.932  -2.038  26.013  0.00  0.00    +0.000 OA
ATOM     12  C   UNL     1       7.330  -4.224  25.040  0.00  0.00    +0.000 C 
ENDROOT
BRANCH   1  16
ATOM     13  C   UNL     1       6.280  -3.869  21.134  0.00  0.00    +0.000 A 
ATOM     14  C   UNL     1       5.700  -3.296  22.393  0.00  0.00    +0.000 A 
ATOM     15  C   UNL     1       5.170  -3.984  23.530  0.00  0.00    +0.000 A 
ATOM     16  C   UNL     1       5.814  -5.550  23.548  0.00  0.00    +0.000 A 
ATOM     17  C   UNL     1       6.001  -6.224  22.319  0.00  0.00    +0.000 A 
ATOM     18  C   UNL     1       6.203  -5.341  21.045  0.00  0.00    +0.000 A 
ENDBRANCH   1  16
BRANCH  10  19
ATOM     19  C   UNL     1       6.765  -1.118  25.831  0.00  0.00    +0.000 C 
BRANCH  19  20
ATOM     20  C   UNL     1       6.923   0.134  24.970  0.00  0.00    +0.000 C 
ATOM     21  O   UNL     1       5.931   0.349  24.213  0.00  0.00    +0.000 OA
ATOM     22  N   UNL     1       8.127   0.181  24.277  0.00  0.00    +0.000 N 
ATOM     23  H   UNL     1       7.976  -0.446  23.520  0.00  0.00    +0.000 HD
BRANCH  22  24
ATOM     24  C   UNL     1       8.605   1.502  23.884  0.00  0.00    +0.000 C 
BRANCH  24  25
ATOM     25  C   UNL     1       8.773   1.554  22.372  0.00  0.00    +0.000 A 
ATOM     26  C   UNL     1       7.554   2.294  21.841  0.00  0.00    +0.000 A 
ATOM     27  C   UNL     1       6.540   1.711  21.002  0.00  0.00    +0.000 A 
ATOM     28  C   UNL     1       6.822   0.255  20.645  0.00  0.00    +0.000 A 
ATOM     29  C   UNL     1       8.048  -0.514  20.848  0.00  0.00    +0.000 A 
ATOM     30  C   UNL     1       9.144   0.396  21.576  0.00  0.00    +0.000 A 
BRANCH  28  31
ATOM     31  S   UNL     1       6.280   0.171  18.927  0.00  0.00    +0.000 S 
ATOM     32  O   UNL     1       7.536   0.315  18.148  0.00  0.00    +0.000 OA
ATOM     33  O   UNL     1       5.360   1.240  18.705  0.00  0.00    +0.000 OA
BRANCH  31  34
ATOM     34  N   UNL     1       5.653  -1.255  18.541  0.00  0.00    +0.000 NA
ATOM     35  H   UNL     1       6.334  -1.973  18.420  0.00  0.00    +0.000 HD
ATOM     36  H   UNL     1       5.131  -1.200  17.677  0.00  0.00    +0.000 HD
ENDBRANCH  31  34
ENDBRANCH  28  31
ENDBRANCH  24  25
ENDBRANCH  22  24
ENDBRANCH  19  20
ENDBRANCH  10  19
TORSDOF 7
ENDMDL
MODEL 6
REMARK VINA RESULT:      -8.1      3.091      6.520
REMARK  Name = 
REMARK  7 active torsions:
REMARK  status: ('A' for Active; 'I' for Inactive)
REMARK    1  A    between atoms: C_7  and  C_8
REMARK    2  A    between atoms: C_24  and  C_26
REMARK    3  A    between atoms: C_26  and  C_29
REMARK    4  A    between atoms: N_31  and  C_33
REMARK    5  A    between atoms: C_33  and  C_36
REMARK    6  A    between atoms: C_41  and  S_42
REMARK    7  A    between atoms: S_42  and  N_45
REMARK                            x       y       z     vdW  Elec       q    Type
REMARK                         _______ _______ _______ _____ _____    ______ ____
ROOT
ATOM      1  C   UNL     1       7.269   2.196  23.319  0.00  0.00    +0.000 C 
ATOM      2  C   UNL     1       7.547   2.351  21.844  0.00  0.00    +0.000 A 
ATOM      3  C   UNL     1       6.611   2.265  21.096  0.00  0.00    +0.000 A 
ATOM      4  C   UNL     1       5.859   1.392  20.077  0.00  0.00    +0.000 A 
ATOM      5  C   UNL     1       7.017   0.415  19.785  0.00  0.00    +0.000 A 
ATOM      6  C   UNL     1       8.260   0.077  20.346  0.00  0.00    +0.000 A 
ATOM      7  C   UNL     1       8.523   1.225  21.264  0.00  0.00    +0.000 A 
ATOM      8  C   UNL     1       9.706   1.280  21.998  0.00  0.00    +0.000 C 
ATOM      9  N   UNL     1       9.477   0.972  23.300  0.00  0.00    +0.000 N 
ATOM     10  C   UNL     1      10.042   0.049  24.195  0.00  0.00    +0.000 C 
ATOM     11  O   UNL     1      11.010   0.567  24.717  0.00  0.00    +0.000 OA
ATOM     12  C   UNL     1       8.462   1.592  23.851  0.00  0.00    +0.000 C 
ENDROOT
BRANCH   1  16
ATOM     13  C   UNL     1       5.174   1.086  26.389  0.00  0.00    +0.000 A 
ATOM     14  C   UNL     1       6.082   0.218  25.570  0.00  0.00    +0.000 A 
ATOM     15  C   UNL     1       6.354   0.277  24.167  0.00  0.00    +0.000 A 
ATOM     16  C   UNL     1       5.978   1.836  23.621  0.00  0.00    +0.000 A 
ATOM     17  C   UNL     1       4.853   2.496  24.167  0.00  0.00    +0.000 A 
ATOM     18  C   UNL     1       4.404   2.071  25.603  0.00  0.00    +0.000 A 
ENDBRANCH   1  16
BRANCH  10  19
ATOM     19  C   UNL     1       9.988  -1.276  23.652  0.00  0.00    +0.000 C 
BRANCH  19  20
ATOM     20  C   UNL     1       9.699  -2.392  24.654  0.00  0.00    +0.000 C 
ATOM     21  O   UNL     1      10.032  -3.539  24.234  0.00  0.00    +0.000 OA
ATOM     22  N   UNL     1       8.399  -2.373  25.144  0.00  0.00    +0.000 N 
ATOM     23  H   UNL     1       7.871  -2.765  24.398  0.00  0.00    +0.000 HD
BRANCH  22  24
ATOM     24  C   UNL     1       8.178  -3.005  26.441  0.00  0.00    +0.000 C 
BRANCH  24  25
ATOM     25  C   UNL     1       6.980  -3.941  26.354  0.00  0.00    +0.000 A 
ATOM     26  C   UNL     1       7.429  -5.117  25.500  0.00  0.00    +0.000 A 
ATOM     27  C   UNL     1       6.889  -5.447  24.208  0.00  0.00    +0.000 A 
ATOM     28  C   UNL     1       5.763  -4.514  23.772  0.00  0.00    +0.000 A 
ATOM     29  C   UNL     1       5.046  -3.517  24.564  0.00  0.00    +0.000 A 
ATOM     30  C   UNL     1       5.635  -3.480  26.050  0.00  0.00    +0.000 A 
BRANCH  28  31
ATOM     31  S   UNL     1       4.618  -5.647  22.962  0.00  0.00    +0.000 S 
ATOM     32  O   UNL     1       5.218  -5.864  21.622  0.00  0.00    +0.000 OA
ATOM     33  O   UNL     1       3.340  -5.013  22.906  0.00  0.00    +0.000 OA
BRANCH  31  34
ATOM     34  N   UNL     1       4.550  -7.082  23.680  0.00  0.00    +0.000 NA
ATOM     35  H   UNL     1       3.689  -7.561  23.536  0.00  0.00    +0.000 HD
ATOM     36  H   UNL     1       4.673  -6.993  24.679  0.00  0.00    +0.000 HD
ENDBRANCH  31  34
ENDBRANCH  28  31
ENDBRANCH  24  25
ENDBRANCH  22  24
ENDBRANCH  19  20
ENDBRANCH  10  19
TORSDOF 7
ENDMDL
MODEL 7
REMARK VINA RESULT:      -7.7      2.832      7.170
REMARK  Name = 
REMARK  7 active torsions:
REMARK  status: ('A' for Active; 'I' for Inactive)
REMARK    1  A    between atoms: C_7  and  C_8
REMARK    2  A    between atoms: C_24  and  C_26
REMARK    3  A    between atoms: C_26  and  C_29
REMARK    4  A    between atoms: N_31  and  C_33
REMARK    5  A    between atoms: C_33  and  C_36
REMARK    6  A    between atoms: C_41  and  S_42
REMARK    7  A    between atoms: S_42  and  N_45
REMARK                            x       y       z     vdW  Elec       q    Type
REMARK                         _______ _______ _______ _____ _____    ______ ____
ROOT
ATOM      1  C   UNL     1       8.581   1.340  25.001  0.00  0.00    +0.000 C 
ATOM      2  C   UNL     1       8.944   2.738  24.567  0.00  0.00    +0.000 A 
ATOM      3  C   UNL     1       8.289   3.640  25.013  0.00  0.00    +0.000 A 
ATOM      4  C   UNL     1       7.181   4.675  24.748  0.00  0.00    +0.000 A 
ATOM      5  C   UNL     1       7.239   4.611  23.207  0.00  0.00    +0.000 A 
ATOM      6  C   UNL     1       7.791   3.780  22.219  0.00  0.00    +0.000 A 
ATOM      7  C   UNL     1       8.782   2.974  22.994  0.00  0.00    +0.000 A 
ATOM      8  C   UNL     1       9.580   2.033  22.347  0.00  0.00    +0.000 C 
ATOM      9  N   UNL     1       9.143   0.773  22.606  0.00  0.00    +0.000 N 
ATOM     10  C   UNL     1       8.795  -0.321  21.798  0.00  0.00    +0.000 C 
ATOM     11  O   UNL     1       9.804  -0.956  21.560  0.00  0.00    +0.000 OA
ATOM     12  C   UNL     1       8.904   0.513  23.868  0.00  0.00    +0.000 C 
ENDROOT
BRANCH   1  16
ATOM     13  C   UNL     1       5.952  -1.305  26.070  0.00  0.00    +0.000 A 
ATOM     14  C   UNL     1       5.997  -0.572  24.761  0.00  0.00    +0.000 A 
ATOM     15  C   UNL     1       6.423   0.767  24.497  0.00  0.00    +0.000 A 
ATOM     16  C   UNL     1       7.439   1.257  25.761  0.00  0.00    +0.000 A 
ATOM     17  C   UNL     1       7.138   0.841  27.078  0.00  0.00    +0.000 A 
ATOM     18  C   UNL     1       6.319  -0.481  27.239  0.00  0.00    +0.000 A 
ENDBRANCH   1  16
BRANCH  10  19
ATOM     19  C   UNL     1       7.796   0.058  20.842  0.00  0.00    +0.000 C 
BRANCH  19  20
ATOM     20  C   UNL     1       6.719  -0.988  20.559  0.00  0.00    +0.000 C 
ATOM     21  O   UNL     1       5.761  -0.543  19.861  0.00  0.00    +0.000 OA
ATOM     22  N   UNL     1       6.271  -1.644  21.700  0.00  0.00    +0.000 N 
ATOM     23  H   UNL     1       5.662  -0.979  22.119  0.00  0.00    +0.000 HD
BRANCH  22  24
ATOM     24  C   UNL     1       5.686  -2.966  21.508  0.00  0.00    +0.000 C 
BRANCH  24  25
ATOM     25  C   UNL     1       6.647  -4.029  22.023  0.00  0.00    +0.000 A 
ATOM     26  C   UNL     1       5.896  -4.777  23.114  0.00  0.00    +0.000 A 
ATOM     27  C   UNL     1       6.258  -4.779  24.507  0.00  0.00    +0.000 A 
ATOM     28  C   UNL     1       7.523  -3.977  24.798  0.00  0.00    +0.000 A 
ATOM     29  C   UNL     1       8.492  -3.425  23.854  0.00  0.00    +0.000 A 
ATOM     30  C   UNL     1       8.033  -3.749  22.356  0.00  0.00    +0.000 A 
BRANCH  28  31
ATOM     31  S   UNL     1       8.338  -4.989  26.049  0.00  0.00    +0.000 S 
ATOM     32  O   UNL     1       7.318  -6.008  26.404  0.00  0.00    +0.000 OA
ATOM     33  O   UNL     1       8.682  -4.139  27.144  0.00  0.00    +0.000 OA
BRANCH  31  34
ATOM     34  N   UNL     1       9.610  -5.782  25.477  0.00  0.00    +0.000 NA
ATOM     35  H   UNL     1      10.204  -6.152  26.186  0.00  0.00    +0.000 HD
ATOM     36  H   UNL     1      10.183  -5.180  24.900  0.00  0.00    +0.000 HD
ENDBRANCH  31  34
ENDBRANCH  28  31
ENDBRANCH  24  25
ENDBRANCH  22  24
ENDBRANCH  19  20
ENDBRANCH  10  19
TORSDOF 7
ENDMDL
MODEL 8
REMARK VINA RESULT:      -7.4      3.176      7.213
REMARK  Name = 
REMARK  7 active torsions:
REMARK  status: ('A' for Active; 'I' for Inactive)
REMARK    1  A    between atoms: C_7  and  C_8
REMARK    2  A    between atoms: C_24  and  C_26
REMARK    3  A    between atoms: C_26  and  C_29
REMARK    4  A    between atoms: N_31  and  C_33
REMARK    5  A    between atoms: C_33  and  C_36
REMARK    6  A    between atoms: C_41  and  S_42
REMARK    7  A    between atoms: S_42  and  N_45
REMARK                            x       y       z     vdW  Elec       q    Type
REMARK                         _______ _______ _______ _____ _____    ______ ____
ROOT
ATOM      1  C   UNL     1       7.519   2.418  23.293  0.00  0.00    +0.000 C 
ATOM      2  C   UNL     1       7.753   2.426  21.802  0.00  0.00    +0.000 A 
ATOM      3  C   UNL     1       6.794   2.276  21.095  0.00  0.00    +0.000 A 
ATOM      4  C   UNL     1       6.006   1.314  20.188  0.00  0.00    +0.000 A 
ATOM      5  C   UNL     1       7.150   0.304  19.958  0.00  0.00    +0.000 A 
ATOM      6  C   UNL     1       8.408   0.011  20.511  0.00  0.00    +0.000 A 
ATOM      7  C   UNL     1       8.704   1.241  21.305  0.00  0.00    +0.000 A 
ATOM      8  C   UNL     1       9.909   1.357  21.995  0.00  0.00    +0.000 C 
ATOM      9  N   UNL     1       9.719   1.179  23.327  0.00  0.00    +0.000 N 
ATOM     10  C   UNL     1      10.306   0.343  24.290  0.00  0.00    +0.000 C 
ATOM     11  O   UNL     1      11.293   0.901  24.730  0.00  0.00    +0.000 OA
ATOM     12  C   UNL     1       8.725   1.858  23.845  0.00  0.00    +0.000 C 
ENDROOT
BRANCH   1  16
ATOM     13  C   UNL     1       5.140   2.897  26.319  0.00  0.00    +0.000 A 
ATOM     14  C   UNL     1       6.221   1.865  26.191  0.00  0.00    +0.000 A 
ATOM     15  C   UNL     1       6.672   1.178  25.020  0.00  0.00    +0.000 A 
ATOM     16  C   UNL     1       6.237   2.099  23.667  0.00  0.00    +0.000 A 
ATOM     17  C   UNL     1       4.995   2.777  23.674  0.00  0.00    +0.000 A 
ATOM     18  C   UNL     1       4.399   3.157  25.069  0.00  0.00    +0.000 A 
ENDBRANCH   1  16
BRANCH  10  19
ATOM     19  C   UNL     1      10.228  -1.029  23.880  0.00  0.00    +0.000 C 
BRANCH  19  20
ATOM     20  C   UNL     1       8.827  -1.637  23.866  0.00  0.00    +0.000 C 
ATOM     21  O   UNL     1       8.382  -1.893  25.023  0.00  0.00    +0.000 OA
ATOM     22  N   UNL     1       8.705  -2.725  23.009  0.00  0.00    +0.000 N 
ATOM     23  H   UNL     1       9.133  -3.463  23.519  0.00  0.00    +0.000 HD
BRANCH  22  24
ATOM     24  C   UNL     1       7.363  -3.024  22.519  0.00  0.00    +0.000 C 
BRANCH  24  25
ATOM     25  C   UNL     1       6.880  -4.333  23.129  0.00  0.00    +0.000 A 
ATOM     26  C   UNL     1       5.620  -3.990  23.909  0.00  0.00    +0.000 A 
ATOM     27  C   UNL     1       5.485  -4.091  25.338  0.00  0.00    +0.000 A 
ATOM     28  C   UNL     1       6.739  -4.629  26.021  0.00  0.00    +0.000 A 
ATOM     29  C   UNL     1       7.919  -5.240  25.413  0.00  0.00    +0.000 A 
ATOM     30  C   UNL     1       7.760  -5.258  23.822  0.00  0.00    +0.000 A 
BRANCH  28  31
ATOM     31  S   UNL     1       6.049  -5.687  27.309  0.00  0.00    +0.000 S 
ATOM     32  O   UNL     1       7.223  -6.042  28.146  0.00  0.00    +0.000 OA
ATOM     33  O   UNL     1       5.454  -6.818  26.674  0.00  0.00    +0.000 OA
BRANCH  31  34
ATOM     34  N   UNL     1       5.015  -4.914  28.261  0.00  0.00    +0.000 NA
ATOM     35  H   UNL     1       4.839  -5.379  29.125  0.00  0.00    +0.000 HD
ATOM     36  H   UNL     1       4.120  -4.797  27.805  0.00  0.00    +0.000 HD
ENDBRANCH  31  34
ENDBRANCH  28  31
ENDBRANCH  24  25
ENDBRANCH  22  24
ENDBRANCH  19  20
ENDBRANCH  10  19
TORSDOF 7
ENDMDL
MODEL 9
REMARK VINA RESULT:      -7.4      1.723      2.173
REMARK  Name = 
REMARK  7 active torsions:
REMARK  status: ('A' for Active; 'I' for Inactive)
REMARK    1  A    between atoms: C_7  and  C_8
REMARK    2  A    between atoms: C_24  and  C_26
REMARK    3  A    between atoms: C_26  and  C_29
REMARK    4  A    between atoms: N_31  and  C_33
REMARK    5  A    between atoms: C_33  and  C_36
REMARK    6  A    between atoms: C_41  and  S_42
REMARK    7  A    between atoms: S_42  and  N_45
REMARK                            x       y       z     vdW  Elec       q    Type
REMARK                         _______ _______ _______ _____ _____    ______ ____
ROOT
ATOM      1  C   UNL     1       5.783  -4.049  24.900  0.00  0.00    +0.000 C 
ATOM      2  C   UNL     1       6.983  -4.217  24.001  0.00  0.00    +0.000 A 
ATOM      3  C   UNL     1       7.723  -5.133  24.236  0.00  0.00    +0.000 A 
ATOM      4  C   UNL     1       9.073  -5.573  24.830  0.00  0.00    +0.000 A 
ATOM      5  C   UNL     1       9.745  -4.185  24.800  0.00  0.00    +0.000 A 
ATOM      6  C   UNL     1       9.360  -2.844  24.630  0.00  0.00    +0.000 A 
ATOM      7  C   UNL     1       7.989  -2.975  24.051  0.00  0.00    +0.000 A 
ATOM      8  C   UNL     1       7.264  -1.837  23.702  0.00  0.00    +0.000 C 
ATOM      9  N   UNL     1       6.287  -1.592  24.612  0.00  0.00    +0.000 N 
ATOM     10  C   UNL     1       5.925  -0.468  25.372  0.00  0.00    +0.000 C 
ATOM     11  O   UNL     1       5.172   0.216  24.706  0.00  0.00    +0.000 OA
ATOM     12  C   UNL     1       5.554  -2.629  24.937  0.00  0.00    +0.000 C 
ENDROOT
BRANCH   1  16
ATOM     13  C   UNL     1       3.783  -4.562  28.184  0.00  0.00    +0.000 A 
ATOM     14  C   UNL     1       4.893  -3.578  27.962  0.00  0.00    +0.000 A 
ATOM     15  C   UNL     1       6.061  -3.712  27.147  0.00  0.00    +0.000 A 
ATOM     16  C   UNL     1       5.756  -4.900  25.978  0.00  0.00    +0.000 A 
ATOM     17  C   UNL     1       4.995  -6.035  26.343  0.00  0.00    +0.000 A 
ATOM     18  C   UNL     1       3.991  -5.869  27.530  0.00  0.00    +0.000 A 
ENDBRANCH   1  16
BRANCH  10  19
ATOM     19  C   UNL     1       7.044   0.007  26.130  0.00  0.00    +0.000 C 
BRANCH  19  20
ATOM     20  C   UNL     1       7.565   1.391  25.747  0.00  0.00    +0.000 C 
ATOM     21  O   UNL     1       6.962   2.333  26.339  0.00  0.00    +0.000 OA
ATOM     22  N   UNL     1       7.632   1.596  24.374  0.00  0.00    +0.000 N 
ATOM     23  H   UNL     1       6.685   1.769  24.125  0.00  0.00    +0.000 HD
BRANCH  22  24
ATOM     24  C   UNL     1       8.576   2.606  23.908  0.00  0.00    +0.000 C 
BRANCH  24  25
ATOM     25  C   UNL     1       8.593   2.624  22.386  0.00  0.00    +0.000 A 
ATOM     26  C   UNL     1       7.169   2.941  21.957  0.00  0.00    +0.000 A 
ATOM     27  C   UNL     1       6.308   2.040  21.235  0.00  0.00    +0.000 A 
ATOM     28  C   UNL     1       6.983   0.716  20.889  0.00  0.00    +0.000 A 
ATOM     29  C   UNL     1       8.396   0.356  20.993  0.00  0.00    +0.000 A 
ATOM     30  C   UNL     1       9.225   1.588  21.588  0.00  0.00    +0.000 A 
BRANCH  28  31
ATOM     31  S   UNL     1       6.348   0.384  19.234  0.00  0.00    +0.000 S 
ATOM     32  O   UNL     1       5.732  -0.962  19.352  0.00  0.00    +0.000 OA
ATOM     33  O   UNL     1       7.450   0.416  18.327  0.00  0.00    +0.000 OA
BRANCH  31  34
ATOM     34  N   UNL     1       5.179   1.395  18.801  0.00  0.00    +0.000 NA
ATOM     35  H   UNL     1       4.688   1.113  17.981  0.00  0.00    +0.000 HD
ATOM     36  H   UNL     1       5.548   2.318  18.618  0.00  0.00    +0.000 HD
ENDBRANCH  31  34
ENDBRANCH  28  31
ENDBRANCH  24  25
ENDBRANCH  22  24
ENDBRANCH  19  20
ENDBRANCH  10  19
TORSDOF 7
ENDMDL
