MODEL 1
REMARK VINA RESULT:      -8.9      0.000      0.000
REMARK  Name = 
REMARK  5 active torsions:
REMARK  status: ('A' for Active; 'I' for Inactive)
REMARK    1  A    between atoms: C_7  and  C_8
REMARK    2  A    between atoms: C_24  and  C_26
REMARK    3  A    between atoms: C_26  and  C_29
REMARK    4  A    between atoms: N_31  and  C_33
REMARK    5  A    between atoms: C_40  and  N_41
REMARK                            x       y       z     vdW  Elec       q    Type
REMARK                         _______ _______ _______ _____ _____    ______ ____
ROOT
ATOM      1  C   UNL     1       7.367   0.874  23.833  0.00  0.00    +0.000 C 
ATOM      2  C   UNL     1       6.442   1.971  23.773  0.00  0.00    +0.000 A 
ATOM      3  C   UNL     1       5.186   1.880  24.348  0.00  0.00    +0.000 A 
ATOM      4  C   UNL     1       4.229   2.955  24.271  0.00  0.00    +0.000 A 
ATOM      5  C   UNL     1       4.664   3.852  23.091  0.00  0.00    +0.000 A 
ATOM      6  C   UNL     1       5.773   3.911  22.252  0.00  0.00    +0.000 A 
ATOM      7  C   UNL     1       6.490   2.455  22.243  0.00  0.00    +0.000 A 
ATOM      8  C   UNL     1       6.276   1.731  21.031  0.00  0.00    +0.000 C 
ATOM      9  N   UNL     1       7.090   0.728  21.314  0.00  0.00    +0.000 N 
ATOM     10  C   UNL     1       7.294  -0.354  20.383  0.00  0.00    +0.000 C 
ATOM     11  O   UNL     1       8.163   0.104  19.630  0.00  0.00    +0.000 OA
ATOM     12  C   UNL     1       7.488   0.191  22.494  0.00  0.00    +0.000 C 
ENDROOT
BRANCH   1  16
ATOM     13  C   UNL     1      11.291   0.969  24.226  0.00  0.00    +0.000 A 
ATOM     14  C   UNL     1      10.456  -0.010  24.970  0.00  0.00    +0.000 A 
ATOM     15  C   UNL     1       9.032   0.100  25.384  0.00  0.00    +0.000 A 
ATOM     16  C   UNL     1       8.444   1.320  24.550  0.00  0.00    +0.000 A 
ATOM     17  C   UNL     1       9.138   2.560  24.403  0.00  0.00    +0.000 A 
ATOM     18  C   UNL     1      10.558   2.266  24.086  0.00  0.00    +0.000 A 
ENDBRANCH   1  16
BRANCH  10  19
ATOM     19  C   UNL     1       5.952  -0.646  19.895  0.00  0.00    +0.000 C 
BRANCH  19  20
ATOM     20  C   UNL     1       5.536  -2.101  19.849  0.00  0.00    +0.000 C 
ATOM     21  O   UNL     1       5.453  -2.764  18.867  0.00  0.00    +0.000 OA
ATOM     22  N   UNL     1       5.688  -2.622  21.093  0.00  0.00    +0.000 N 
ATOM     23  H   UNL     1       4.827  -3.158  21.181  0.00  0.00    +0.000 HD
BRANCH  22  24
ATOM     24  C   UNL     1       6.659  -3.372  21.283  0.00  0.00    +0.000 A 
ATOM     25  C   UNL     1       5.942  -4.712  21.178  0.00  0.00    +0.000 A 
ATOM     26  C   UNL     1       6.235  -5.939  22.005  0.00  0.00    +0.000 A 
ATOM     27  C   UNL     1       7.384  -5.600  22.890  0.00  0.00    +0.000 A 
ATOM     28  C   UNL     1       7.903  -4.423  23.351  0.00  0.00    +0.000 A 
ATOM     29  C   UNL     1       7.709  -3.328  22.322  0.00  0.00    +0.000 A 
BRANCH  28  30
ATOM     30  N   UNL     1       7.658  -4.242  24.633  0.00  0.00    +0.000 N 
ATOM     31  C   UNL     1       8.939  -3.952  25.218  0.00  0.00    +0.000 C 
ATOM     32  O   UNL     1       9.944  -4.048  24.551  0.00  0.00    +0.000 OA
ATOM     33  C   UNL     1       8.989  -4.516  26.658  0.00  0.00    +0.000 C 
ATOM     34  C   UNL     1       7.570  -5.040  26.906  0.00  0.00    +0.000 C 
ATOM     35  C   UNL     1       6.938  -5.189  25.508  0.00  0.00    +0.000 C 
ENDBRANCH  28  30
ENDBRANCH  22  24
ENDBRANCH  19  20
ENDBRANCH  10  19
TORSDOF 5
ENDMDL
MODEL 2
REMARK VINA RESULT:      -8.6      2.005      7.531
REMARK  Name = 
REMARK  5 active torsions:
REMARK  status: ('A' for Active; 'I' for Inactive)
REMARK    1  A    between atoms: C_7  and  C_8
REMARK    2  A    between atoms: C_24  and  C_26
REMARK    3  A    between atoms: C_26  and  C_29
REMARK    4  A    between atoms: N_31  and  C_33
REMARK    5  A    between atoms: C_40  and  N_41
REMARK                            x       y       z     vdW  Elec       q    Type
REMARK                         _______ _______ _______ _____ _____    ______ ____
ROOT
ATOM      1  C   UNL     1       7.336  -4.957  25.329  0.00  0.00    +0.000 C 
ATOM      2  C   UNL     1       6.806  -4.876  23.996  0.00  0.00    +0.000 A 
ATOM      3  C   UNL     1       7.457  -5.475  22.930  0.00  0.00    +0.000 A 
ATOM      4  C   UNL     1       6.962  -5.378  21.580  0.00  0.00    +0.000 A 
ATOM      5  C   UNL     1       6.010  -4.162  21.543  0.00  0.00    +0.000 A 
ATOM      6  C   UNL     1       5.467  -3.304  22.494  0.00  0.00    +0.000 A 
ATOM      7  C   UNL     1       6.414  -3.331  23.813  0.00  0.00    +0.000 A 
ATOM      8  C   UNL     1       7.197  -2.147  23.967  0.00  0.00    +0.000 C 
ATOM      9  N   UNL     1       7.688  -2.450  25.156  0.00  0.00    +0.000 N 
ATOM     10  C   UNL     1       8.579  -1.552  25.847  0.00  0.00    +0.000 C 
ATOM     11  O   UNL     1       7.795  -0.770  26.399  0.00  0.00    +0.000 OA
ATOM     12  C   UNL     1       7.931  -3.640  25.759  0.00  0.00    +0.000 C 
ENDROOT
BRANCH   1  16
ATOM     13  C   UNL     1       4.095  -4.798  27.571  0.00  0.00    +0.000 A 
ATOM     14  C   UNL     1       5.456  -4.824  28.169  0.00  0.00    +0.000 A 
ATOM     15  C   UNL     1       6.711  -5.391  27.609  0.00  0.00    +0.000 A 
ATOM     16  C   UNL     1       6.410  -5.643  26.068  0.00  0.00    +0.000 A 
ATOM     17  C   UNL     1       5.202  -6.250  25.607  0.00  0.00    +0.000 A 
ATOM     18  C   UNL     1       4.063  -5.636  26.332  0.00  0.00    +0.000 A 
ENDBRANCH   1  16
BRANCH  10  19
ATOM     19  C   UNL     1       9.487  -1.096  24.801  0.00  0.00    +0.000 C 
BRANCH  19  20
ATOM     20  C   UNL     1      10.072   0.291  24.953  0.00  0.00    +0.000 C 
ATOM     21  O   UNL     1      11.230   0.552  24.992  0.00  0.00    +0.000 OA
ATOM     22  N   UNL     1       9.114   1.192  24.615  0.00  0.00    +0.000 N 
ATOM     23  H   UNL     1       9.229   1.879  25.357  0.00  0.00    +0.000 HD
BRANCH  22  24
ATOM     24  C   UNL     1       9.223   1.756  23.514  0.00  0.00    +0.000 A 
ATOM     25  C   UNL     1       8.455   3.033  23.830  0.00  0.00    +0.000 A 
ATOM     26  C   UNL     1       7.546   3.775  22.883  0.00  0.00    +0.000 A 
ATOM     27  C   UNL     1       7.594   3.051  21.581  0.00  0.00    +0.000 A 
ATOM     28  C   UNL     1       7.925   1.775  21.225  0.00  0.00    +0.000 A 
ATOM     29  C   UNL     1       8.997   1.236  22.150  0.00  0.00    +0.000 A 
BRANCH  28  30
ATOM     30  N   UNL     1       6.868   1.068  20.876  0.00  0.00    +0.000 N 
ATOM     31  C   UNL     1       7.399  -0.080  20.193  0.00  0.00    +0.000 C 
ATOM     32  O   UNL     1       8.582  -0.144  19.946  0.00  0.00    +0.000 OA
ATOM     33  C   UNL     1       6.419  -0.516  19.077  0.00  0.00    +0.000 C 
ATOM     34  C   UNL     1       5.204   0.400  19.265  0.00  0.00    +0.000 C 
ATOM     35  C   UNL     1       5.709   1.580  20.119  0.00  0.00    +0.000 C 
ENDBRANCH  28  30
ENDBRANCH  22  24
ENDBRANCH  19  20
ENDBRANCH  10  19
TORSDOF 5
ENDMDL
MODEL 3
REMARK VINA RESULT:      -8.6      2.655      7.864
REMARK  Name = 
REMARK  5 active torsions:
REMARK  status: ('A' for Active; 'I' for Inactive)
REMARK    1  A    between atoms: C_7  and  C_8
REMARK    2  A    between atoms: C_24  and  C_26
REMARK    3  A    between atoms: C_26  and  C_29
REMARK    4  A    between atoms: N_31  and  C_33
REMARK    5  A    between atoms: C_40  and  N_41
REMARK                            x       y       z     vdW  Elec       q    Type
REMARK                         _______ _______ _______ _____ _____    ______ ____
ROOT
ATOM      1  C   UNL     1       5.649  -5.937  26.558  0.00  0.00    +0.000 C 
ATOM      2  C   UNL     1       4.623  -5.812  25.561  0.00  0.00    +0.000 A 
ATOM      3  C   UNL     1       4.633  -6.599  24.421  0.00  0.00    +0.000 A 
ATOM      4  C   UNL     1       3.633  -6.468  23.393  0.00  0.00    +0.000 A 
ATOM      5  C   UNL     1       2.993  -5.073  23.572  0.00  0.00    +0.000 A 
ATOM      6  C   UNL     1       3.075  -4.064  24.526  0.00  0.00    +0.000 A 
ATOM      7  C   UNL     1       4.474  -4.231  25.332  0.00  0.00    +0.000 A 
ATOM      8  C   UNL     1       5.446  -3.245  24.980  0.00  0.00    +0.000 C 
ATOM      9  N   UNL     1       6.337  -3.585  25.896  0.00  0.00    +0.000 N 
ATOM     10  C   UNL     1       7.584  -2.874  26.025  0.00  0.00    +0.000 C 
ATOM     11  O   UNL     1       7.267  -1.907  26.729  0.00  0.00    +0.000 OA
ATOM     12  C   UNL     1       6.597  -4.765  26.513  0.00  0.00    +0.000 C 
ENDROOT
BRANCH   1  16
ATOM     13  C   UNL     1       4.003  -4.941  30.002  0.00  0.00    +0.000 A 
ATOM     14  C   UNL     1       5.419  -5.384  29.913  0.00  0.00    +0.000 A 
ATOM     15  C   UNL     1       6.061  -6.266  28.903  0.00  0.00    +0.000 A 
ATOM     16  C   UNL     1       5.024  -6.355  27.701  0.00  0.00    +0.000 A 
ATOM     17  C   UNL     1       3.626  -6.568  27.903  0.00  0.00    +0.000 A 
ATOM     18  C   UNL     1       3.172  -5.682  29.003  0.00  0.00    +0.000 A 
ENDBRANCH   1  16
BRANCH  10  19
ATOM     19  C   UNL     1       8.020  -2.690  24.646  0.00  0.00    +0.000 C 
BRANCH  19  20
ATOM     20  C   UNL     1       9.510  -2.594  24.400  0.00  0.00    +0.000 C 
ATOM     21  O   UNL     1      10.208  -3.479  24.026  0.00  0.00    +0.000 OA
ATOM     22  N   UNL     1       9.830  -1.282  24.265  0.00  0.00    +0.000 N 
ATOM     23  H   UNL     1      10.680  -1.234  24.824  0.00  0.00    +0.000 HD
BRANCH  22  24
ATOM     24  C   UNL     1      10.071  -0.868  23.119  0.00  0.00    +0.000 A 
ATOM     25  C   UNL     1      10.452   0.566  23.464  0.00  0.00    +0.000 A 
ATOM     26  C   UNL     1      10.122   1.790  22.648  0.00  0.00    +0.000 A 
ATOM     27  C   UNL     1       9.408   1.317  21.428  0.00  0.00    +0.000 A 
ATOM     28  C   UNL     1       8.709   0.183  21.127  0.00  0.00    +0.000 A 
ATOM     29  C   UNL     1       9.288  -1.002  21.873  0.00  0.00    +0.000 A 
BRANCH  28  30
ATOM     30  N   UNL     1       7.412   0.407  21.049  0.00  0.00    +0.000 N 
ATOM     31  C   UNL     1       7.069   0.125  19.682  0.00  0.00    +0.000 C 
ATOM     32  O   UNL     1       7.941  -0.107  18.875  0.00  0.00    +0.000 OA
ATOM     33  C   UNL     1       5.922   1.061  19.233  0.00  0.00    +0.000 C 
ATOM     34  C   UNL     1       5.535   1.819  20.509  0.00  0.00    +0.000 C 
ATOM     35  C   UNL     1       6.732   1.649  21.465  0.00  0.00    +0.000 C 
ENDBRANCH  28  30
ENDBRANCH  22  24
ENDBRANCH  19  20
ENDBRANCH  10  19
TORSDOF 5
ENDMDL
MODEL 4
REMARK VINA RESULT:      -8.5      2.387      6.854
REMARK  Name = 
REMARK  5 active torsions:
REMARK  status: ('A' for Active; 'I' for Inactive)
REMARK    1  A    between atoms: C_7  and  C_8
REMARK    2  A    between atoms: C_24  and  C_26
REMARK    3  A    between atoms: C_26  and  C_29
REMARK    4  A    between atoms: N_31  and  C_33
REMARK    5  A    between atoms: C_40  and  N_41
REMARK                            x       y       z     vdW  Elec       q    Type
REMARK                         _______ _______ _______ _____ _____    ______ ____
ROOT
ATOM      1  C   UNL     1       5.472  -3.406  24.796  0.00  0.00    +0.000 C 
ATOM      2  C   UNL     1       6.713  -4.047  25.135  0.00  0.00    +0.000 A 
ATOM      3  C   UNL     1       7.567  -3.499  26.077  0.00  0.00    +0.000 A 
ATOM      4  C   UNL     1       8.831  -4.107  26.407  0.00  0.00    +0.000 A 
ATOM      5  C   UNL     1       9.196  -5.041  25.231  0.00  0.00    +0.000 A 
ATOM      6  C   UNL     1       8.543  -5.487  24.087  0.00  0.00    +0.000 A 
ATOM      7  C   UNL     1       7.366  -4.431  23.720  0.00  0.00    +0.000 A 
ATOM      8  C   UNL     1       7.672  -3.620  22.585  0.00  0.00    +0.000 C 
ATOM      9  N   UNL     1       6.490  -3.033  22.501  0.00  0.00    +0.000 N 
ATOM     10  C   UNL     1       6.205  -2.073  21.466  0.00  0.00    +0.000 C 
ATOM     11  O   UNL     1       5.884  -2.795  20.513  0.00  0.00    +0.000 OA
ATOM     12  C   UNL     1       5.548  -2.757  23.437  0.00  0.00    +0.000 C 
ENDROOT
BRANCH   1  16
ATOM     13  C   UNL     1       4.108  -7.107  24.738  0.00  0.00    +0.000 A 
ATOM     14  C   UNL     1       3.663  -6.096  23.743  0.00  0.00    +0.000 A 
ATOM     15  C   UNL     1       3.611  -4.615  23.874  0.00  0.00    +0.000 A 
ATOM     16  C   UNL     1       4.480  -4.275  25.162  0.00  0.00    +0.000 A 
ATOM     17  C   UNL     1       4.366  -5.004  26.385  0.00  0.00    +0.000 A 
ATOM     18  C   UNL     1       4.338  -6.453  26.064  0.00  0.00    +0.000 A 
ENDBRANCH   1  16
BRANCH  10  19
ATOM     19  C   UNL     1       7.409  -1.252  21.416  0.00  0.00    +0.000 C 
BRANCH  19  20
ATOM     20  C   UNL     1       7.309   0.077  20.698  0.00  0.00    +0.000 C 
ATOM     21  O   UNL     1       6.301   0.606  20.361  0.00  0.00    +0.000 OA
ATOM     22  N   UNL     1       8.479   0.741  20.879  0.00  0.00    +0.000 N 
ATOM     23  H   UNL     1       8.642   1.099  19.939  0.00  0.00    +0.000 HD
BRANCH  22  24
ATOM     24  C   UNL     1       8.479   1.688  21.682  0.00  0.00    +0.000 A 
ATOM     25  C   UNL     1       9.939   1.628  22.112  0.00  0.00    +0.000 A 
ATOM     26  C   UNL     1      10.463   1.886  23.503  0.00  0.00    +0.000 A 
ATOM     27  C   UNL     1       9.291   2.261  24.343  0.00  0.00    +0.000 A 
ATOM     28  C   UNL     1       7.947   2.045  24.235  0.00  0.00    +0.000 A 
ATOM     29  C   UNL     1       7.540   2.011  22.776  0.00  0.00    +0.000 A 
BRANCH  28  30
ATOM     30  N   UNL     1       7.514   1.163  25.113  0.00  0.00    +0.000 N 
ATOM     31  C   UNL     1       6.769   1.930  26.074  0.00  0.00    +0.000 C 
ATOM     32  O   UNL     1       6.772   3.139  26.015  0.00  0.00    +0.000 OA
ATOM     33  C   UNL     1       6.916   1.289  27.474  0.00  0.00    +0.000 C 
ATOM     34  C   UNL     1       7.702  -0.001  27.216  0.00  0.00    +0.000 C 
ATOM     35  C   UNL     1       8.357   0.188  25.833  0.00  0.00    +0.000 C 
ENDBRANCH  28  30
ENDBRANCH  22  24
ENDBRANCH  19  20
ENDBRANCH  10  19
TORSDOF 5
ENDMDL
MODEL 5
REMARK VINA RESULT:      -8.5      2.618      6.400
REMARK  Name = 
REMARK  5 active torsions:
REMARK  status: ('A' for Active; 'I' for Inactive)
REMARK    1  A    between atoms: C_7  and  C_8
REMARK    2  A    between atoms: C_24  and  C_26
REMARK    3  A    between atoms: C_26  and  C_29
REMARK    4  A    between atoms: N_31  and  C_33
REMARK    5  A    between atoms: C_40  and  N_41
REMARK                            x       y       z     vdW  Elec       q    Type
REMARK                         _______ _______ _______ _____ _____    ______ ____
ROOT
ATOM      1  C   UNL     1       4.980  -2.620  25.326  0.00  0.00    +0.000 C 
ATOM      2  C   UNL     1       5.684  -1.772  26.246  0.00  0.00    +0.000 A 
ATOM      3  C   UNL     1       5.134  -0.578  26.684  0.00  0.00    +0.000 A 
ATOM      4  C   UNL     1       5.836   0.304  27.581  0.00  0.00    +0.000 A 
ATOM      5  C   UNL     1       7.333  -0.067  27.487  0.00  0.00    +0.000 A 
ATOM      6  C   UNL     1       8.062  -1.084  26.878  0.00  0.00    +0.000 A 
ATOM      7  C   UNL     1       7.176  -1.694  25.661  0.00  0.00    +0.000 A 
ATOM      8  C   UNL     1       7.652  -1.307  24.371  0.00  0.00    +0.000 C 
ATOM      9  N   UNL     1       6.830  -2.074  23.676  0.00  0.00    +0.000 N 
ATOM     10  C   UNL     1       6.877  -2.105  22.236  0.00  0.00    +0.000 C 
ATOM     11  O   UNL     1       7.782  -2.921  22.017  0.00  0.00    +0.000 OA
ATOM     12  C   UNL     1       5.591  -2.554  23.949  0.00  0.00    +0.000 C 
ENDROOT
BRANCH   1  16
ATOM     13  C   UNL     1       6.384  -5.426  27.715  0.00  0.00    +0.000 A 
ATOM     14  C   UNL     1       6.396  -5.583  26.237  0.00  0.00    +0.000 A 
ATOM     15  C   UNL     1       5.500  -4.964  25.224  0.00  0.00    +0.000 A 
ATOM     16  C   UNL     1       4.744  -3.793  25.989  0.00  0.00    +0.000 A 
ATOM     17  C   UNL     1       4.178  -3.961  27.290  0.00  0.00    +0.000 A 
ATOM     18  C   UNL     1       5.163  -4.675  28.140  0.00  0.00    +0.000 A 
ENDBRANCH   1  16
BRANCH  10  19
ATOM     19  C   UNL     1       7.021  -0.703  21.865  0.00  0.00    +0.000 C 
BRANCH  19  20
ATOM     20  C   UNL     1       8.076  -0.367  20.833  0.00  0.00    +0.000 C 
ATOM     21  O   UNL     1       7.926   0.356  19.902  0.00  0.00    +0.000 OA
ATOM     22  N   UNL     1       9.291  -0.665  21.360  0.00  0.00    +0.000 N 
ATOM     23  H   UNL     1       9.735  -1.123  20.566  0.00  0.00    +0.000 HD
BRANCH  22  24
ATOM     24  C   UNL     1       9.999   0.283  21.734  0.00  0.00    +0.000 A 
ATOM     25  C   UNL     1      10.621  -0.363  22.965  0.00  0.00    +0.000 A 
ATOM     26  C   UNL     1      10.926   0.331  24.270  0.00  0.00    +0.000 A 
ATOM     27  C   UNL     1      10.555   1.764  24.094  0.00  0.00    +0.000 A 
ATOM     28  C   UNL     1       9.714   2.421  23.242  0.00  0.00    +0.000 A 
ATOM     29  C   UNL     1       9.667   1.713  21.904  0.00  0.00    +0.000 A 
BRANCH  28  30
ATOM     30  N   UNL     1       8.629   2.854  23.854  0.00  0.00    +0.000 N 
ATOM     31  C   UNL     1       8.816   4.273  23.980  0.00  0.00    +0.000 C 
ATOM     32  O   UNL     1       9.874   4.774  23.673  0.00  0.00    +0.000 OA
ATOM     33  C   UNL     1       8.153   4.768  25.288  0.00  0.00    +0.000 C 
ATOM     34  C   UNL     1       7.444   3.527  25.842  0.00  0.00    +0.000 C 
ATOM     35  C   UNL     1       8.097   2.327  25.127  0.00  0.00    +0.000 C 
ENDBRANCH  28  30
ENDBRANCH  22  24
ENDBRANCH  19  20
ENDBRANCH  10  19
TORSDOF 5
ENDMDL
MODEL 6
REMARK VINA RESULT:      -8.4      2.552      3.934
REMARK  Name = 
REMARK  5 active torsions:
REMARK  status: ('A' for Active; 'I' for Inactive)
REMARK    1  A    between atoms: C_7  and  C_8
REMARK    2  A    between atoms: C_24  and  C_26
REMARK    3  A    between atoms: C_26  and  C_29
REMARK    4  A    between atoms: N_31  and  C_33
REMARK    5  A    between atoms: C_40  and  N_41
REMARK                            x       y       z     vdW  Elec       q    Type
REMARK                         _______ _______ _______ _____ _____    ______ ____
ROOT
ATOM      1  C   UNL     1       7.199   1.288  22.010  0.00  0.00    +0.000 C 
ATOM      2  C   UNL     1       6.668   1.249  20.675  0.00  0.00    +0.000 A 
ATOM      3  C   UNL     1       5.403   1.738  20.394  0.00  0.00    +0.000 A 
ATOM      4  C   UNL     1       4.838   1.679  19.070  0.00  0.00    +0.000 A 
ATOM      5  C   UNL     1       5.624   0.595  18.300  0.00  0.00    +0.000 A 
ATOM      6  C   UNL     1       6.761  -0.167  18.552  0.00  0.00    +0.000 A 
ATOM      7  C   UNL     1       6.988  -0.235  20.158  0.00  0.00    +0.000 A 
ATOM      8  C   UNL     1       6.660  -1.508  20.718  0.00  0.00    +0.000 C 
ATOM      9  N   UNL     1       7.096  -1.248  21.938  0.00  0.00    +0.000 N 
ATOM     10  C   UNL     1       7.029  -2.239  22.982  0.00  0.00    +0.000 C 
ATOM     11  O   UNL     1       8.056  -2.902  22.786  0.00  0.00    +0.000 OA
ATOM     12  C   UNL     1       7.210  -0.087  22.630  0.00  0.00    +0.000 C 
ENDROOT
BRANCH   1  16
ATOM     13  C   UNL     1       9.890   3.361  24.014  0.00  0.00    +0.000 A 
ATOM     14  C   UNL     1       8.665   3.999  23.464  0.00  0.00    +0.000 A 
ATOM     15  C   UNL     1       7.839   3.586  22.298  0.00  0.00    +0.000 A 
ATOM     16  C   UNL     1       8.298   2.101  21.961  0.00  0.00    +0.000 A 
ATOM     17  C   UNL     1       9.671   1.710  21.911  0.00  0.00    +0.000 A 
ATOM     18  C   UNL     1      10.364   2.282  23.092  0.00  0.00    +0.000 A 
ENDBRANCH   1  16
BRANCH  10  19
ATOM     19  C   UNL     1       5.707  -2.829  22.813  0.00  0.00    +0.000 C 
BRANCH  19  20
ATOM     20  C   UNL     1       5.646  -4.245  22.283  0.00  0.00    +0.000 C 
ATOM     21  O   UNL     1       6.452  -4.752  21.573  0.00  0.00    +0.000 OA
ATOM     22  N   UNL     1       4.789  -4.950  23.065  0.00  0.00    +0.000 N 
ATOM     23  H   UNL     1       4.266  -5.464  22.357  0.00  0.00    +0.000 HD
BRANCH  22  24
ATOM     24  C   UNL     1       5.281  -5.754  23.873  0.00  0.00    +0.000 A 
ATOM     25  C   UNL     1       4.100  -6.706  24.004  0.00  0.00    +0.000 A 
ATOM     26  C   UNL     1       3.660  -7.399  25.270  0.00  0.00    +0.000 A 
ATOM     27  C   UNL     1       4.630  -7.015  26.333  0.00  0.00    +0.000 A 
ATOM     28  C   UNL     1       5.493  -5.968  26.487  0.00  0.00    +0.000 A 
ATOM     29  C   UNL     1       6.006  -5.510  25.138  0.00  0.00    +0.000 A 
BRANCH  28  30
ATOM     30  N   UNL     1       5.086  -5.123  27.414  0.00  0.00    +0.000 N 
ATOM     31  C   UNL     1       6.003  -5.302  28.507  0.00  0.00    +0.000 C 
ATOM     32  O   UNL     1       6.822  -6.192  28.470  0.00  0.00    +0.000 OA
ATOM     33  C   UNL     1       5.262  -5.078  29.846  0.00  0.00    +0.000 C 
ATOM     34  C   UNL     1       3.860  -4.617  29.428  0.00  0.00    +0.000 C 
ATOM     35  C   UNL     1       3.713  -5.040  27.952  0.00  0.00    +0.000 C 
ENDBRANCH  28  30
ENDBRANCH  22  24
ENDBRANCH  19  20
ENDBRANCH  10  19
TORSDOF 5
ENDMDL
MODEL 7
REMARK VINA RESULT:      -8.2      2.062      7.414
REMARK  Name = 
REMARK  5 active torsions:
REMARK  status: ('A' for Active; 'I' for Inactive)
REMARK    1  A    between atoms: C_7  and  C_8
REMARK    2  A    between atoms: C_24  and  C_26
REMARK    3  A    between atoms: C_26  and  C_29
REMARK    4  A    between atoms: N_31  and  C_33
REMARK    5  A    between atoms: C_40  and  N_41
REMARK                            x       y       z     vdW  Elec       q    Type
REMARK                         _______ _______ _______ _____ _____    ______ ____
ROOT
ATOM      1  C   UNL     1       5.883  -2.905  23.967  0.00  0.00    +0.000 C 
ATOM      2  C   UNL     1       6.079  -3.773  25.095  0.00  0.00    +0.000 A 
ATOM      3  C   UNL     1       5.460  -3.521  26.308  0.00  0.00    +0.000 A 
ATOM      4  C   UNL     1       5.668  -4.360  27.461  0.00  0.00    +0.000 A 
ATOM      5  C   UNL     1       6.982  -5.135  27.214  0.00  0.00    +0.000 A 
ATOM      6  C   UNL     1       7.852  -5.286  26.139  0.00  0.00    +0.000 A 
ATOM      7  C   UNL     1       7.664  -4.018  25.143  0.00  0.00    +0.000 A 
ATOM      8  C   UNL     1       8.748  -3.091  25.204  0.00  0.00    +0.000 C 
ATOM      9  N   UNL     1       8.343  -2.326  24.205  0.00  0.00    +0.000 N 
ATOM     10  C   UNL     1       9.107  -1.178  23.786  0.00  0.00    +0.000 C 
ATOM     11  O   UNL     1       9.945  -1.680  23.026  0.00  0.00    +0.000 OA
ATOM     12  C   UNL     1       7.108  -2.064  23.709  0.00  0.00    +0.000 C 
ENDROOT
BRANCH   1  16
ATOM     13  C   UNL     1       5.992  -6.140  21.713  0.00  0.00    +0.000 A 
ATOM     14  C   UNL     1       6.466  -4.823  21.211  0.00  0.00    +0.000 A 
ATOM     15  C   UNL     1       6.054  -3.458  21.635  0.00  0.00    +0.000 A 
ATOM     16  C   UNL     1       5.271  -3.660  23.004  0.00  0.00    +0.000 A 
ATOM     17  C   UNL     1       4.291  -4.683  23.190  0.00  0.00    +0.000 A 
ATOM     18  C   UNL     1       4.825  -5.949  22.629  0.00  0.00    +0.000 A 
ENDBRANCH   1  16
BRANCH  10  19
ATOM     19  C   UNL     1       9.507  -0.552  25.040  0.00  0.00    +0.000 C 
BRANCH  19  20
ATOM     20  C   UNL     1      10.472   0.610  24.955  0.00  0.00    +0.000 C 
ATOM     21  O   UNL     1      11.619   0.535  24.658  0.00  0.00    +0.000 OA
ATOM     22  N   UNL     1       9.746   1.753  24.854  0.00  0.00    +0.000 N 
ATOM     23  H   UNL     1      10.251   2.356  25.501  0.00  0.00    +0.000 HD
BRANCH  22  24
ATOM     24  C   UNL     1       9.694   2.299  23.740  0.00  0.00    +0.000 A 
ATOM     25  C   UNL     1       8.834   3.501  24.111  0.00  0.00    +0.000 A 
ATOM     26  C   UNL     1       7.770   4.127  23.245  0.00  0.00    +0.000 A 
ATOM     27  C   UNL     1       7.769   3.382  21.955  0.00  0.00    +0.000 A 
ATOM     28  C   UNL     1       8.192   2.137  21.586  0.00  0.00    +0.000 A 
ATOM     29  C   UNL     1       9.394   1.728  22.411  0.00  0.00    +0.000 A 
BRANCH  28  30
ATOM     30  N   UNL     1       7.184   1.321  21.349  0.00  0.00    +0.000 N 
ATOM     31  C   UNL     1       7.780   0.159  20.748  0.00  0.00    +0.000 C 
ATOM     32  O   UNL     1       8.954   0.165  20.455  0.00  0.00    +0.000 OA
ATOM     33  C   UNL     1       6.798  -0.453  19.721  0.00  0.00    +0.000 C 
ATOM     34  C   UNL     1       5.520   0.379  19.880  0.00  0.00    +0.000 C 
ATOM     35  C   UNL     1       5.959   1.669  20.602  0.00  0.00    +0.000 C 
ENDBRANCH  28  30
ENDBRANCH  22  24
ENDBRANCH  19  20
ENDBRANCH  10  19
TORSDOF 5
ENDMDL
MODEL 8
REMARK VINA RESULT:      -8.2      3.085      7.090
REMARK  Name = 
REMARK  5 active torsions:
REMARK  status: ('A' for Active; 'I' for Inactive)
REMARK    1  A    between atoms: C_7  and  C_8
REMARK    2  A    between atoms: C_24  and  C_26
REMARK    3  A    between atoms: C_26  and  C_29
REMARK    4  A    between atoms: N_31  and  C_33
REMARK    5  A    between atoms: C_40  and  N_41
REMARK                            x       y       z     vdW  Elec       q    Type
REMARK                         _______ _______ _______ _____ _____    ______ ____
ROOT
ATOM      1  C   UNL     1       6.333  -2.811  23.683  0.00  0.00    +0.000 C 
ATOM      2  C   UNL     1       6.712  -3.654  24.783  0.00  0.00    +0.000 A 
ATOM      3  C   UNL     1       6.336  -3.350  26.081  0.00  0.00    +0.000 A 
ATOM      4  C   UNL     1       6.733  -4.164  27.202  0.00  0.00    +0.000 A 
ATOM      5  C   UNL     1       7.956  -4.987  26.742  0.00  0.00    +0.000 A 
ATOM      6  C   UNL     1       8.607  -5.195  25.530  0.00  0.00    +0.000 A 
ATOM      7  C   UNL     1       8.272  -3.949  24.545  0.00  0.00    +0.000 A 
ATOM      8  C   UNL     1       9.373  -3.055  24.375  0.00  0.00    +0.000 C 
ATOM      9  N   UNL     1       8.809  -2.304  23.444  0.00  0.00    +0.000 N 
ATOM     10  C   UNL     1       9.512  -1.193  22.854  0.00  0.00    +0.000 C 
ATOM     11  O   UNL     1      10.181  -1.742  21.969  0.00  0.00    +0.000 OA
ATOM     12  C   UNL     1       7.511  -2.017  23.176  0.00  0.00    +0.000 C 
ENDROOT
BRANCH   1  16
ATOM     13  C   UNL     1       5.726  -6.297  21.941  0.00  0.00    +0.000 A 
ATOM     14  C   UNL     1       6.380  -5.170  21.225  0.00  0.00    +0.000 A 
ATOM     15  C   UNL     1       6.239  -3.708  21.456  0.00  0.00    +0.000 A 
ATOM     16  C   UNL     1       5.534  -3.572  22.875  0.00  0.00    +0.000 A 
ATOM     17  C   UNL     1       4.410  -4.365  23.257  0.00  0.00    +0.000 A 
ATOM     18  C   UNL     1       4.677  -5.773  22.870  0.00  0.00    +0.000 A 
ENDBRANCH   1  16
BRANCH  10  19
ATOM     19  C   UNL     1      10.154  -0.547  23.993  0.00  0.00    +0.000 C 
BRANCH  19  20
ATOM     20  C   UNL     1       9.870   0.924  24.202  0.00  0.00    +0.000 C 
ATOM     21  O   UNL     1       9.954   1.769  23.371  0.00  0.00    +0.000 OA
ATOM     22  N   UNL     1       9.119   1.052  25.326  0.00  0.00    +0.000 N 
ATOM     23  H   UNL     1       9.575   1.847  25.769  0.00  0.00    +0.000 HD
BRANCH  22  24
ATOM     24  C   UNL     1       7.912   1.301  25.180  0.00  0.00    +0.000 A 
ATOM     25  C   UNL     1       7.888   2.699  25.784  0.00  0.00    +0.000 A 
ATOM     26  C   UNL     1       6.778   3.281  26.624  0.00  0.00    +0.000 A 
ATOM     27  C   UNL     1       5.705   2.251  26.696  0.00  0.00    +0.000 A 
ATOM     28  C   UNL     1       5.688   0.896  26.527  0.00  0.00    +0.000 A 
ATOM     29  C   UNL     1       6.724   0.483  25.502  0.00  0.00    +0.000 A 
BRANCH  28  30
ATOM     30  N   UNL     1       5.525   0.256  27.669  0.00  0.00    +0.000 N 
ATOM     31  C   UNL     1       4.356  -0.557  27.475  0.00  0.00    +0.000 C 
ATOM     32  O   UNL     1       3.696  -0.438  26.467  0.00  0.00    +0.000 OA
ATOM     33  C   UNL     1       3.588  -0.685  28.812  0.00  0.00    +0.000 C 
ATOM     34  C   UNL     1       4.493   0.015  29.833  0.00  0.00    +0.000 C 
ATOM     35  C   UNL     1       5.451   0.889  29.000  0.00  0.00    +0.000 C 
ENDBRANCH  28  30
ENDBRANCH  22  24
ENDBRANCH  19  20
ENDBRANCH  10  19
TORSDOF 5
ENDMDL
MODEL 9
REMARK VINA RESULT:      -8.1      2.243      7.948
REMARK  Name = 
REMARK  5 active torsions:
REMARK  status: ('A' for Active; 'I' for Inactive)
REMARK    1  A    between atoms: C_7  and  C_8
REMARK    2  A    between atoms: C_24  and  C_26
REMARK    3  A    between atoms: C_26  and  C_29
REMARK    4  A    between atoms: N_31  and  C_33
REMARK    5  A    between atoms: C_40  and  N_41
REMARK                            x       y       z     vdW  Elec       q    Type
REMARK                         _______ _______ _______ _____ _____    ______ ____
ROOT
ATOM      1  C   UNL     1       6.003  -2.960  24.061  0.00  0.00    +0.000 C 
ATOM      2  C   UNL     1       6.260  -3.843  25.164  0.00  0.00    +0.000 A 
ATOM      3  C   UNL     1       5.726  -3.596  26.418  0.00  0.00    +0.000 A 
ATOM      4  C   UNL     1       5.998  -4.450  27.547  0.00  0.00    +0.000 A 
ATOM      5  C   UNL     1       7.281  -5.241  27.206  0.00  0.00    +0.000 A 
ATOM      6  C   UNL     1       8.076  -5.391  26.074  0.00  0.00    +0.000 A 
ATOM      7  C   UNL     1       7.841  -4.110  25.105  0.00  0.00    +0.000 A 
ATOM      8  C   UNL     1       8.940  -3.197  25.105  0.00  0.00    +0.000 C 
ATOM      9  N   UNL     1       8.481  -2.415  24.143  0.00  0.00    +0.000 N 
ATOM     10  C   UNL     1       9.232  -1.273  23.686  0.00  0.00    +0.000 C 
ATOM     11  O   UNL     1      10.011  -1.778  22.867  0.00  0.00    +0.000 OA
ATOM     12  C   UNL     1       7.220  -2.132  23.731  0.00  0.00    +0.000 C 
ENDROOT
BRANCH   1  16
ATOM     13  C   UNL     1       5.953  -6.127  21.712  0.00  0.00    +0.000 A 
ATOM     14  C   UNL     1       6.367  -4.791  21.210  0.00  0.00    +0.000 A 
ATOM     15  C   UNL     1       5.977  -3.444  21.708  0.00  0.00    +0.000 A 
ATOM     16  C   UNL     1       5.319  -3.696  23.133  0.00  0.00    +0.000 A 
ATOM     17  C   UNL     1       4.370  -4.737  23.372  0.00  0.00    +0.000 A 
ATOM     18  C   UNL     1       4.868  -5.979  22.730  0.00  0.00    +0.000 A 
ENDBRANCH   1  16
BRANCH  10  19
ATOM     19  C   UNL     1       9.722  -0.667  24.918  0.00  0.00    +0.000 C 
BRANCH  19  20
ATOM     20  C   UNL     1      10.483   0.634  24.791  0.00  0.00    +0.000 C 
ATOM     21  O   UNL     1      11.577   0.754  24.343  0.00  0.00    +0.000 OA
ATOM     22  N   UNL     1       9.590   1.653  24.866  0.00  0.00    +0.000 N 
ATOM     23  H   UNL     1      10.085   2.295  25.483  0.00  0.00    +0.000 HD
BRANCH  22  24
ATOM     24  C   UNL     1       9.304   2.240  23.810  0.00  0.00    +0.000 A 
ATOM     25  C   UNL     1       9.725   3.649  24.205  0.00  0.00    +0.000 A 
ATOM     26  C   UNL     1       9.021   4.926  23.815  0.00  0.00    +0.000 A 
ATOM     27  C   UNL     1       7.884   4.539  22.933  0.00  0.00    +0.000 A 
ATOM     28  C   UNL     1       7.179   3.383  22.758  0.00  0.00    +0.000 A 
ATOM     29  C   UNL     1       8.075   2.184  22.990  0.00  0.00    +0.000 A 
BRANCH  28  30
ATOM     30  N   UNL     1       5.961   3.465  23.257  0.00  0.00    +0.000 N 
ATOM     31  C   UNL     1       5.114   2.859  22.266  0.00  0.00    +0.000 C 
ATOM     32  O   UNL     1       5.572   2.535  21.194  0.00  0.00    +0.000 OA
ATOM     33  C   UNL     1       3.737   3.564  22.262  0.00  0.00    +0.000 C 
ATOM     34  C   UNL     1       3.814   4.546  23.437  0.00  0.00    +0.000 C 
ATOM     35  C   UNL     1       5.318   4.701  23.743  0.00  0.00    +0.000 C 
ENDBRANCH  28  30
ENDBRANCH  22  24
ENDBRANCH  19  20
ENDBRANCH  10  19
TORSDOF 5
ENDMDL
