MODEL 1
REMARK VINA RESULT:      -9.0      0.000      0.000
REMARK  Name = 
REMARK  4 active torsions:
REMARK  status: ('A' for Active; 'I' for Inactive)
REMARK    1  A    between atoms: C_4  and  O_5
REMARK    2  A    between atoms: O_5  and  C_6
REMARK    3  A    between atoms: C_11  and  N_12
REMARK    4  A    between atoms: C_26  and  C_28
REMARK                            x       y       z     vdW  Elec       q    Type
REMARK                         _______ _______ _______ _____ _____    ______ ____
ROOT
ATOM      1  N   UNL     1       7.452  -1.853  22.977  0.00  0.00    +0.000 N 
ATOM      2  C   UNL     1       7.563  -0.921  24.104  0.00  0.00    +0.000 C 
ATOM      3  C   UNL     1       8.691  -0.138  23.920  0.00  0.00    +0.000 A 
ATOM      4  C   UNL     1       8.555   1.185  24.755  0.00  0.00    +0.000 A 
ATOM      5  C   UNL     1       9.178   2.430  24.338  0.00  0.00    +0.000 A 
ATOM      6  C   UNL     1      10.031   2.197  23.122  0.00  0.00    +0.000 A 
ATOM      7  C   UNL     1      10.175   1.153  22.236  0.00  0.00    +0.000 A 
ATOM      8  C   UNL     1       9.052   0.186  22.437  0.00  0.00    +0.000 A 
ATOM      9  C   UNL     1       7.928   0.046  21.590  0.00  0.00    +0.000 C 
ATOM     10  C   UNL     1       7.287  -1.284  21.627  0.00  0.00    +0.000 C 
ENDROOT
BRANCH   1  14
ATOM     11  C   UNL     1       7.799  -4.787  25.203  0.00  0.00    +0.000 A 
ATOM     12  C   UNL     1       7.322  -5.092  23.790  0.00  0.00    +0.000 A 
ATOM     13  C   UNL     1       7.577  -4.265  22.657  0.00  0.00    +0.000 A 
ATOM     14  C   UNL     1       8.418  -2.990  23.015  0.00  0.00    +0.000 A 
ATOM     15  C   UNL     1       9.385  -2.998  24.126  0.00  0.00    +0.000 A 
ATOM     16  C   UNL     1       9.059  -4.045  25.252  0.00  0.00    +0.000 A 
BRANCH  11  17
ATOM     17  O   UNL     1       6.593  -4.642  25.792  0.00  0.00    +0.000 OA
BRANCH  17  20
ATOM     18  C   UNL     1       6.422  -6.138  28.747  0.00  0.00    +0.000 A 
ATOM     19  N   UNL     1       7.237  -5.645  27.585  0.00  0.00    +0.000 NA
ATOM     20  C   UNL     1       6.353  -5.632  26.586  0.00  0.00    +0.000 A 
ATOM     21  N   UNL     1       5.499  -6.470  26.093  0.00  0.00    +0.000 NA
ATOM     22  C   UNL     1       4.539  -6.956  26.993  0.00  0.00    +0.000 A 
ATOM     23  C   UNL     1       5.106  -6.615  28.375  0.00  0.00    +0.000 A 
ENDBRANCH  17  20
ENDBRANCH  11  17
ENDBRANCH   1  14
BRANCH   9  24
ATOM     24  C   UNL     1       7.771   0.764  20.267  0.00  0.00    +0.000 A 
ATOM     25  C   UNL     1       6.644   1.727  20.537  0.00  0.00    +0.000 A 
ATOM     26  C   UNL     1       5.224   1.702  20.032  0.00  0.00    +0.000 A 
ATOM     27  C   UNL     1       5.201   0.593  19.041  0.00  0.00    +0.000 A 
ATOM     28  C   UNL     1       6.124  -0.228  18.357  0.00  0.00    +0.000 A 
ATOM     29  C   UNL     1       7.503   0.044  18.995  0.00  0.00    +0.000 A 
ENDBRANCH   9  24
TORSDOF 4
ENDMDL
MODEL 2
REMARK VINA RESULT:      -8.7      2.126      2.555
REMARK  Name = 
REMARK  4 active torsions:
REMARK  status: ('A' for Active; 'I' for Inactive)
REMARK    1  A    between atoms: C_4  and  O_5
REMARK    2  A    between atoms: O_5  and  C_6
REMARK    3  A    between atoms: C_11  and  N_12
REMARK    4  A    between atoms: C_26  and  C_28
REMARK                            x       y       z     vdW  Elec       q    Type
REMARK                         _______ _______ _______ _____ _____    ______ ____
ROOT
ATOM      1  N   UNL     1       6.672  -2.054  23.058  0.00  0.00    +0.000 N 
ATOM      2  C   UNL     1       6.991  -1.208  24.215  0.00  0.00    +0.000 C 
ATOM      3  C   UNL     1       8.292  -0.751  24.083  0.00  0.00    +0.000 A 
ATOM      4  C   UNL     1       8.486   0.541  24.952  0.00  0.00    +0.000 A 
ATOM      5  C   UNL     1       9.431   1.583  24.588  0.00  0.00    +0.000 A 
ATOM      6  C   UNL     1      10.231   1.156  23.388  0.00  0.00    +0.000 A 
ATOM      7  C   UNL     1      10.120   0.131  22.477  0.00  0.00    +0.000 A 
ATOM      8  C   UNL     1       8.774  -0.505  22.620  0.00  0.00    +0.000 A 
ATOM      9  C   UNL     1       7.682  -0.321  21.740  0.00  0.00    +0.000 C 
ATOM     10  C   UNL     1       6.709  -1.433  21.722  0.00  0.00    +0.000 C 
ENDROOT
BRANCH   1  14
ATOM     11  C   UNL     1       5.270  -5.476  23.020  0.00  0.00    +0.000 A 
ATOM     12  C   UNL     1       5.986  -5.049  21.746  0.00  0.00    +0.000 A 
ATOM     13  C   UNL     1       6.993  -4.041  21.687  0.00  0.00    +0.000 A 
ATOM     14  C   UNL     1       7.298  -3.408  23.089  0.00  0.00    +0.000 A 
ATOM     15  C   UNL     1       7.136  -4.183  24.331  0.00  0.00    +0.000 A 
ATOM     16  C   UNL     1       6.087  -5.348  24.227  0.00  0.00    +0.000 A 
BRANCH  11  17
ATOM     17  O   UNL     1       4.020  -5.097  22.680  0.00  0.00    +0.000 OA
BRANCH  17  20
ATOM     18  C   UNL     1       2.626  -7.262  24.770  0.00  0.00    +0.000 A 
ATOM     19  N   UNL     1       2.810  -6.737  23.376  0.00  0.00    +0.000 NA
ATOM     20  C   UNL     1       3.171  -5.469  23.579  0.00  0.00    +0.000 A 
ATOM     21  N   UNL     1       2.717  -4.477  24.276  0.00  0.00    +0.000 NA
ATOM     22  C   UNL     1       2.599  -4.709  25.654  0.00  0.00    +0.000 A 
ATOM     23  C   UNL     1       2.676  -6.234  25.791  0.00  0.00    +0.000 A 
ENDBRANCH  17  20
ENDBRANCH  11  17
ENDBRANCH   1  14
BRANCH   9  24
ATOM     24  C   UNL     1       7.766   0.440  20.435  0.00  0.00    +0.000 A 
ATOM     25  C   UNL     1       6.735   1.526  20.611  0.00  0.00    +0.000 A 
ATOM     26  C   UNL     1       5.391   1.683  19.949  0.00  0.00    +0.000 A 
ATOM     27  C   UNL     1       5.353   0.609  18.921  0.00  0.00    +0.000 A 
ATOM     28  C   UNL     1       6.247  -0.303  18.317  0.00  0.00    +0.000 A 
ATOM     29  C   UNL     1       7.565  -0.214  19.115  0.00  0.00    +0.000 A 
ENDBRANCH   9  24
TORSDOF 4
ENDMDL
MODEL 3
REMARK VINA RESULT:      -8.0      2.931      7.483
REMARK  Name = 
REMARK  4 active torsions:
REMARK  status: ('A' for Active; 'I' for Inactive)
REMARK    1  A    between atoms: C_4  and  O_5
REMARK    2  A    between atoms: O_5  and  C_6
REMARK    3  A    between atoms: C_11  and  N_12
REMARK    4  A    between atoms: C_26  and  C_28
REMARK                            x       y       z     vdW  Elec       q    Type
REMARK                         _______ _______ _______ _____ _____    ______ ____
ROOT
ATOM      1  N   UNL     1       7.722  -1.561  23.364  0.00  0.00    +0.000 N 
ATOM      2  C   UNL     1       7.012  -2.046  22.176  0.00  0.00    +0.000 C 
ATOM      3  C   UNL     1       7.354  -3.372  21.967  0.00  0.00    +0.000 A 
ATOM      4  C   UNL     1       6.252  -4.069  21.093  0.00  0.00    +0.000 A 
ATOM      5  C   UNL     1       5.955  -5.486  21.209  0.00  0.00    +0.000 A 
ATOM      6  C   UNL     1       6.927  -6.141  22.152  0.00  0.00    +0.000 A 
ATOM      7  C   UNL     1       7.860  -5.670  23.048  0.00  0.00    +0.000 A 
ATOM      8  C   UNL     1       7.639  -4.205  23.255  0.00  0.00    +0.000 A 
ATOM      9  C   UNL     1       7.038  -3.618  24.393  0.00  0.00    +0.000 C 
ATOM     10  C   UNL     1       7.438  -2.220  24.652  0.00  0.00    +0.000 C 
ENDROOT
BRANCH   1  14
ATOM     11  C   UNL     1       9.874   1.368  24.052  0.00  0.00    +0.000 A 
ATOM     12  C   UNL     1      10.108   0.160  24.950  0.00  0.00    +0.000 A 
ATOM     13  C   UNL     1       9.793  -1.183  24.591  0.00  0.00    +0.000 A 
ATOM     14  C   UNL     1       9.176  -1.297  23.154  0.00  0.00    +0.000 A 
ATOM     15  C   UNL     1       9.526  -0.339  22.092  0.00  0.00    +0.000 A 
ATOM     16  C   UNL     1       9.980   1.069  22.624  0.00  0.00    +0.000 A 
BRANCH  11  17
ATOM     17  O   UNL     1       8.970   2.012  24.819  0.00  0.00    +0.000 OA
BRANCH  17  20
ATOM     18  C   UNL     1       7.830   4.004  22.425  0.00  0.00    +0.000 A 
ATOM     19  N   UNL     1       8.359   3.818  23.818  0.00  0.00    +0.000 NA
ATOM     20  C   UNL     1       8.051   2.548  24.087  0.00  0.00    +0.000 A 
ATOM     21  N   UNL     1       6.986   1.816  24.009  0.00  0.00    +0.000 NA
ATOM     22  C   UNL     1       6.400   1.734  22.737  0.00  0.00    +0.000 A 
ATOM     23  C   UNL     1       7.022   2.897  21.955  0.00  0.00    +0.000 A 
ENDBRANCH  17  20
ENDBRANCH  11  17
ENDBRANCH   1  14
BRANCH   9  24
ATOM     24  C   UNL     1       6.658  -4.387  25.640  0.00  0.00    +0.000 A 
ATOM     25  C   UNL     1       5.349  -5.028  25.255  0.00  0.00    +0.000 A 
ATOM     26  C   UNL     1       3.954  -4.709  25.725  0.00  0.00    +0.000 A 
ATOM     27  C   UNL     1       4.147  -3.714  26.814  0.00  0.00    +0.000 A 
ATOM     28  C   UNL     1       5.205  -3.196  27.593  0.00  0.00    +0.000 A 
ATOM     29  C   UNL     1       6.509  -3.733  26.966  0.00  0.00    +0.000 A 
ENDBRANCH   9  24
TORSDOF 4
ENDMDL
MODEL 4
REMARK VINA RESULT:      -7.9      3.141      8.108
REMARK  Name = 
REMARK  4 active torsions:
REMARK  status: ('A' for Active; 'I' for Inactive)
REMARK    1  A    between atoms: C_4  and  O_5
REMARK    2  A    between atoms: O_5  and  C_6
REMARK    3  A    between atoms: C_11  and  N_12
REMARK    4  A    between atoms: C_26  and  C_28
REMARK                            x       y       z     vdW  Elec       q    Type
REMARK                         _______ _______ _______ _____ _____    ______ ____
ROOT
ATOM      1  N   UNL     1       7.840  -1.549  23.451  0.00  0.00    +0.000 N 
ATOM      2  C   UNL     1       7.097  -1.994  22.266  0.00  0.00    +0.000 C 
ATOM      3  C   UNL     1       7.406  -3.322  22.024  0.00  0.00    +0.000 A 
ATOM      4  C   UNL     1       6.272  -3.977  21.158  0.00  0.00    +0.000 A 
ATOM      5  C   UNL     1       5.947  -5.390  21.251  0.00  0.00    +0.000 A 
ATOM      6  C   UNL     1       6.922  -6.084  22.161  0.00  0.00    +0.000 A 
ATOM      7  C   UNL     1       7.882  -5.652  23.047  0.00  0.00    +0.000 A 
ATOM      8  C   UNL     1       7.698  -4.188  23.288  0.00  0.00    +0.000 A 
ATOM      9  C   UNL     1       7.132  -3.612  24.450  0.00  0.00    +0.000 C 
ATOM     10  C   UNL     1       7.567  -2.229  24.730  0.00  0.00    +0.000 C 
ENDROOT
BRANCH   1  14
ATOM     11  C   UNL     1       9.918   1.511  23.415  0.00  0.00    +0.000 A 
ATOM     12  C   UNL     1      10.145   0.581  24.600  0.00  0.00    +0.000 A 
ATOM     13  C   UNL     1       9.865  -0.817  24.592  0.00  0.00    +0.000 A 
ATOM     14  C   UNL     1       9.295  -1.312  23.216  0.00  0.00    +0.000 A 
ATOM     15  C   UNL     1       9.661  -0.650  21.953  0.00  0.00    +0.000 A 
ATOM     16  C   UNL     1      10.073   0.858  22.115  0.00  0.00    +0.000 A 
BRANCH  11  17
ATOM     17  O   UNL     1       8.979   2.308  23.968  0.00  0.00    +0.000 OA
BRANCH  17  20
ATOM     18  C   UNL     1       7.648   5.130  22.844  0.00  0.00    +0.000 A 
ATOM     19  N   UNL     1       7.957   3.673  22.653  0.00  0.00    +0.000 NA
ATOM     20  C   UNL     1       9.016   3.487  23.442  0.00  0.00    +0.000 A 
ATOM     21  N   UNL     1      10.157   4.074  23.616  0.00  0.00    +0.000 NA
ATOM     22  C   UNL     1      10.093   5.435  23.951  0.00  0.00    +0.000 A 
ATOM     23  C   UNL     1       8.662   5.849  23.589  0.00  0.00    +0.000 A 
ENDBRANCH  17  20
ENDBRANCH  11  17
ENDBRANCH   1  14
BRANCH   9  24
ATOM     24  C   UNL     1       6.759  -4.399  25.688  0.00  0.00    +0.000 A 
ATOM     25  C   UNL     1       5.471  -5.069  25.287  0.00  0.00    +0.000 A 
ATOM     26  C   UNL     1       4.064  -4.787  25.747  0.00  0.00    +0.000 A 
ATOM     27  C   UNL     1       4.222  -3.795  26.845  0.00  0.00    +0.000 A 
ATOM     28  C   UNL     1       5.261  -3.257  27.636  0.00  0.00    +0.000 A 
ATOM     29  C   UNL     1       6.583  -3.758  27.018  0.00  0.00    +0.000 A 
ENDBRANCH   9  24
TORSDOF 4
ENDMDL
MODEL 5
REMARK VINA RESULT:      -7.7      2.336      7.460
REMARK  Name = 
REMARK  4 active torsions:
REMARK  status: ('A' for Active; 'I' for Inactive)
REMARK    1  A    between atoms: C_4  and  O_5
REMARK    2  A    between atoms: O_5  and  C_6
REMARK    3  A    between atoms: C_11  and  N_12
REMARK    4  A    between atoms: C_26  and  C_28
REMARK                            x       y       z     vdW  Elec       q    Type
REMARK                         _______ _______ _______ _____ _____    ______ ____
ROOT
ATOM      1  N   UNL     1       6.925  -2.924  25.150  0.00  0.00    +0.000 N 
ATOM      2  C   UNL     1       6.604  -2.521  23.776  0.00  0.00    +0.000 C 
ATOM      3  C   UNL     1       7.005  -3.529  22.914  0.00  0.00    +0.000 A 
ATOM      4  C   UNL     1       6.218  -3.409  21.562  0.00  0.00    +0.000 A 
ATOM      5  C   UNL     1       5.913  -4.567  20.739  0.00  0.00    +0.000 A 
ATOM      6  C   UNL     1       6.569  -5.793  21.313  0.00  0.00    +0.000 A 
ATOM      7  C   UNL     1       7.190  -6.079  22.507  0.00  0.00    +0.000 A 
ATOM      8  C   UNL     1       6.904  -4.978  23.480  0.00  0.00    +0.000 A 
ATOM      9  C   UNL     1       5.986  -5.051  24.554  0.00  0.00    +0.000 C 
ATOM     10  C   UNL     1       6.278  -4.138  25.679  0.00  0.00    +0.000 C 
ENDROOT
BRANCH   1  14
ATOM     11  C   UNL     1       9.378  -0.158  25.035  0.00  0.00    +0.000 A 
ATOM     12  C   UNL     1       8.952  -0.597  26.430  0.00  0.00    +0.000 A 
ATOM     13  C   UNL     1       8.445  -1.890  26.748  0.00  0.00    +0.000 A 
ATOM     14  C   UNL     1       8.373  -2.836  25.499  0.00  0.00    +0.000 A 
ATOM     15  C   UNL     1       9.316  -2.696  24.377  0.00  0.00    +0.000 A 
ATOM     16  C   UNL     1       9.902  -1.247  24.210  0.00  0.00    +0.000 A 
BRANCH  11  17
ATOM     17  O   UNL     1       8.462   0.815  24.846  0.00  0.00    +0.000 OA
BRANCH  17  20
ATOM     18  C   UNL     1       9.873   1.708  21.981  0.00  0.00    +0.000 A 
ATOM     19  N   UNL     1       9.471   2.039  23.389  0.00  0.00    +0.000 NA
ATOM     20  C   UNL     1       8.457   1.202  23.614  0.00  0.00    +0.000 A 
ATOM     21  N   UNL     1       7.364   0.882  22.997  0.00  0.00    +0.000 NA
ATOM     22  C   UNL     1       7.526   0.402  21.689  0.00  0.00    +0.000 A 
ATOM     23  C   UNL     1       8.951   0.817  21.305  0.00  0.00    +0.000 A 
ENDBRANCH  17  20
ENDBRANCH  11  17
ENDBRANCH   1  14
BRANCH   9  24
ATOM     24  C   UNL     1       5.261  -6.315  24.964  0.00  0.00    +0.000 A 
ATOM     25  C   UNL     1       3.966  -6.223  24.199  0.00  0.00    +0.000 A 
ATOM     26  C   UNL     1       2.574  -5.950  24.706  0.00  0.00    +0.000 A 
ATOM     27  C   UNL     1       2.709  -5.958  26.187  0.00  0.00    +0.000 A 
ATOM     28  C   UNL     1       3.667  -6.329  27.156  0.00  0.00    +0.000 A 
ATOM     29  C   UNL     1       4.967  -6.641  26.384  0.00  0.00    +0.000 A 
ENDBRANCH   9  24
TORSDOF 4
ENDMDL
MODEL 6
REMARK VINA RESULT:      -7.7      1.788      2.383
REMARK  Name = 
REMARK  4 active torsions:
REMARK  status: ('A' for Active; 'I' for Inactive)
REMARK    1  A    between atoms: C_4  and  O_5
REMARK    2  A    between atoms: O_5  and  C_6
REMARK    3  A    between atoms: C_11  and  N_12
REMARK    4  A    between atoms: C_26  and  C_28
REMARK                            x       y       z     vdW  Elec       q    Type
REMARK                         _______ _______ _______ _____ _____    ______ ____
ROOT
ATOM      1  N   UNL     1       6.941  -1.605  24.053  0.00  0.00    +0.000 N 
ATOM      2  C   UNL     1       6.563  -0.549  24.999  0.00  0.00    +0.000 C 
ATOM      3  C   UNL     1       7.632   0.321  25.140  0.00  0.00    +0.000 A 
ATOM      4  C   UNL     1       7.117   1.705  25.672  0.00  0.00    +0.000 A 
ATOM      5  C   UNL     1       7.784   2.955  25.348  0.00  0.00    +0.000 A 
ATOM      6  C   UNL     1       9.048   2.680  24.580  0.00  0.00    +0.000 A 
ATOM      7  C   UNL     1       9.575   1.567  23.967  0.00  0.00    +0.000 A 
ATOM      8  C   UNL     1       8.514   0.517  23.869  0.00  0.00    +0.000 A 
ATOM      9  C   UNL     1       7.808   0.172  22.693  0.00  0.00    +0.000 C 
ATOM     10  C   UNL     1       7.273  -1.206  22.674  0.00  0.00    +0.000 C 
ENDROOT
BRANCH   1  14
ATOM     11  C   UNL     1       6.811  -5.297  24.248  0.00  0.00    +0.000 A 
ATOM     12  C   UNL     1       7.829  -4.729  23.267  0.00  0.00    +0.000 A 
ATOM     13  C   UNL     1       8.403  -3.428  23.364  0.00  0.00    +0.000 A 
ATOM     14  C   UNL     1       7.878  -2.626  24.606  0.00  0.00    +0.000 A 
ATOM     15  C   UNL     1       7.455  -3.313  25.838  0.00  0.00    +0.000 A 
ATOM     16  C   UNL     1       6.962  -4.788  25.611  0.00  0.00    +0.000 A 
BRANCH  11  17
ATOM     17  O   UNL     1       5.772  -5.432  23.397  0.00  0.00    +0.000 OA
BRANCH  17  20
ATOM     18  C   UNL     1       2.586  -4.798  24.064  0.00  0.00    +0.000 A 
ATOM     19  N   UNL     1       4.032  -4.403  24.140  0.00  0.00    +0.000 NA
ATOM     20  C   UNL     1       4.666  -5.573  24.049  0.00  0.00    +0.000 A 
ATOM     21  N   UNL     1       4.579  -6.723  24.638  0.00  0.00    +0.000 NA
ATOM     22  C   UNL     1       3.325  -7.347  24.564  0.00  0.00    +0.000 A 
ATOM     23  C   UNL     1       2.367  -6.228  24.140  0.00  0.00    +0.000 A 
ENDBRANCH  17  20
ENDBRANCH  11  17
ENDBRANCH   1  14
BRANCH   9  24
ATOM     24  C   UNL     1       8.130   0.722  21.320  0.00  0.00    +0.000 A 
ATOM     25  C   UNL     1       7.058   1.761  21.113  0.00  0.00    +0.000 A 
ATOM     26  C   UNL     1       5.868   1.736  20.188  0.00  0.00    +0.000 A 
ATOM     27  C   UNL     1       6.062   0.512  19.365  0.00  0.00    +0.000 A 
ATOM     28  C   UNL     1       7.081  -0.430  19.102  0.00  0.00    +0.000 A 
ATOM     29  C   UNL     1       8.211  -0.142  20.113  0.00  0.00    +0.000 A 
ENDBRANCH   9  24
TORSDOF 4
ENDMDL
MODEL 7
REMARK VINA RESULT:      -7.6      3.411      7.645
REMARK  Name = 
REMARK  4 active torsions:
REMARK  status: ('A' for Active; 'I' for Inactive)
REMARK    1  A    between atoms: C_4  and  O_5
REMARK    2  A    between atoms: O_5  and  C_6
REMARK    3  A    between atoms: C_11  and  N_12
REMARK    4  A    between atoms: C_26  and  C_28
REMARK                            x       y       z     vdW  Elec       q    Type
REMARK                         _______ _______ _______ _____ _____    ______ ____
ROOT
ATOM      1  N   UNL     1       8.173  -0.529  23.007  0.00  0.00    +0.000 N 
ATOM      2  C   UNL     1       7.617  -1.713  22.342  0.00  0.00    +0.000 C 
ATOM      3  C   UNL     1       8.262  -2.838  22.830  0.00  0.00    +0.000 A 
ATOM      4  C   UNL     1       7.367  -4.105  22.585  0.00  0.00    +0.000 A 
ATOM      5  C   UNL     1       7.406  -5.260  23.465  0.00  0.00    +0.000 A 
ATOM      6  C   UNL     1       8.487  -5.086  24.497  0.00  0.00    +0.000 A 
ATOM      7  C   UNL     1       9.268  -4.027  24.898  0.00  0.00    +0.000 A 
ATOM      8  C   UNL     1       8.709  -2.764  24.322  0.00  0.00    +0.000 A 
ATOM      9  C   UNL     1       7.968  -1.794  25.036  0.00  0.00    +0.000 C 
ATOM     10  C   UNL     1       8.027  -0.431  24.470  0.00  0.00    +0.000 C 
ENDROOT
BRANCH   1  14
ATOM     11  C   UNL     1      10.243   2.488  23.547  0.00  0.00    +0.000 A 
ATOM     12  C   UNL     1      10.735   1.224  24.240  0.00  0.00    +0.000 A 
ATOM     13  C   UNL     1      10.432  -0.101  23.811  0.00  0.00    +0.000 A 
ATOM     14  C   UNL     1       9.529  -0.130  22.529  0.00  0.00    +0.000 A 
ATOM     15  C   UNL     1       9.585   0.949  21.528  0.00  0.00    +0.000 A 
ATOM     16  C   UNL     1      10.056   2.334  22.104  0.00  0.00    +0.000 A 
BRANCH  11  17
ATOM     17  O   UNL     1       9.487   2.981  24.551  0.00  0.00    +0.000 OA
BRANCH  17  20
ATOM     18  C   UNL     1       7.970   5.312  22.744  0.00  0.00    +0.000 A 
ATOM     19  N   UNL     1       8.726   4.912  23.978  0.00  0.00    +0.000 NA
ATOM     20  C   UNL     1       8.461   3.609  24.082  0.00  0.00    +0.000 A 
ATOM     21  N   UNL     1       7.394   2.875  24.063  0.00  0.00    +0.000 NA
ATOM     22  C   UNL     1       6.601   2.989  22.912  0.00  0.00    +0.000 A 
ATOM     23  C   UNL     1       7.088   4.278  22.240  0.00  0.00    +0.000 A 
ENDBRANCH  17  20
ENDBRANCH  11  17
ENDBRANCH   1  14
BRANCH   9  24
ATOM     24  C   UNL     1       7.754  -1.827  26.534  0.00  0.00    +0.000 A 
ATOM     25  C   UNL     1       6.325  -2.286  26.661  0.00  0.00    +0.000 A 
ATOM     26  C   UNL     1       5.105  -1.509  27.086  0.00  0.00    +0.000 A 
ATOM     27  C   UNL     1       5.639  -0.196  27.538  0.00  0.00    +0.000 A 
ATOM     28  C   UNL     1       6.890   0.384  27.842  0.00  0.00    +0.000 A 
ATOM     29  C   UNL     1       7.961  -0.633  27.396  0.00  0.00    +0.000 A 
ENDBRANCH   9  24
TORSDOF 4
ENDMDL
MODEL 8
REMARK VINA RESULT:      -7.4      2.731      4.505
REMARK  Name = 
REMARK  4 active torsions:
REMARK  status: ('A' for Active; 'I' for Inactive)
REMARK    1  A    between atoms: C_4  and  O_5
REMARK    2  A    between atoms: O_5  and  C_6
REMARK    3  A    between atoms: C_11  and  N_12
REMARK    4  A    between atoms: C_26  and  C_28
REMARK                            x       y       z     vdW  Elec       q    Type
REMARK                         _______ _______ _______ _____ _____    ______ ____
ROOT
ATOM      1  N   UNL     1       6.781  -1.441  25.104  0.00  0.00    +0.000 N 
ATOM      2  C   UNL     1       5.464  -0.883  25.429  0.00  0.00    +0.000 C 
ATOM      3  C   UNL     1       5.606  -0.005  26.491  0.00  0.00    +0.000 A 
ATOM      4  C   UNL     1       4.395   0.994  26.513  0.00  0.00    +0.000 A 
ATOM      5  C   UNL     1       4.517   2.346  27.031  0.00  0.00    +0.000 A 
ATOM      6  C   UNL     1       5.883   2.548  27.627  0.00  0.00    +0.000 A 
ATOM      7  C   UNL     1       7.057   1.830  27.600  0.00  0.00    +0.000 A 
ATOM      8  C   UNL     1       6.957   0.772  26.547  0.00  0.00    +0.000 A 
ATOM      9  C   UNL     1       7.580   0.815  25.279  0.00  0.00    +0.000 C 
ATOM     10  C   UNL     1       7.835  -0.506  24.669  0.00  0.00    +0.000 C 
ENDROOT
BRANCH   1  14
ATOM     11  C   UNL     1       8.130  -4.858  24.669  0.00  0.00    +0.000 A 
ATOM     12  C   UNL     1       9.143  -3.804  25.098  0.00  0.00    +0.000 A 
ATOM     13  C   UNL     1       8.812  -2.601  25.786  0.00  0.00    +0.000 A 
ATOM     14  C   UNL     1       7.275  -2.468  26.068  0.00  0.00    +0.000 A 
ATOM     15  C   UNL     1       6.426  -3.656  26.260  0.00  0.00    +0.000 A 
ATOM     16  C   UNL     1       6.968  -4.951  25.554  0.00  0.00    +0.000 A 
BRANCH  11  17
ATOM     17  O   UNL     1       8.296  -4.759  23.333  0.00  0.00    +0.000 OA
BRANCH  17  20
ATOM     18  C   UNL     1       5.306  -5.991  22.598  0.00  0.00    +0.000 A 
ATOM     19  N   UNL     1       6.799  -6.018  22.434  0.00  0.00    +0.000 NA
ATOM     20  C   UNL     1       7.154  -4.767  22.731  0.00  0.00    +0.000 A 
ATOM     21  N   UNL     1       6.775  -3.584  22.365  0.00  0.00    +0.000 NA
ATOM     22  C   UNL     1       5.418  -3.293  22.568  0.00  0.00    +0.000 A 
ATOM     23  C   UNL     1       4.764  -4.661  22.789  0.00  0.00    +0.000 A 
ENDBRANCH  17  20
ENDBRANCH  11  17
ENDBRANCH   1  14
BRANCH   9  24
ATOM     24  C   UNL     1       8.565   1.884  24.856  0.00  0.00    +0.000 A 
ATOM     25  C   UNL     1       7.796   2.661  23.820  0.00  0.00    +0.000 A 
ATOM     26  C   UNL     1       7.987   2.710  22.326  0.00  0.00    +0.000 A 
ATOM     27  C   UNL     1       9.240   1.946  22.085  0.00  0.00    +0.000 A 
ATOM     28  C   UNL     1      10.311   1.416  22.837  0.00  0.00    +0.000 A 
ATOM     29  C   UNL     1       9.914   1.560  24.321  0.00  0.00    +0.000 A 
ENDBRANCH   9  24
TORSDOF 4
ENDMDL
MODEL 9
REMARK VINA RESULT:      -7.3      2.139      3.129
REMARK  Name = 
REMARK  4 active torsions:
REMARK  status: ('A' for Active; 'I' for Inactive)
REMARK    1  A    between atoms: C_4  and  O_5
REMARK    2  A    between atoms: O_5  and  C_6
REMARK    3  A    between atoms: C_11  and  N_12
REMARK    4  A    between atoms: C_26  and  C_28
REMARK                            x       y       z     vdW  Elec       q    Type
REMARK                         _______ _______ _______ _____ _____    ______ ____
ROOT
ATOM      1  N   UNL     1       8.251  -1.228  24.847  0.00  0.00    +0.000 N 
ATOM      2  C   UNL     1       9.579  -0.639  25.052  0.00  0.00    +0.000 C 
ATOM      3  C   UNL     1       9.922   0.082  23.920  0.00  0.00    +0.000 A 
ATOM      4  C   UNL     1      11.023   1.141  24.285  0.00  0.00    +0.000 A 
ATOM      5  C   UNL     1      11.145   2.404  23.578  0.00  0.00    +0.000 A 
ATOM      6  C   UNL     1      10.182   2.443  22.424  0.00  0.00    +0.000 A 
ATOM      7  C   UNL     1       9.114   1.666  22.039  0.00  0.00    +0.000 A 
ATOM      8  C   UNL     1       8.737   0.762  23.170  0.00  0.00    +0.000 A 
ATOM      9  C   UNL     1       7.618   0.934  24.019  0.00  0.00    +0.000 C 
ATOM     10  C   UNL     1       7.117  -0.310  24.639  0.00  0.00    +0.000 C 
ENDROOT
BRANCH   1  14
ATOM     11  C   UNL     1       7.063  -4.710  25.228  0.00  0.00    +0.000 A 
ATOM     12  C   UNL     1       6.223  -3.829  24.313  0.00  0.00    +0.000 A 
ATOM     13  C   UNL     1       6.711  -2.675  23.634  0.00  0.00    +0.000 A 
ATOM     14  C   UNL     1       8.228  -2.400  23.923  0.00  0.00    +0.000 A 
ATOM     15  C   UNL     1       9.162  -3.498  24.226  0.00  0.00    +0.000 A 
ATOM     16  C   UNL     1       8.477  -4.765  24.856  0.00  0.00    +0.000 A 
BRANCH  11  17
ATOM     17  O   UNL     1       6.396  -4.490  26.381  0.00  0.00    +0.000 OA
BRANCH  17  20
ATOM     18  C   UNL     1       6.260  -6.472  29.037  0.00  0.00    +0.000 A 
ATOM     19  N   UNL     1       7.061  -5.779  27.972  0.00  0.00    +0.000 NA
ATOM     20  C   UNL     1       6.170  -5.604  26.995  0.00  0.00    +0.000 A 
ATOM     21  N   UNL     1       5.320  -6.354  26.370  0.00  0.00    +0.000 NA
ATOM     22  C   UNL     1       4.371  -6.997  27.179  0.00  0.00    +0.000 A 
ATOM     23  C   UNL     1       4.945  -6.892  28.596  0.00  0.00    +0.000 A 
ENDBRANCH  17  20
ENDBRANCH  11  17
ENDBRANCH   1  14
BRANCH   9  24
ATOM     24  C   UNL     1       6.551   1.987  23.811  0.00  0.00    +0.000 A 
ATOM     25  C   UNL     1       7.176   3.222  24.408  0.00  0.00    +0.000 A 
ATOM     26  C   UNL     1       6.828   3.949  25.681  0.00  0.00    +0.000 A 
ATOM     27  C   UNL     1       5.589   3.282  26.163  0.00  0.00    +0.000 A 
ATOM     28  C   UNL     1       4.625   2.372  25.677  0.00  0.00    +0.000 A 
ATOM     29  C   UNL     1       5.169   1.838  24.336  0.00  0.00    +0.000 A 
ENDBRANCH   9  24
TORSDOF 4
ENDMDL
