MODEL 1
REMARK VINA RESULT:      -8.6      0.000      0.000
REMARK  Name = 
REMARK  4 active torsions:
REMARK  status: ('A' for Active; 'I' for Inactive)
REMARK    1  A    between atoms: C_3  and  N_4
REMARK    2  A    between atoms: C_6  and  C_8
REMARK    3  A    between atoms: C_26  and  C_28
REMARK    4  A    between atoms: C_28  and  C_31
REMARK                            x       y       z     vdW  Elec       q    Type
REMARK                         _______ _______ _______ _____ _____    ______ ____
ROOT
ATOM      1  C   UNL     1       8.954  -1.944  22.408  0.00  0.00    +0.000 C 
ATOM      2  C   UNL     1       8.677  -1.903  23.804  0.00  0.00    +0.000 C 
ATOM      3  C   UNL     1       9.287  -0.982  24.940  0.00  0.00    +0.000 C 
ATOM      4  C   UNL     1       9.910  -0.029  23.919  0.00  0.00    +0.000 C 
ATOM      5  N   UNL     1       9.916  -0.034  22.768  0.00  0.00    +0.000 N 
ATOM      6  C   UNL     1       9.627   1.222  22.265  0.00  0.00    +0.000 C 
ATOM      7  O   UNL     1      10.416   2.009  22.043  0.00  0.00    +0.000 OA
ATOM      8  C   UNL     1      10.105  -0.966  21.914  0.00  0.00    +0.000 C 
ENDROOT
BRANCH   2   9
ATOM      9  N   UNL     1       8.068  -3.073  24.237  0.00  0.00    +0.000 N 
ATOM     10  H   UNL     1       7.169  -3.063  23.826  0.00  0.00    +0.000 HD
ATOM     11  C   UNL     1       8.481  -4.247  24.435  0.00  0.00    +0.000 C 
ATOM     12  O   UNL     1       9.758  -4.476  24.496  0.00  0.00    +0.000 OA
BRANCH  11  13
ATOM     13  C   UNL     1       7.768  -5.351  24.028  0.00  0.00    +0.000 A 
ATOM     14  C   UNL     1       6.542  -5.280  24.722  0.00  0.00    +0.000 A 
ATOM     15  C   UNL     1       5.104  -5.180  24.274  0.00  0.00    +0.000 A 
ATOM     16  C   UNL     1       5.257  -5.336  22.787  0.00  0.00    +0.000 A 
ATOM     17  C   UNL     1       6.277  -5.683  21.845  0.00  0.00    +0.000 A 
ATOM     18  C   UNL     1       7.564  -5.836  22.668  0.00  0.00    +0.000 A 
ENDBRANCH  11  13
ENDBRANCH   2   9
BRANCH   6  19
ATOM     19  C   UNL     1       8.082   1.544  22.643  0.00  0.00    +0.000 C 
BRANCH  19  20
ATOM     20  C   UNL     1       7.321   1.971  21.528  0.00  0.00    +0.000 C 
ATOM     21  C   UNL     1       5.916   2.635  21.906  0.00  0.00    +0.000 C 
ATOM     22  N   UNL     1       5.133   2.543  20.662  0.00  0.00    +0.000 N 
ATOM     23  H   UNL     1       4.237   2.623  20.928  0.00  0.00    +0.000 HD
ATOM     24  C   UNL     1       5.333   1.249  20.190  0.00  0.00    +0.000 A 
ATOM     25  N   UNL     1       5.112   1.419  18.780  0.00  0.00    +0.000 NA
ATOM     26  C   UNL     1       6.072   0.945  18.107  0.00  0.00    +0.000 A 
ATOM     27  C   UNL     1       7.285   0.258  18.469  0.00  0.00    +0.000 A 
ATOM     28  C   UNL     1       7.785   0.120  19.770  0.00  0.00    +0.000 A 
ATOM     29  C   UNL     1       6.735   0.878  20.536  0.00  0.00    +0.000 A 
ENDBRANCH  19  20
ENDBRANCH   6  19
TORSDOF 4
ENDMDL
MODEL 2
REMARK VINA RESULT:      -7.8      3.210      8.285
REMARK  Name = 
REMARK  4 active torsions:
REMARK  status: ('A' for Active; 'I' for Inactive)
REMARK    1  A    between atoms: C_3  and  N_4
REMARK    2  A    between atoms: C_6  and  C_8
REMARK    3  A    between atoms: C_26  and  C_28
REMARK    4  A    between atoms: C_28  and  C_31
REMARK                            x       y       z     vdW  Elec       q    Type
REMARK                         _______ _______ _______ _____ _____    ______ ____
ROOT
ATOM      1  C   UNL     1       7.748  -4.433  22.971  0.00  0.00    +0.000 C 
ATOM      2  C   UNL     1       7.381  -3.107  22.604  0.00  0.00    +0.000 C 
ATOM      3  C   UNL     1       5.948  -2.470  22.374  0.00  0.00    +0.000 C 
ATOM      4  C   UNL     1       5.246  -3.657  23.035  0.00  0.00    +0.000 C 
ATOM      5  N   UNL     1       5.653  -4.630  23.496  0.00  0.00    +0.000 N 
ATOM      6  C   UNL     1       5.057  -4.887  24.718  0.00  0.00    +0.000 C 
ATOM      7  O   UNL     1       4.102  -5.491  24.840  0.00  0.00    +0.000 OA
ATOM      8  C   UNL     1       6.543  -5.460  23.105  0.00  0.00    +0.000 C 
ENDROOT
BRANCH   2   9
ATOM      9  N   UNL     1       8.445  -2.426  22.029  0.00  0.00    +0.000 N 
ATOM     10  H   UNL     1       8.146  -2.207  21.112  0.00  0.00    +0.000 HD
ATOM     11  C   UNL     1       9.278  -1.588  22.464  0.00  0.00    +0.000 C 
ATOM     12  O   UNL     1       9.409  -1.418  23.746  0.00  0.00    +0.000 OA
BRANCH  11  13
ATOM     13  C   UNL     1       9.631  -0.467  21.748  0.00  0.00    +0.000 A 
ATOM     14  C   UNL     1       8.629  -0.321  20.767  0.00  0.00    +0.000 A 
ATOM     15  C   UNL     1       7.635   0.772  20.457  0.00  0.00    +0.000 A 
ATOM     16  C   UNL     1       8.080   1.841  21.415  0.00  0.00    +0.000 A 
ATOM     17  C   UNL     1       9.173   2.099  22.302  0.00  0.00    +0.000 A 
ATOM     18  C   UNL     1      10.042   0.833  22.263  0.00  0.00    +0.000 A 
ENDBRANCH  11  13
ENDBRANCH   2   9
BRANCH   6  19
ATOM     19  C   UNL     1       5.556  -3.733  25.744  0.00  0.00    +0.000 C 
BRANCH  19  20
ATOM     20  C   UNL     1       6.176  -4.259  26.903  0.00  0.00    +0.000 C 
ATOM     21  C   UNL     1       7.214  -5.442  26.616  0.00  0.00    +0.000 C 
ATOM     22  N   UNL     1       7.342  -6.126  27.913  0.00  0.00    +0.000 N 
ATOM     23  H   UNL     1       7.673  -6.980  27.710  0.00  0.00    +0.000 HD
ATOM     24  C   UNL     1       6.042  -6.267  28.391  0.00  0.00    +0.000 A 
ATOM     25  N   UNL     1       6.261  -6.328  29.811  0.00  0.00    +0.000 NA
ATOM     26  C   UNL     1       5.531  -5.495  30.421  0.00  0.00    +0.000 A 
ATOM     27  C   UNL     1       4.530  -4.556  29.985  0.00  0.00    +0.000 A 
ATOM     28  C   UNL     1       4.262  -4.212  28.654  0.00  0.00    +0.000 A 
ATOM     29  C   UNL     1       5.289  -5.057  27.952  0.00  0.00    +0.000 A 
ENDBRANCH  19  20
ENDBRANCH   6  19
TORSDOF 4
ENDMDL
MODEL 3
REMARK VINA RESULT:      -7.7      2.500      7.893
REMARK  Name = 
REMARK  4 active torsions:
REMARK  status: ('A' for Active; 'I' for Inactive)
REMARK    1  A    between atoms: C_3  and  N_4
REMARK    2  A    between atoms: C_6  and  C_8
REMARK    3  A    between atoms: C_26  and  C_28
REMARK    4  A    between atoms: C_28  and  C_31
REMARK                            x       y       z     vdW  Elec       q    Type
REMARK                         _______ _______ _______ _____ _____    ______ ____
ROOT
ATOM      1  C   UNL     1       8.032  -2.103  22.771  0.00  0.00    +0.000 C 
ATOM      2  C   UNL     1       6.979  -1.467  22.055  0.00  0.00    +0.000 C 
ATOM      3  C   UNL     1       5.890  -2.081  21.081  0.00  0.00    +0.000 C 
ATOM      4  C   UNL     1       6.200  -3.508  21.533  0.00  0.00    +0.000 C 
ATOM      5  N   UNL     1       6.961  -3.926  22.289  0.00  0.00    +0.000 N 
ATOM      6  C   UNL     1       6.372  -4.864  23.119  0.00  0.00    +0.000 C 
ATOM      7  O   UNL     1       6.330  -5.975  22.886  0.00  0.00    +0.000 OA
ATOM      8  C   UNL     1       8.193  -3.662  22.504  0.00  0.00    +0.000 C 
ENDROOT
BRANCH   2   9
ATOM      9  N   UNL     1       7.199  -0.102  21.932  0.00  0.00    +0.000 N 
ATOM     10  H   UNL     1       7.290   0.230  22.859  0.00  0.00    +0.000 HD
ATOM     11  C   UNL     1       7.848   0.605  21.116  0.00  0.00    +0.000 C 
ATOM     12  O   UNL     1       8.247   0.086  19.993  0.00  0.00    +0.000 OA
BRANCH  11  13
ATOM     13  C   UNL     1       8.646   1.649  21.525  0.00  0.00    +0.000 A 
ATOM     14  C   UNL     1       7.815   2.461  22.325  0.00  0.00    +0.000 A 
ATOM     15  C   UNL     1       7.877   2.899  23.769  0.00  0.00    +0.000 A 
ATOM     16  C   UNL     1       9.219   2.355  24.173  0.00  0.00    +0.000 A 
ATOM     17  C   UNL     1      10.365   1.759  23.557  0.00  0.00    +0.000 A 
ATOM     18  C   UNL     1       9.993   1.584  22.078  0.00  0.00    +0.000 A 
ENDBRANCH  11  13
ENDBRANCH   2   9
BRANCH   6  19
ATOM     19  C   UNL     1       5.298  -4.074  24.045  0.00  0.00    +0.000 C 
BRANCH  19  20
ATOM     20  C   UNL     1       5.596  -4.159  25.427  0.00  0.00    +0.000 C 
ATOM     21  C   UNL     1       6.978  -3.472  25.846  0.00  0.00    +0.000 C 
ATOM     22  N   UNL     1       7.300  -4.086  27.145  0.00  0.00    +0.000 N 
ATOM     23  H   UNL     1       8.223  -3.954  27.258  0.00  0.00    +0.000 HD
ATOM     24  C   UNL     1       7.074  -5.450  26.981  0.00  0.00    +0.000 A 
ATOM     25  N   UNL     1       6.790  -5.860  28.329  0.00  0.00    +0.000 NA
ATOM     26  C   UNL     1       5.707  -6.511  28.389  0.00  0.00    +0.000 A 
ATOM     27  C   UNL     1       4.757  -6.937  27.396  0.00  0.00    +0.000 A 
ATOM     28  C   UNL     1       4.740  -6.527  26.056  0.00  0.00    +0.000 A 
ATOM     29  C   UNL     1       5.912  -5.583  26.056  0.00  0.00    +0.000 A 
ENDBRANCH  19  20
ENDBRANCH   6  19
TORSDOF 4
ENDMDL
MODEL 4
REMARK VINA RESULT:      -7.6      2.191      7.321
REMARK  Name = 
REMARK  4 active torsions:
REMARK  status: ('A' for Active; 'I' for Inactive)
REMARK    1  A    between atoms: C_3  and  N_4
REMARK    2  A    between atoms: C_6  and  C_8
REMARK    3  A    between atoms: C_26  and  C_28
REMARK    4  A    between atoms: C_28  and  C_31
REMARK                            x       y       z     vdW  Elec       q    Type
REMARK                         _______ _______ _______ _____ _____    ______ ____
ROOT
ATOM      1  C   UNL     1       8.472  -0.255  24.176  0.00  0.00    +0.000 C 
ATOM      2  C   UNL     1       8.806  -0.096  22.801  0.00  0.00    +0.000 C 
ATOM      3  C   UNL     1       9.883  -0.851  21.917  0.00  0.00    +0.000 C 
ATOM      4  C   UNL     1      10.071  -1.943  22.969  0.00  0.00    +0.000 C 
ATOM      5  N   UNL     1       9.597  -2.102  24.006  0.00  0.00    +0.000 N 
ATOM      6  C   UNL     1       9.191  -3.415  24.171  0.00  0.00    +0.000 C 
ATOM      7  O   UNL     1       9.856  -4.231  24.598  0.00  0.00    +0.000 OA
ATOM      8  C   UNL     1       9.362  -1.302  24.975  0.00  0.00    +0.000 C 
ENDROOT
BRANCH   2   9
ATOM      9  N   UNL     1       8.372   1.128  22.311  0.00  0.00    +0.000 N 
ATOM     10  H   UNL     1       7.386   1.103  22.390  0.00  0.00    +0.000 HD
ATOM     11  C   UNL     1       8.819   2.303  22.385  0.00  0.00    +0.000 C 
ATOM     12  O   UNL     1      10.040   2.501  22.782  0.00  0.00    +0.000 OA
BRANCH  11  13
ATOM     13  C   UNL     1       8.003   3.382  22.638  0.00  0.00    +0.000 A 
ATOM     14  C   UNL     1       6.775   3.075  22.015  0.00  0.00    +0.000 A 
ATOM     15  C   UNL     1       5.367   2.905  22.532  0.00  0.00    +0.000 A 
ATOM     16  C   UNL     1       5.539   3.318  23.967  0.00  0.00    +0.000 A 
ATOM     17  C   UNL     1       6.538   3.916  24.798  0.00  0.00    +0.000 A 
ATOM     18  C   UNL     1       7.782   4.060  23.909  0.00  0.00    +0.000 A 
ENDBRANCH  11  13
ENDBRANCH   2   9
BRANCH   6  19
ATOM     19  C   UNL     1       7.965  -3.668  23.139  0.00  0.00    +0.000 C 
BRANCH  19  20
ATOM     20  C   UNL     1       7.360  -4.938  23.305  0.00  0.00    +0.000 C 
ATOM     21  C   UNL     1       6.927  -5.646  21.938  0.00  0.00    +0.000 C 
ATOM     22  N   UNL     1       5.933  -6.648  22.356  0.00  0.00    +0.000 N 
ATOM     23  H   UNL     1       5.442  -6.846  21.580  0.00  0.00    +0.000 HD
ATOM     24  C   UNL     1       5.089  -5.989  23.246  0.00  0.00    +0.000 A 
ATOM     25  N   UNL     1       4.603  -7.081  24.045  0.00  0.00    +0.000 NA
ATOM     26  C   UNL     1       4.756  -6.847  25.278  0.00  0.00    +0.000 A 
ATOM     27  C   UNL     1       5.272  -5.721  26.012  0.00  0.00    +0.000 A 
ATOM     28  C   UNL     1       5.939  -4.622  25.453  0.00  0.00    +0.000 A 
ATOM     29  C   UNL     1       5.936  -5.023  24.003  0.00  0.00    +0.000 A 
ENDBRANCH  19  20
ENDBRANCH   6  19
TORSDOF 4
ENDMDL
MODEL 5
REMARK VINA RESULT:      -7.6      2.748      7.426
REMARK  Name = 
REMARK  4 active torsions:
REMARK  status: ('A' for Active; 'I' for Inactive)
REMARK    1  A    between atoms: C_3  and  N_4
REMARK    2  A    between atoms: C_6  and  C_8
REMARK    3  A    between atoms: C_26  and  C_28
REMARK    4  A    between atoms: C_28  and  C_31
REMARK                            x       y       z     vdW  Elec       q    Type
REMARK                         _______ _______ _______ _____ _____    ______ ____
ROOT
ATOM      1  C   UNL     1       7.480  -1.873  24.537  0.00  0.00    +0.000 C 
ATOM      2  C   UNL     1       8.515  -2.635  23.925  0.00  0.00    +0.000 C 
ATOM      3  C   UNL     1       9.503  -3.705  24.551  0.00  0.00    +0.000 C 
ATOM      4  C   UNL     1       8.671  -3.816  25.829  0.00  0.00    +0.000 C 
ATOM      5  N   UNL     1       7.706  -3.287  26.166  0.00  0.00    +0.000 N 
ATOM      6  C   UNL     1       6.803  -4.190  26.699  0.00  0.00    +0.000 C 
ATOM      7  O   UNL     1       6.768  -4.473  27.798  0.00  0.00    +0.000 OA
ATOM      8  C   UNL     1       7.330  -2.066  26.108  0.00  0.00    +0.000 C 
ENDROOT
BRANCH   2   9
ATOM      9  N   UNL     1       8.917  -2.072  22.721  0.00  0.00    +0.000 N 
ATOM     10  H   UNL     1       8.088  -1.979  22.190  0.00  0.00    +0.000 HD
ATOM     11  C   UNL     1       9.773  -1.203  22.411  0.00  0.00    +0.000 C 
ATOM     12  O   UNL     1      10.677  -0.854  23.276  0.00  0.00    +0.000 OA
BRANCH  11  13
ATOM     13  C   UNL     1       9.507  -0.207  21.499  0.00  0.00    +0.000 A 
ATOM     14  C   UNL     1       8.271  -0.555  20.917  0.00  0.00    +0.000 A 
ATOM     15  C   UNL     1       6.927   0.131  20.855  0.00  0.00    +0.000 A 
ATOM     16  C   UNL     1       7.257   1.459  21.477  0.00  0.00    +0.000 A 
ATOM     17  C   UNL     1       8.414   2.190  21.894  0.00  0.00    +0.000 A 
ATOM     18  C   UNL     1       9.599   1.235  21.694  0.00  0.00    +0.000 A 
ENDBRANCH  11  13
ENDBRANCH   2   9
BRANCH   6  19
ATOM     19  C   UNL     1       6.316  -5.149  25.483  0.00  0.00    +0.000 C 
BRANCH  19  20
ATOM     20  C   UNL     1       4.992  -5.622  25.653  0.00  0.00    +0.000 C 
ATOM     21  C   UNL     1       4.854  -6.835  26.687  0.00  0.00    +0.000 C 
ATOM     22  N   UNL     1       3.562  -7.450  26.343  0.00  0.00    +0.000 N 
ATOM     23  H   UNL     1       3.601  -8.319  26.696  0.00  0.00    +0.000 HD
ATOM     24  C   UNL     1       3.552  -7.546  24.954  0.00  0.00    +0.000 A 
ATOM     25  N   UNL     1       2.141  -7.534  24.675  0.00  0.00    +0.000 NA
ATOM     26  C   UNL     1       1.855  -6.658  23.808  0.00  0.00    +0.000 A 
ATOM     27  C   UNL     1       2.648  -5.729  23.047  0.00  0.00    +0.000 A 
ATOM     28  C   UNL     1       4.005  -5.451  23.260  0.00  0.00    +0.000 A 
ATOM     29  C   UNL     1       4.275  -6.349  24.437  0.00  0.00    +0.000 A 
ENDBRANCH  19  20
ENDBRANCH   6  19
TORSDOF 4
ENDMDL
MODEL 6
REMARK VINA RESULT:      -7.5      2.930      4.969
REMARK  Name = 
REMARK  4 active torsions:
REMARK  status: ('A' for Active; 'I' for Inactive)
REMARK    1  A    between atoms: C_3  and  N_4
REMARK    2  A    between atoms: C_6  and  C_8
REMARK    3  A    between atoms: C_26  and  C_28
REMARK    4  A    between atoms: C_28  and  C_31
REMARK                            x       y       z     vdW  Elec       q    Type
REMARK                         _______ _______ _______ _____ _____    ______ ____
ROOT
ATOM      1  C   UNL     1       6.357  -4.807  24.276  0.00  0.00    +0.000 C 
ATOM      2  C   UNL     1       6.217  -4.799  25.693  0.00  0.00    +0.000 C 
ATOM      3  C   UNL     1       7.316  -4.922  26.829  0.00  0.00    +0.000 C 
ATOM      4  C   UNL     1       8.455  -4.674  25.839  0.00  0.00    +0.000 C 
ATOM      5  N   UNL     1       8.459  -4.489  24.703  0.00  0.00    +0.000 N 
ATOM      6  C   UNL     1       9.289  -3.431  24.374  0.00  0.00    +0.000 C 
ATOM      7  O   UNL     1      10.392  -3.546  24.135  0.00  0.00    +0.000 OA
ATOM      8  C   UNL     1       7.833  -5.048  23.739  0.00  0.00    +0.000 C 
ENDROOT
BRANCH   2   9
ATOM      9  N   UNL     1       4.915  -5.088  26.078  0.00  0.00    +0.000 N 
ATOM     10  H   UNL     1       4.353  -4.428  25.603  0.00  0.00    +0.000 HD
ATOM     11  C   UNL     1       4.292  -6.159  26.304  0.00  0.00    +0.000 C 
ATOM     12  O   UNL     1       4.955  -7.266  26.459  0.00  0.00    +0.000 OA
BRANCH  11  13
ATOM     13  C   UNL     1       3.013  -6.372  25.845  0.00  0.00    +0.000 A 
ATOM     14  C   UNL     1       2.749  -5.301  24.966  0.00  0.00    +0.000 A 
ATOM     15  C   UNL     1       2.407  -5.229  23.497  0.00  0.00    +0.000 A 
ATOM     16  C   UNL     1       2.245  -6.686  23.170  0.00  0.00    +0.000 A 
ATOM     17  C   UNL     1       2.175  -7.939  23.859  0.00  0.00    +0.000 A 
ATOM     18  C   UNL     1       2.438  -7.611  25.337  0.00  0.00    +0.000 A 
ENDBRANCH  11  13
ENDBRANCH   2   9
BRANCH   6  19
ATOM     19  C   UNL     1       8.611  -2.088  24.985  0.00  0.00    +0.000 C 
BRANCH  19  20
ATOM     20  C   UNL     1       8.489  -1.051  24.028  0.00  0.00    +0.000 C 
ATOM     21  C   UNL     1       8.063  -1.548  22.569  0.00  0.00    +0.000 C 
ATOM     22  N   UNL     1       8.466  -0.443  21.685  0.00  0.00    +0.000 N 
ATOM     23  H   UNL     1       8.527  -0.821  20.828  0.00  0.00    +0.000 HD
ATOM     24  C   UNL     1       9.749  -0.086  22.093  0.00  0.00    +0.000 A 
ATOM     25  N   UNL     1       9.811   1.290  21.680  0.00  0.00    +0.000 NA
ATOM     26  C   UNL     1      10.175   2.036  22.634  0.00  0.00    +0.000 A 
ATOM     27  C   UNL     1      10.563   1.777  23.996  0.00  0.00    +0.000 A 
ATOM     28  C   UNL     1      10.430   0.550  24.661  0.00  0.00    +0.000 A 
ATOM     29  C   UNL     1       9.795  -0.271  23.572  0.00  0.00    +0.000 A 
ENDBRANCH  19  20
ENDBRANCH   6  19
TORSDOF 4
ENDMDL
MODEL 7
REMARK VINA RESULT:      -7.4      3.004      5.132
REMARK  Name = 
REMARK  4 active torsions:
REMARK  status: ('A' for Active; 'I' for Inactive)
REMARK    1  A    between atoms: C_3  and  N_4
REMARK    2  A    between atoms: C_6  and  C_8
REMARK    3  A    between atoms: C_26  and  C_28
REMARK    4  A    between atoms: C_28  and  C_31
REMARK                            x       y       z     vdW  Elec       q    Type
REMARK                         _______ _______ _______ _____ _____    ______ ____
ROOT
ATOM      1  C   UNL     1       5.924  -3.340  24.697  0.00  0.00    +0.000 C 
ATOM      2  C   UNL     1       6.832  -4.430  24.579  0.00  0.00    +0.000 C 
ATOM      3  C   UNL     1       7.185  -5.334  23.326  0.00  0.00    +0.000 C 
ATOM      4  C   UNL     1       6.505  -4.365  22.358  0.00  0.00    +0.000 C 
ATOM      5  N   UNL     1       5.947  -3.374  22.529  0.00  0.00    +0.000 N 
ATOM      6  C   UNL     1       6.356  -2.410  21.623  0.00  0.00    +0.000 C 
ATOM      7  O   UNL     1       5.869  -2.252  20.609  0.00  0.00    +0.000 OA
ATOM      8  C   UNL     1       5.075  -3.016  23.393  0.00  0.00    +0.000 C 
ENDROOT
BRANCH   2   9
ATOM      9  N   UNL     1       7.147  -4.966  25.820  0.00  0.00    +0.000 N 
ATOM     10  H   UNL     1       7.572  -4.227  26.321  0.00  0.00    +0.000 HD
ATOM     11  C   UNL     1       6.570  -5.782  26.587  0.00  0.00    +0.000 C 
ATOM     12  O   UNL     1       5.589  -6.504  26.135  0.00  0.00    +0.000 OA
BRANCH  11  13
ATOM     13  C   UNL     1       6.490  -5.578  27.946  0.00  0.00    +0.000 A 
ATOM     14  C   UNL     1       5.777  -4.371  28.099  0.00  0.00    +0.000 A 
ATOM     15  C   UNL     1       4.475  -4.017  28.776  0.00  0.00    +0.000 A 
ATOM     16  C   UNL     1       4.138  -5.320  29.444  0.00  0.00    +0.000 A 
ATOM     17  C   UNL     1       4.756  -6.586  29.700  0.00  0.00    +0.000 A 
ATOM     18  C   UNL     1       6.109  -6.537  28.975  0.00  0.00    +0.000 A 
ENDBRANCH  11  13
ENDBRANCH   2   9
BRANCH   6  19
ATOM     19  C   UNL     1       7.900  -2.052  21.973  0.00  0.00    +0.000 C 
BRANCH  19  20
ATOM     20  C   UNL     1       8.118  -0.663  22.137  0.00  0.00    +0.000 C 
ATOM     21  C   UNL     1       8.274   0.145  20.765  0.00  0.00    +0.000 C 
ATOM     22  N   UNL     1       8.952   1.390  21.161  0.00  0.00    +0.000 N 
ATOM     23  H   UNL     1       9.333   1.726  20.372  0.00  0.00    +0.000 HD
ATOM     24  C   UNL     1       9.984   1.000  22.011  0.00  0.00    +0.000 A 
ATOM     25  N   UNL     1      10.164   2.183  22.808  0.00  0.00    +0.000 NA
ATOM     26  C   UNL     1      10.134   1.911  24.042  0.00  0.00    +0.000 A 
ATOM     27  C   UNL     1       9.994   0.680  24.777  0.00  0.00    +0.000 A 
ATOM     28  C   UNL     1       9.652  -0.562  24.227  0.00  0.00    +0.000 A 
ATOM     29  C   UNL     1       9.483  -0.172  22.783  0.00  0.00    +0.000 A 
ENDBRANCH  19  20
ENDBRANCH   6  19
TORSDOF 4
ENDMDL
MODEL 8
REMARK VINA RESULT:      -7.3      2.469      3.945
REMARK  Name = 
REMARK  4 active torsions:
REMARK  status: ('A' for Active; 'I' for Inactive)
REMARK    1  A    between atoms: C_3  and  N_4
REMARK    2  A    between atoms: C_6  and  C_8
REMARK    3  A    between atoms: C_26  and  C_28
REMARK    4  A    between atoms: C_28  and  C_31
REMARK                            x       y       z     vdW  Elec       q    Type
REMARK                         _______ _______ _______ _____ _____    ______ ____
ROOT
ATOM      1  C   UNL     1       7.519  -1.572  23.184  0.00  0.00    +0.000 C 
ATOM      2  C   UNL     1       8.918  -1.645  23.435  0.00  0.00    +0.000 C 
ATOM      3  C   UNL     1      10.142  -1.531  22.435  0.00  0.00    +0.000 C 
ATOM      4  C   UNL     1       9.258  -0.976  21.318  0.00  0.00    +0.000 C 
ATOM      5  N   UNL     1       8.129  -0.758  21.269  0.00  0.00    +0.000 N 
ATOM      6  C   UNL     1       7.887   0.483  20.705  0.00  0.00    +0.000 C 
ATOM      7  O   UNL     1       7.742   0.652  19.592  0.00  0.00    +0.000 OA
ATOM      8  C   UNL     1       7.108  -1.422  21.656  0.00  0.00    +0.000 C 
ENDROOT
BRANCH   2   9
ATOM      9  N   UNL     1       9.185  -2.260  24.651  0.00  0.00    +0.000 N 
ATOM     10  H   UNL     1       8.857  -1.628  25.337  0.00  0.00    +0.000 HD
ATOM     11  C   UNL     1       9.140  -3.453  25.051  0.00  0.00    +0.000 C 
ATOM     12  O   UNL     1       9.058  -4.418  24.184  0.00  0.00    +0.000 OA
BRANCH  11  13
ATOM     13  C   UNL     1       8.604  -3.796  26.271  0.00  0.00    +0.000 A 
ATOM     14  C   UNL     1       7.685  -2.771  26.575  0.00  0.00    +0.000 A 
ATOM     15  C   UNL     1       6.196  -2.757  26.824  0.00  0.00    +0.000 A 
ATOM     16  C   UNL     1       5.894  -4.229  26.826  0.00  0.00    +0.000 A 
ATOM     17  C   UNL     1       6.607  -5.470  26.823  0.00  0.00    +0.000 A 
ATOM     18  C   UNL     1       8.090  -5.093  26.691  0.00  0.00    +0.000 A 
ENDBRANCH  11  13
ENDBRANCH   2   9
BRANCH   6  19
ATOM     19  C   UNL     1       8.452   1.596  21.742  0.00  0.00    +0.000 C 
BRANCH  19  20
ATOM     20  C   UNL     1       7.443   2.131  22.578  0.00  0.00    +0.000 C 
ATOM     21  C   UNL     1       6.820   3.510  22.060  0.00  0.00    +0.000 C 
ATOM     22  N   UNL     1       6.200   4.094  23.260  0.00  0.00    +0.000 N 
ATOM     23  H   UNL     1       6.114   5.009  23.073  0.00  0.00    +0.000 HD
ATOM     24  C   UNL     1       7.138   3.944  24.277  0.00  0.00    +0.000 A 
ATOM     25  N   UNL     1       6.300   3.925  25.444  0.00  0.00    +0.000 NA
ATOM     26  C   UNL     1       6.549   2.920  26.169  0.00  0.00    +0.000 A 
ATOM     27  C   UNL     1       7.505   1.848  26.073  0.00  0.00    +0.000 A 
ATOM     28  C   UNL     1       8.310   1.572  24.960  0.00  0.00    +0.000 A 
ATOM     29  C   UNL     1       7.842   2.654  24.024  0.00  0.00    +0.000 A 
ENDBRANCH  19  20
ENDBRANCH   6  19
TORSDOF 4
ENDMDL
MODEL 9
REMARK VINA RESULT:      -7.2      2.736      7.311
REMARK  Name = 
REMARK  4 active torsions:
REMARK  status: ('A' for Active; 'I' for Inactive)
REMARK    1  A    between atoms: C_3  and  N_4
REMARK    2  A    between atoms: C_6  and  C_8
REMARK    3  A    between atoms: C_26  and  C_28
REMARK    4  A    between atoms: C_28  and  C_31
REMARK                            x       y       z     vdW  Elec       q    Type
REMARK                         _______ _______ _______ _____ _____    ______ ____
ROOT
ATOM      1  C   UNL     1       9.074   0.922  24.623  0.00  0.00    +0.000 C 
ATOM      2  C   UNL     1       9.162   1.437  23.299  0.00  0.00    +0.000 C 
ATOM      3  C   UNL     1      10.002   0.924  22.057  0.00  0.00    +0.000 C 
ATOM      4  C   UNL     1      10.299  -0.415  22.732  0.00  0.00    +0.000 C 
ATOM      5  N   UNL     1      10.011  -0.836  23.764  0.00  0.00    +0.000 N 
ATOM      6  C   UNL     1       9.548  -2.136  23.659  0.00  0.00    +0.000 C 
ATOM      7  O   UNL     1      10.218  -3.050  23.721  0.00  0.00    +0.000 OA
ATOM      8  C   UNL     1      10.015  -0.321  24.934  0.00  0.00    +0.000 C 
ENDROOT
BRANCH   2   9
ATOM      9  N   UNL     1       8.736   2.757  23.237  0.00  0.00    +0.000 N 
ATOM     10  H   UNL     1       7.787   2.735  23.514  0.00  0.00    +0.000 HD
ATOM     11  C   UNL     1       9.279   3.860  23.510  0.00  0.00    +0.000 C 
ATOM     12  O   UNL     1      10.567   3.917  23.678  0.00  0.00    +0.000 OA
BRANCH  11  13
ATOM     13  C   UNL     1       8.616   4.853  24.194  0.00  0.00    +0.000 A 
ATOM     14  C   UNL     1       7.405   5.041  23.496  0.00  0.00    +0.000 A 
ATOM     15  C   UNL     1       5.953   4.906  23.888  0.00  0.00    +0.000 A 
ATOM     16  C   UNL     1       6.079   4.647  25.363  0.00  0.00    +0.000 A 
ATOM     17  C   UNL     1       7.093   4.669  26.373  0.00  0.00    +0.000 A 
ATOM     18  C   UNL     1       8.406   4.964  25.632  0.00  0.00    +0.000 A 
ENDBRANCH  11  13
ENDBRANCH   2   9
BRANCH   6  19
ATOM     19  C   UNL     1       8.139  -2.076  22.856  0.00  0.00    +0.000 C 
BRANCH  19  20
ATOM     20  C   UNL     1       7.111  -2.811  23.495  0.00  0.00    +0.000 C 
ATOM     21  C   UNL     1       7.125  -2.712  25.091  0.00  0.00    +0.000 C 
ATOM     22  N   UNL     1       6.340  -3.878  25.526  0.00  0.00    +0.000 N 
ATOM     23  H   UNL     1       6.592  -4.027  26.418  0.00  0.00    +0.000 HD
ATOM     24  C   UNL     1       6.801  -4.946  24.762  0.00  0.00    +0.000 A 
ATOM     25  N   UNL     1       5.655  -5.814  24.758  0.00  0.00    +0.000 NA
ATOM     26  C   UNL     1       5.345  -6.156  23.580  0.00  0.00    +0.000 A 
ATOM     27  C   UNL     1       5.923  -5.882  22.290  0.00  0.00    +0.000 A 
ATOM     28  C   UNL     1       6.935  -4.947  22.033  0.00  0.00    +0.000 A 
ATOM     29  C   UNL     1       7.141  -4.397  23.418  0.00  0.00    +0.000 A 
ENDBRANCH  19  20
ENDBRANCH   6  19
TORSDOF 4
ENDMDL
