MODEL 1
REMARK VINA RESULT:      -8.9      0.000      0.000
REMARK  Name = 
REMARK  4 active torsions:
REMARK  status: ('A' for Active; 'I' for Inactive)
REMARK    1  A    between atoms: C_5  and  C_6
REMARK    2  A    between atoms: N_8  and  C_10
REMARK    3  A    between atoms: C_19  and  C_21
REMARK    4  A    between atoms: N_35  and  C_36
REMARK                            x       y       z     vdW  Elec       q    Type
REMARK                         _______ _______ _______ _____ _____    ______ ____
ROOT
ATOM      1  C   UNL     1       9.265  -0.417  25.533  0.00  0.00    +0.000 C 
ATOM      2  C   UNL     1      10.139  -0.576  24.417  0.00  0.00    +0.000 C 
ATOM      3  C   UNL     1       9.630  -1.909  23.679  0.00  0.00    +0.000 C 
ATOM      4  C   UNL     1       8.753  -2.554  24.584  0.00  0.00    +0.000 C 
ATOM      5  C   UNL     1       8.334  -1.689  25.838  0.00  0.00    +0.000 C 
ATOM      6  O   UNL     1       9.454  -1.539  22.287  0.00  0.00    +0.000 OA
ATOM      7  N   UNL     1       9.220  -0.083  22.337  0.00  0.00    +0.000 NA
ATOM      8  C   UNL     1      10.157   0.492  23.215  0.00  0.00    +0.000 C 
ENDROOT
BRANCH   7   9
ATOM      9  C   UNL     1       9.074   0.546  21.116  0.00  0.00    +0.000 C 
ATOM     10  N   UNL     1       8.366  -0.467  20.170  0.00  0.00    +0.000 NA
ATOM     11  C   UNL     1       6.982  -0.425  20.489  0.00  0.00    +0.000 A 
ATOM     12  C   UNL     1       6.486  -0.515  19.038  0.00  0.00    +0.000 A 
ATOM     13  C   UNL     1       5.699   0.480  18.277  0.00  0.00    +0.000 A 
ATOM     14  C   UNL     1       5.402   1.576  19.249  0.00  0.00    +0.000 A 
ATOM     15  C   UNL     1       5.662   1.937  20.591  0.00  0.00    +0.000 A 
ATOM     16  C   UNL     1       6.728   0.944  21.064  0.00  0.00    +0.000 A 
ATOM     17  N   UNL     1       7.966   1.595  21.272  0.00  0.00    +0.000 N 
ATOM     18  H   UNL     1       8.027   2.272  20.591  0.00  0.00    +0.000 HD
ENDBRANCH   7   9
BRANCH   4  19
ATOM     19  C   UNL     1       8.955  -3.979  24.910  0.00  0.00    +0.000 C 
ATOM     20  O   UNL     1      10.034  -4.494  24.671  0.00  0.00    +0.000 OA
ATOM     21  N   UNL     1       7.945  -4.545  25.421  0.00  0.00    +0.000 N 
ATOM     22  H   UNL     1       8.164  -4.879  26.323  0.00  0.00    +0.000 HD
BRANCH  21  23
ATOM     23  C   UNL     1       6.798  -5.182  24.756  0.00  0.00    +0.000 C 
ATOM     24  C   UNL     1       5.558  -4.477  25.170  0.00  0.00    +0.000 C 
ATOM     25  C   UNL     1       4.698  -4.016  24.006  0.00  0.00    +0.000 C 
ATOM     26  N   UNL     1       4.631  -5.191  23.094  0.00  0.00    +0.000 N 
ATOM     27  C   UNL     1       4.034  -6.301  23.636  0.00  0.00    +0.000 C 
ATOM     28  O   UNL     1       4.727  -7.136  24.178  0.00  0.00    +0.000 OA
ATOM     29  C   UNL     1       5.885  -5.437  22.378  0.00  0.00    +0.000 C 
ATOM     30  C   UNL     1       7.066  -5.378  23.311  0.00  0.00    +0.000 C 
BRANCH  27  31
ATOM     31  C   UNL     1       2.634  -6.583  23.190  0.00  0.00    +0.000 C 
ATOM     32 CL   UNL     1       2.082  -8.146  23.830  0.00  0.00    +0.000 Cl
ENDBRANCH  27  31
ENDBRANCH  21  23
ENDBRANCH   4  19
TORSDOF 4
ENDMDL
MODEL 2
REMARK VINA RESULT:      -7.9      3.070      4.568
REMARK  Name = 
REMARK  4 active torsions:
REMARK  status: ('A' for Active; 'I' for Inactive)
REMARK    1  A    between atoms: C_5  and  C_6
REMARK    2  A    between atoms: N_8  and  C_10
REMARK    3  A    between atoms: C_19  and  C_21
REMARK    4  A    between atoms: N_35  and  C_36
REMARK                            x       y       z     vdW  Elec       q    Type
REMARK                         _______ _______ _______ _____ _____    ______ ____
ROOT
ATOM      1  C   UNL     1      10.268  -1.426  22.578  0.00  0.00    +0.000 C 
ATOM      2  C   UNL     1       9.453  -0.775  21.605  0.00  0.00    +0.000 C 
ATOM      3  C   UNL     1       7.955  -1.256  21.932  0.00  0.00    +0.000 C 
ATOM      4  C   UNL     1       8.074  -2.353  22.818  0.00  0.00    +0.000 C 
ATOM      5  C   UNL     1       9.521  -2.575  23.413  0.00  0.00    +0.000 C 
ATOM      6  O   UNL     1       7.168  -0.039  22.026  0.00  0.00    +0.000 OA
ATOM      7  N   UNL     1       8.158   0.991  22.392  0.00  0.00    +0.000 NA
ATOM      8  C   UNL     1       9.298   0.826  21.584  0.00  0.00    +0.000 C 
ENDROOT
BRANCH   7   9
ATOM      9  C   UNL     1       7.674   2.281  22.494  0.00  0.00    +0.000 C 
ATOM     10  N   UNL     1       7.270   2.494  23.982  0.00  0.00    +0.000 NA
ATOM     11  C   UNL     1       8.468   2.762  24.696  0.00  0.00    +0.000 A 
ATOM     12  C   UNL     1       7.871   3.853  25.597  0.00  0.00    +0.000 A 
ATOM     13  C   UNL     1       8.245   5.282  25.675  0.00  0.00    +0.000 A 
ATOM     14  C   UNL     1       9.404   5.439  24.744  0.00  0.00    +0.000 A 
ATOM     15  C   UNL     1      10.182   4.678  23.842  0.00  0.00    +0.000 A 
ATOM     16  C   UNL     1       9.427   3.353  23.695  0.00  0.00    +0.000 A 
ATOM     17  N   UNL     1       8.876   3.229  22.398  0.00  0.00    +0.000 N 
ATOM     18  H   UNL     1       8.603   4.114  22.140  0.00  0.00    +0.000 HD
ENDBRANCH   7   9
BRANCH   4  19
ATOM     19  C   UNL     1       7.376  -3.618  22.517  0.00  0.00    +0.000 C 
ATOM     20  O   UNL     1       6.585  -3.651  21.589  0.00  0.00    +0.000 OA
ATOM     21  N   UNL     1       7.677  -4.576  23.288  0.00  0.00    +0.000 N 
ATOM     22  H   UNL     1       8.074  -5.315  22.768  0.00  0.00    +0.000 HD
BRANCH  21  23
ATOM     23  C   UNL     1       7.107  -4.934  24.594  0.00  0.00    +0.000 C 
ATOM     24  C   UNL     1       8.220  -5.225  25.534  0.00  0.00    +0.000 C 
ATOM     25  C   UNL     1       8.141  -4.447  26.836  0.00  0.00    +0.000 C 
ATOM     26  N   UNL     1       6.726  -4.583  27.276  0.00  0.00    +0.000 N 
ATOM     27  C   UNL     1       6.332  -5.870  27.538  0.00  0.00    +0.000 C 
ATOM     28  O   UNL     1       5.808  -6.517  26.656  0.00  0.00    +0.000 OA
ATOM     29  C   UNL     1       5.793  -3.791  26.471  0.00  0.00    +0.000 C 
ATOM     30  C   UNL     1       6.058  -3.967  24.999  0.00  0.00    +0.000 C 
BRANCH  27  31
ATOM     31  C   UNL     1       6.229  -6.249  28.983  0.00  0.00    +0.000 C 
ATOM     32 CL   UNL     1       5.225  -5.076  29.862  0.00  0.00    +0.000 Cl
ENDBRANCH  27  31
ENDBRANCH  21  23
ENDBRANCH   4  19
TORSDOF 4
ENDMDL
MODEL 3
REMARK VINA RESULT:      -7.6      3.018      4.328
REMARK  Name = 
REMARK  4 active torsions:
REMARK  status: ('A' for Active; 'I' for Inactive)
REMARK    1  A    between atoms: C_5  and  C_6
REMARK    2  A    between atoms: N_8  and  C_10
REMARK    3  A    between atoms: C_19  and  C_21
REMARK    4  A    between atoms: N_35  and  C_36
REMARK                            x       y       z     vdW  Elec       q    Type
REMARK                         _______ _______ _______ _____ _____    ______ ____
ROOT
ATOM      1  C   UNL     1      10.483  -1.711  22.924  0.00  0.00    +0.000 C 
ATOM      2  C   UNL     1       9.659  -1.167  21.894  0.00  0.00    +0.000 C 
ATOM      3  C   UNL     1       8.162  -1.594  22.295  0.00  0.00    +0.000 C 
ATOM      4  C   UNL     1       8.286  -2.583  23.299  0.00  0.00    +0.000 C 
ATOM      5  C   UNL     1       9.740  -2.750  23.895  0.00  0.00    +0.000 C 
ATOM      6  O   UNL     1       7.387  -0.367  22.260  0.00  0.00    +0.000 OA
ATOM      7  N   UNL     1       8.391   0.689  22.492  0.00  0.00    +0.000 NA
ATOM      8  C   UNL     1       9.517   0.421  21.692  0.00  0.00    +0.000 C 
ENDROOT
BRANCH   7   9
ATOM      9  C   UNL     1       7.919   1.987  22.452  0.00  0.00    +0.000 C 
ATOM     10  N   UNL     1       7.430   2.332  23.889  0.00  0.00    +0.000 NA
ATOM     11  C   UNL     1       8.586   2.652  24.648  0.00  0.00    +0.000 A 
ATOM     12  C   UNL     1       7.951   3.823  25.413  0.00  0.00    +0.000 A 
ATOM     13  C   UNL     1       8.339   5.250  25.390  0.00  0.00    +0.000 A 
ATOM     14  C   UNL     1       9.553   5.315  24.521  0.00  0.00    +0.000 A 
ATOM     15  C   UNL     1      10.374   4.472  23.737  0.00  0.00    +0.000 A 
ATOM     16  C   UNL     1       9.611   3.145  23.659  0.00  0.00    +0.000 A 
ATOM     17  N   UNL     1       9.137   2.913  22.348  0.00  0.00    +0.000 N 
ATOM     18  H   UNL     1       8.891   3.775  21.998  0.00  0.00    +0.000 HD
ENDBRANCH   7   9
BRANCH   4  19
ATOM     19  C   UNL     1       7.573  -3.867  23.155  0.00  0.00    +0.000 C 
ATOM     20  O   UNL     1       6.990  -4.107  22.110  0.00  0.00    +0.000 OA
ATOM     21  N   UNL     1       7.637  -4.616  24.173  0.00  0.00    +0.000 N 
ATOM     22  H   UNL     1       8.077  -5.468  23.938  0.00  0.00    +0.000 HD
BRANCH  21  23
ATOM     23  C   UNL     1       6.785  -4.635  25.371  0.00  0.00    +0.000 C 
ATOM     24  C   UNL     1       5.536  -5.373  25.054  0.00  0.00    +0.000 C 
ATOM     25  C   UNL     1       5.218  -6.488  26.035  0.00  0.00    +0.000 C 
ATOM     26  N   UNL     1       5.416  -5.880  27.380  0.00  0.00    +0.000 N 
ATOM     27  C   UNL     1       4.579  -4.830  27.659  0.00  0.00    +0.000 C 
ATOM     28  O   UNL     1       4.951  -3.700  27.421  0.00  0.00    +0.000 OA
ATOM     29  C   UNL     1       6.826  -5.667  27.713  0.00  0.00    +0.000 C 
ATOM     30  C   UNL     1       7.566  -5.023  26.570  0.00  0.00    +0.000 C 
BRANCH  27  31
ATOM     31  C   UNL     1       3.435  -5.124  28.579  0.00  0.00    +0.000 C 
ATOM     32 CL   UNL     1       3.624  -6.732  29.310  0.00  0.00    +0.000 Cl
ENDBRANCH  27  31
ENDBRANCH  21  23
ENDBRANCH   4  19
TORSDOF 4
ENDMDL
MODEL 4
REMARK VINA RESULT:      -7.5      2.417      3.143
REMARK  Name = 
REMARK  4 active torsions:
REMARK  status: ('A' for Active; 'I' for Inactive)
REMARK    1  A    between atoms: C_5  and  C_6
REMARK    2  A    between atoms: N_8  and  C_10
REMARK    3  A    between atoms: C_19  and  C_21
REMARK    4  A    between atoms: N_35  and  C_36
REMARK                            x       y       z     vdW  Elec       q    Type
REMARK                         _______ _______ _______ _____ _____    ______ ____
ROOT
ATOM      1  C   UNL     1       6.252   2.169  26.162  0.00  0.00    +0.000 C 
ATOM      2  C   UNL     1       7.537   2.422  25.595  0.00  0.00    +0.000 C 
ATOM      3  C   UNL     1       8.101   0.974  25.186  0.00  0.00    +0.000 C 
ATOM      4  C   UNL     1       7.267   0.027  25.827  0.00  0.00    +0.000 C 
ATOM      5  C   UNL     1       5.950   0.622  26.466  0.00  0.00    +0.000 C 
ATOM      6  O   UNL     1       8.510   1.094  23.798  0.00  0.00    +0.000 OA
ATOM      7  N   UNL     1       7.681   2.201  23.284  0.00  0.00    +0.000 NA
ATOM      8  C   UNL     1       7.695   3.247  24.224  0.00  0.00    +0.000 C 
ENDROOT
BRANCH   7   9
ATOM      9  C   UNL     1       7.915   2.567  21.972  0.00  0.00    +0.000 C 
ATOM     10  N   UNL     1       8.393   1.288  21.226  0.00  0.00    +0.000 NA
ATOM     11  C   UNL     1       7.230   0.529  20.930  0.00  0.00    +0.000 A 
ATOM     12  C   UNL     1       7.680   0.098  19.525  0.00  0.00    +0.000 A 
ATOM     13  C   UNL     1       7.045   0.408  18.226  0.00  0.00    +0.000 A 
ATOM     14  C   UNL     1       5.804   1.169  18.564  0.00  0.00    +0.000 A 
ATOM     15  C   UNL     1       5.114   1.676  19.688  0.00  0.00    +0.000 A 
ATOM     16  C   UNL     1       6.095   1.517  20.854  0.00  0.00    +0.000 A 
ATOM     17  N   UNL     1       6.549   2.777  21.307  0.00  0.00    +0.000 N 
ATOM     18  H   UNL     1       6.624   3.330  20.522  0.00  0.00    +0.000 HD
ENDBRANCH   7   9
BRANCH   4  19
ATOM     19  C   UNL     1       7.869  -1.044  26.645  0.00  0.00    +0.000 C 
ATOM     20  O   UNL     1       8.939  -0.841  27.193  0.00  0.00    +0.000 OA
ATOM     21  N   UNL     1       7.187  -2.110  26.691  0.00  0.00    +0.000 N 
ATOM     22  H   UNL     1       6.928  -2.305  27.623  0.00  0.00    +0.000 HD
BRANCH  21  23
ATOM     23  C   UNL     1       7.178  -3.251  25.764  0.00  0.00    +0.000 C 
ATOM     24  C   UNL     1       7.080  -2.733  24.375  0.00  0.00    +0.000 C 
ATOM     25  C   UNL     1       8.152  -3.271  23.444  0.00  0.00    +0.000 C 
ATOM     26  N   UNL     1       8.182  -4.736  23.704  0.00  0.00    +0.000 N 
ATOM     27  C   UNL     1       7.013  -5.391  23.411  0.00  0.00    +0.000 C 
ATOM     28  O   UNL     1       6.193  -5.553  24.290  0.00  0.00    +0.000 OA
ATOM     29  C   UNL     1       8.792  -5.081  24.990  0.00  0.00    +0.000 C 
ATOM     30  C   UNL     1       8.255  -4.214  26.098  0.00  0.00    +0.000 C 
BRANCH  27  31
ATOM     31  C   UNL     1       6.999  -6.184  22.142  0.00  0.00    +0.000 C 
ATOM     32 CL   UNL     1       6.201  -5.266  20.846  0.00  0.00    +0.000 Cl
ENDBRANCH  27  31
ENDBRANCH  21  23
ENDBRANCH   4  19
TORSDOF 4
ENDMDL
MODEL 5
REMARK VINA RESULT:      -7.4      3.822      8.428
REMARK  Name = 
REMARK  4 active torsions:
REMARK  status: ('A' for Active; 'I' for Inactive)
REMARK    1  A    between atoms: C_5  and  C_6
REMARK    2  A    between atoms: N_8  and  C_10
REMARK    3  A    between atoms: C_19  and  C_21
REMARK    4  A    between atoms: N_35  and  C_36
REMARK                            x       y       z     vdW  Elec       q    Type
REMARK                         _______ _______ _______ _____ _____    ______ ____
ROOT
ATOM      1  C   UNL     1       6.071  -3.843  21.961  0.00  0.00    +0.000 C 
ATOM      2  C   UNL     1       6.572  -5.068  22.492  0.00  0.00    +0.000 C 
ATOM      3  C   UNL     1       7.589  -4.629  23.657  0.00  0.00    +0.000 C 
ATOM      4  C   UNL     1       7.823  -3.245  23.479  0.00  0.00    +0.000 C 
ATOM      5  C   UNL     1       6.859  -2.532  22.450  0.00  0.00    +0.000 C 
ATOM      6  O   UNL     1       7.183  -5.381  24.830  0.00  0.00    +0.000 OA
ATOM      7  N   UNL     1       5.756  -5.668  24.587  0.00  0.00    +0.000 NA
ATOM      8  C   UNL     1       5.606  -6.101  23.257  0.00  0.00    +0.000 C 
ENDROOT
BRANCH   7   9
ATOM      9  C   UNL     1       5.125  -6.436  25.546  0.00  0.00    +0.000 C 
ATOM     10  N   UNL     1       5.895  -6.213  26.880  0.00  0.00    +0.000 NA
ATOM     11  C   UNL     1       5.444  -4.975  27.408  0.00  0.00    +0.000 A 
ATOM     12  C   UNL     1       5.398  -5.438  28.872  0.00  0.00    +0.000 A 
ATOM     13  C   UNL     1       4.224  -5.531  29.767  0.00  0.00    +0.000 A 
ATOM     14  C   UNL     1       3.079  -4.990  28.973  0.00  0.00    +0.000 A 
ATOM     15  C   UNL     1       2.797  -4.476  27.687  0.00  0.00    +0.000 A 
ATOM     16  C   UNL     1       4.055  -4.769  26.863  0.00  0.00    +0.000 A 
ATOM     17  N   UNL     1       3.795  -5.750  25.879  0.00  0.00    +0.000 N 
ATOM     18  H   UNL     1       3.173  -6.367  26.277  0.00  0.00    +0.000 HD
ENDBRANCH   7   9
BRANCH   4  19
ATOM     19  C   UNL     1       9.207  -2.737  23.416  0.00  0.00    +0.000 C 
ATOM     20  O   UNL     1      10.067  -3.278  24.091  0.00  0.00    +0.000 OA
ATOM     21  N   UNL     1       9.366  -1.749  22.641  0.00  0.00    +0.000 N 
ATOM     22  H   UNL     1      10.006  -1.980  21.926  0.00  0.00    +0.000 HD
BRANCH  21  23
ATOM     23  C   UNL     1       9.183  -0.316  22.910  0.00  0.00    +0.000 C 
ATOM     24  C   UNL     1       9.731  -0.012  24.257  0.00  0.00    +0.000 C 
ATOM     25  C   UNL     1      10.726   1.136  24.268  0.00  0.00    +0.000 C 
ATOM     26  N   UNL     1      10.084   2.205  23.455  0.00  0.00    +0.000 N 
ATOM     27  C   UNL     1       8.901   2.676  23.966  0.00  0.00    +0.000 C 
ATOM     28  O   UNL     1       7.859   2.179  23.593  0.00  0.00    +0.000 OA
ATOM     29  C   UNL     1      10.078   1.912  22.020  0.00  0.00    +0.000 C 
ATOM     30  C   UNL     1       9.623   0.501  21.753  0.00  0.00    +0.000 C 
BRANCH  27  31
ATOM     31  C   UNL     1       8.959   4.008  24.647  0.00  0.00    +0.000 C 
ATOM     32 CL   UNL     1      10.215   5.026  23.911  0.00  0.00    +0.000 Cl
ENDBRANCH  27  31
ENDBRANCH  21  23
ENDBRANCH   4  19
TORSDOF 4
ENDMDL
MODEL 6
REMARK VINA RESULT:      -7.4      3.620      8.078
REMARK  Name = 
REMARK  4 active torsions:
REMARK  status: ('A' for Active; 'I' for Inactive)
REMARK    1  A    between atoms: C_5  and  C_6
REMARK    2  A    between atoms: N_8  and  C_10
REMARK    3  A    between atoms: C_19  and  C_21
REMARK    4  A    between atoms: N_35  and  C_36
REMARK                            x       y       z     vdW  Elec       q    Type
REMARK                         _______ _______ _______ _____ _____    ______ ____
ROOT
ATOM      1  C   UNL     1       7.413  -5.888  22.474  0.00  0.00    +0.000 C 
ATOM      2  C   UNL     1       8.154  -4.935  23.234  0.00  0.00    +0.000 C 
ATOM      3  C   UNL     1       7.205  -3.641  23.315  0.00  0.00    +0.000 C 
ATOM      4  C   UNL     1       6.183  -3.838  22.355  0.00  0.00    +0.000 C 
ATOM      5  C   UNL     1       6.114  -5.293  21.744  0.00  0.00    +0.000 C 
ATOM      6  O   UNL     1       7.131  -3.301  24.724  0.00  0.00    +0.000 OA
ATOM      7  N   UNL     1       7.407  -4.578  25.408  0.00  0.00    +0.000 NA
ATOM      8  C   UNL     1       8.505  -5.195  24.782  0.00  0.00    +0.000 C 
ENDROOT
BRANCH   7   9
ATOM      9  C   UNL     1       7.454  -4.523  26.788  0.00  0.00    +0.000 C 
ATOM     10  N   UNL     1       6.234  -3.673  27.246  0.00  0.00    +0.000 NA
ATOM     11  C   UNL     1       5.101  -4.527  27.202  0.00  0.00    +0.000 A 
ATOM     12  C   UNL     1       4.464  -4.007  28.500  0.00  0.00    +0.000 A 
ATOM     13  C   UNL     1       4.193  -4.751  29.749  0.00  0.00    +0.000 A 
ATOM     14  C   UNL     1       4.592  -6.163  29.462  0.00  0.00    +0.000 A 
ATOM     15  C   UNL     1       5.147  -6.944  28.423  0.00  0.00    +0.000 A 
ATOM     16  C   UNL     1       5.627  -5.928  27.382  0.00  0.00    +0.000 A 
ATOM     17  N   UNL     1       7.039  -5.903  27.314  0.00  0.00    +0.000 N 
ATOM     18  H   UNL     1       7.350  -6.042  28.214  0.00  0.00    +0.000 HD
ENDBRANCH   7   9
BRANCH   4  19
ATOM     19  C   UNL     1       5.897  -2.783  21.363  0.00  0.00    +0.000 C 
ATOM     20  O   UNL     1       5.614  -3.106  20.221  0.00  0.00    +0.000 OA
ATOM     21  N   UNL     1       5.983  -1.604  21.815  0.00  0.00    +0.000 N 
ATOM     22  H   UNL     1       5.113  -1.147  21.732  0.00  0.00    +0.000 HD
BRANCH  21  23
ATOM     23  C   UNL     1       7.164  -0.737  21.935  0.00  0.00    +0.000 C 
ATOM     24  C   UNL     1       7.098  -0.022  23.235  0.00  0.00    +0.000 C 
ATOM     25  C   UNL     1       8.357  -0.160  24.073  0.00  0.00    +0.000 C 
ATOM     26  N   UNL     1       9.476   0.098  23.125  0.00  0.00    +0.000 N 
ATOM     27  C   UNL     1       9.479   1.354  22.575  0.00  0.00    +0.000 C 
ATOM     28  O   UNL     1       8.928   1.532  21.509  0.00  0.00    +0.000 OA
ATOM     29  C   UNL     1       9.698  -1.002  22.184  0.00  0.00    +0.000 C 
ATOM     30  C   UNL     1       8.401  -1.473  21.580  0.00  0.00    +0.000 C 
BRANCH  27  31
ATOM     31  C   UNL     1      10.477   2.319  23.136  0.00  0.00    +0.000 C 
ATOM     32 CL   UNL     1       9.653   3.606  24.042  0.00  0.00    +0.000 Cl
ENDBRANCH  27  31
ENDBRANCH  21  23
ENDBRANCH   4  19
TORSDOF 4
ENDMDL
MODEL 7
REMARK VINA RESULT:      -7.1      3.044      5.256
REMARK  Name = 
REMARK  4 active torsions:
REMARK  status: ('A' for Active; 'I' for Inactive)
REMARK    1  A    between atoms: C_5  and  C_6
REMARK    2  A    between atoms: N_8  and  C_10
REMARK    3  A    between atoms: C_19  and  C_21
REMARK    4  A    between atoms: N_35  and  C_36
REMARK                            x       y       z     vdW  Elec       q    Type
REMARK                         _______ _______ _______ _____ _____    ______ ____
ROOT
ATOM      1  C   UNL     1       6.748  -4.697  21.210  0.00  0.00    +0.000 C 
ATOM      2  C   UNL     1       5.822  -3.633  21.413  0.00  0.00    +0.000 C 
ATOM      3  C   UNL     1       5.144  -3.940  22.837  0.00  0.00    +0.000 C 
ATOM      4  C   UNL     1       5.488  -5.274  23.161  0.00  0.00    +0.000 C 
ATOM      5  C   UNL     1       6.597  -5.919  22.239  0.00  0.00    +0.000 C 
ATOM      6  O   UNL     1       5.275  -2.713  23.602  0.00  0.00    +0.000 OA
ATOM      7  N   UNL     1       6.441  -2.044  22.995  0.00  0.00    +0.000 NA
ATOM      8  C   UNL     1       6.322  -2.115  21.595  0.00  0.00    +0.000 C 
ENDROOT
BRANCH   7   9
ATOM      9  C   UNL     1       6.757  -0.801  23.510  0.00  0.00    +0.000 C 
ATOM     10  N   UNL     1       7.902  -1.019  24.541  0.00  0.00    +0.000 NA
ATOM     11  C   UNL     1       9.104  -1.145  23.796  0.00  0.00    +0.000 A 
ATOM     12  C   UNL     1       9.973  -0.327  24.763  0.00  0.00    +0.000 A 
ATOM     13  C   UNL     1      10.683   0.944  24.504  0.00  0.00    +0.000 A 
ATOM     14  C   UNL     1      10.454   1.237  23.056  0.00  0.00    +0.000 A 
ATOM     15  C   UNL     1       9.774   0.707  21.936  0.00  0.00    +0.000 A 
ATOM     16  C   UNL     1       8.877  -0.396  22.508  0.00  0.00    +0.000 A 
ATOM     17  N   UNL     1       7.513  -0.034  22.419  0.00  0.00    +0.000 N 
ATOM     18  H   UNL     1       7.480   0.916  22.573  0.00  0.00    +0.000 HD
ENDBRANCH   7   9
BRANCH   4  19
ATOM     19  C   UNL     1       4.432  -6.230  23.545  0.00  0.00    +0.000 C 
ATOM     20  O   UNL     1       3.362  -6.197  22.961  0.00  0.00    +0.000 OA
ATOM     21  N   UNL     1       4.756  -7.016  24.484  0.00  0.00    +0.000 N 
ATOM     22  H   UNL     1       4.717  -7.950  24.170  0.00  0.00    +0.000 HD
BRANCH  21  23
ATOM     23  C   UNL     1       4.669  -6.815  25.937  0.00  0.00    +0.000 C 
ATOM     24  C   UNL     1       5.521  -5.656  26.309  0.00  0.00    +0.000 C 
ATOM     25  C   UNL     1       4.797  -4.603  27.130  0.00  0.00    +0.000 C 
ATOM     26  N   UNL     1       4.068  -5.371  28.176  0.00  0.00    +0.000 N 
ATOM     27  C   UNL     1       4.874  -6.080  29.030  0.00  0.00    +0.000 C 
ATOM     28  O   UNL     1       5.125  -7.239  28.776  0.00  0.00    +0.000 OA
ATOM     29  C   UNL     1       2.909  -6.099  27.654  0.00  0.00    +0.000 C 
ATOM     30  C   UNL     1       3.258  -6.847  26.394  0.00  0.00    +0.000 C 
BRANCH  27  31
ATOM     31  C   UNL     1       5.072  -5.493  30.393  0.00  0.00    +0.000 C 
ATOM     32 CL   UNL     1       4.099  -4.018  30.580  0.00  0.00    +0.000 Cl
ENDBRANCH  27  31
ENDBRANCH  21  23
ENDBRANCH   4  19
TORSDOF 4
ENDMDL
MODEL 8
REMARK VINA RESULT:      -7.0      3.755      7.813
REMARK  Name = 
REMARK  4 active torsions:
REMARK  status: ('A' for Active; 'I' for Inactive)
REMARK    1  A    between atoms: C_5  and  C_6
REMARK    2  A    between atoms: N_8  and  C_10
REMARK    3  A    between atoms: C_19  and  C_21
REMARK    4  A    between atoms: N_35  and  C_36
REMARK                            x       y       z     vdW  Elec       q    Type
REMARK                         _______ _______ _______ _____ _____    ______ ____
ROOT
ATOM      1  C   UNL     1       9.720  -1.266  21.671  0.00  0.00    +0.000 C 
ATOM      2  C   UNL     1      10.393  -1.506  22.906  0.00  0.00    +0.000 C 
ATOM      3  C   UNL     1       9.991  -0.265  23.844  0.00  0.00    +0.000 C 
ATOM      4  C   UNL     1       9.413   0.706  22.992  0.00  0.00    +0.000 C 
ATOM      5  C   UNL     1       9.087   0.202  21.531  0.00  0.00    +0.000 C 
ATOM      6  O   UNL     1       9.508  -0.853  25.080  0.00  0.00    +0.000 OA
ATOM      7  N   UNL     1       9.046  -2.194  24.673  0.00  0.00    +0.000 NA
ATOM      8  C   UNL     1      10.015  -2.766  23.830  0.00  0.00    +0.000 C 
ENDROOT
BRANCH   7   9
ATOM      9  C   UNL     1       8.578  -3.003  25.690  0.00  0.00    +0.000 C 
ATOM     10  N   UNL     1       7.235  -2.385  26.176  0.00  0.00    +0.000 NA
ATOM     11  C   UNL     1       6.241  -2.785  25.243  0.00  0.00    +0.000 A 
ATOM     12  C   UNL     1       5.146  -3.050  26.288  0.00  0.00    +0.000 A 
ATOM     13  C   UNL     1       4.471  -4.328  26.602  0.00  0.00    +0.000 A 
ATOM     14  C   UNL     1       5.017  -5.315  25.621  0.00  0.00    +0.000 A 
ATOM     15  C   UNL     1       5.954  -5.391  24.565  0.00  0.00    +0.000 A 
ATOM     16  C   UNL     1       6.732  -4.073  24.636  0.00  0.00    +0.000 A 
ATOM     17  N   UNL     1       8.067  -4.298  25.045  0.00  0.00    +0.000 N 
ATOM     18  H   UNL     1       8.031  -5.016  25.685  0.00  0.00    +0.000 HD
ENDBRANCH   7   9
BRANCH   4  19
ATOM     19  C   UNL     1       9.908   2.096  23.024  0.00  0.00    +0.000 C 
ATOM     20  O   UNL     1      10.892   2.360  23.694  0.00  0.00    +0.000 OA
ATOM     21  N   UNL     1       9.228   2.907  22.329  0.00  0.00    +0.000 N 
ATOM     22  H   UNL     1       9.795   3.308  21.627  0.00  0.00    +0.000 HD
BRANCH  21  23
ATOM     23  C   UNL     1       8.018   3.659  22.692  0.00  0.00    +0.000 C 
ATOM     24  C   UNL     1       6.863   3.085  21.954  0.00  0.00    +0.000 C 
ATOM     25  C   UNL     1       5.690   2.717  22.845  0.00  0.00    +0.000 C 
ATOM     26  N   UNL     1       5.507   3.893  23.739  0.00  0.00    +0.000 N 
ATOM     27  C   UNL     1       5.184   5.058  23.090  0.00  0.00    +0.000 C 
ATOM     28  O   UNL     1       6.074   5.817  22.767  0.00  0.00    +0.000 OA
ATOM     29  C   UNL     1       6.550   4.009  24.760  0.00  0.00    +0.000 C 
ATOM     30  C   UNL     1       7.920   3.828  24.162  0.00  0.00    +0.000 C 
BRANCH  27  31
ATOM     31  C   UNL     1       3.751   5.483  23.167  0.00  0.00    +0.000 C 
ATOM     32 CL   UNL     1       2.799   4.685  21.897  0.00  0.00    +0.000 Cl
ENDBRANCH  27  31
ENDBRANCH  21  23
ENDBRANCH   4  19
TORSDOF 4
ENDMDL
MODEL 9
REMARK VINA RESULT:      -6.9      2.009      3.674
REMARK  Name = 
REMARK  4 active torsions:
REMARK  status: ('A' for Active; 'I' for Inactive)
REMARK    1  A    between atoms: C_5  and  C_6
REMARK    2  A    between atoms: N_8  and  C_10
REMARK    3  A    between atoms: C_19  and  C_21
REMARK    4  A    between atoms: N_35  and  C_36
REMARK                            x       y       z     vdW  Elec       q    Type
REMARK                         _______ _______ _______ _____ _____    ______ ____
ROOT
ATOM      1  C   UNL     1       6.068  -3.525  21.366  0.00  0.00    +0.000 C 
ATOM      2  C   UNL     1       6.310  -2.381  22.182  0.00  0.00    +0.000 C 
ATOM      3  C   UNL     1       7.590  -2.771  23.071  0.00  0.00    +0.000 C 
ATOM      4  C   UNL     1       7.762  -4.168  22.929  0.00  0.00    +0.000 C 
ATOM      5  C   UNL     1       6.893  -4.834  21.790  0.00  0.00    +0.000 C 
ATOM      6  O   UNL     1       8.529  -1.676  22.902  0.00  0.00    +0.000 OA
ATOM      7  N   UNL     1       8.159  -1.096  21.597  0.00  0.00    +0.000 NA
ATOM      8  C   UNL     1       6.759  -0.977  21.538  0.00  0.00    +0.000 C 
ENDROOT
BRANCH   7   9
ATOM      9  C   UNL     1       8.875   0.020  21.210  0.00  0.00    +0.000 C 
ATOM     10  N   UNL     1       8.019   1.260  21.598  0.00  0.00    +0.000 NA
ATOM     11  C   UNL     1       8.214   1.473  22.989  0.00  0.00    +0.000 A 
ATOM     12  C   UNL     1       8.276   3.005  22.904  0.00  0.00    +0.000 A 
ATOM     13  C   UNL     1       9.406   3.896  23.248  0.00  0.00    +0.000 A 
ATOM     14  C   UNL     1      10.469   2.994  23.788  0.00  0.00    +0.000 A 
ATOM     15  C   UNL     1      10.712   1.622  24.024  0.00  0.00    +0.000 A 
ATOM     16  C   UNL     1       9.566   0.894  23.314  0.00  0.00    +0.000 A 
ATOM     17  N   UNL     1      10.043   0.176  22.192  0.00  0.00    +0.000 N 
ATOM     18  H   UNL     1      10.748   0.712  21.815  0.00  0.00    +0.000 HD
ENDBRANCH   7   9
BRANCH   4  19
ATOM     19  C   UNL     1       7.885  -5.018  24.130  0.00  0.00    +0.000 C 
ATOM     20  O   UNL     1       8.856  -5.748  24.241  0.00  0.00    +0.000 OA
ATOM     21  N   UNL     1       6.930  -4.901  24.952  0.00  0.00    +0.000 N 
ATOM     22  H   UNL     1       7.270  -4.582  25.821  0.00  0.00    +0.000 HD
BRANCH  21  23
ATOM     23  C   UNL     1       5.633  -5.593  24.977  0.00  0.00    +0.000 C 
ATOM     24  C   UNL     1       5.490  -6.288  26.282  0.00  0.00    +0.000 C 
ATOM     25  C   UNL     1       4.199  -5.960  27.011  0.00  0.00    +0.000 C 
ATOM     26  N   UNL     1       3.137  -6.075  25.974  0.00  0.00    +0.000 N 
ATOM     27  C   UNL     1       3.001  -7.328  25.433  0.00  0.00    +0.000 C 
ATOM     28  O   UNL     1       3.607  -7.599  24.417  0.00  0.00    +0.000 OA
ATOM     29  C   UNL     1       3.150  -4.971  25.012  0.00  0.00    +0.000 C 
ATOM     30  C   UNL     1       4.545  -4.697  24.515  0.00  0.00    +0.000 C 
BRANCH  27  31
ATOM     31  C   UNL     1       1.835  -8.133  25.914  0.00  0.00    +0.000 C 
ATOM     32 CL   UNL     1       1.459  -9.431  24.759  0.00  0.00    +0.000 Cl
ENDBRANCH  27  31
ENDBRANCH  21  23
ENDBRANCH   4  19
TORSDOF 4
ENDMDL
