MODEL 1
REMARK VINA RESULT:      -9.0      0.000      0.000
REMARK  Name = 
REMARK  5 active torsions:
REMARK  status: ('A' for Active; 'I' for Inactive)
REMARK    1  A    between atoms: C_5  and  C_6
REMARK    2  A    between atoms: C_10  and  S_11
REMARK    3  A    between atoms: S_11  and  N_14
REMARK    4  A    between atoms: C_34  and  C_36
REMARK    5  A    between atoms: C_60  and  C_61
REMARK                            x       y       z     vdW  Elec       q    Type
REMARK                         _______ _______ _______ _____ _____    ______ ____
ROOT
ATOM      1  N   UNL     1       7.405  -5.573  26.179  0.00  0.00    +0.000 NA
ATOM      2  C   UNL     1       7.003  -5.395  24.858  0.00  0.00    +0.000 C 
ATOM      3  C   UNL     1       7.906  -4.564  23.986  0.00  0.00    +0.000 C 
ATOM      4  N   UNL     1       8.314  -3.347  24.684  0.00  0.00    +0.000 N 
ATOM      5  C   UNL     1       9.095  -2.486  23.949  0.00  0.00    +0.000 C 
ATOM      6  O   UNL     1      10.191  -2.865  23.602  0.00  0.00    +0.000 OA
ATOM      7  N   UNL     1       8.284  -1.781  23.145  0.00  0.00    +0.000 N 
ATOM      8  C   UNL     1       8.336  -1.976  21.699  0.00  0.00    +0.000 C 
ATOM      9  C   UNL     1       8.994  -0.762  21.062  0.00  0.00    +0.000 C 
ATOM     10  C   UNL     1       9.746   0.040  22.127  0.00  0.00    +0.000 C 
ATOM     11  C   UNL     1       8.770   0.587  23.133  0.00  0.00    +0.000 C 
ATOM     12  C   UNL     1       7.807  -0.473  23.612  0.00  0.00    +0.000 C 
ATOM     13  C   UNL     1       8.549  -3.412  26.114  0.00  0.00    +0.000 C 
ATOM     14  C   UNL     1       8.552  -4.869  26.561  0.00  0.00    +0.000 C 
ENDROOT
BRANCH  11  15
ATOM     15  C   UNL     1       9.395   1.341  24.270  0.00  0.00    +0.000 C 
ATOM     16  N   UNL     1      10.674   2.040  23.836  0.00  0.00    +0.000 NA
ATOM     17  C   UNL     1      10.424   3.156  23.206  0.00  0.00    +0.000 A 
ATOM     18  C   UNL     1      11.627   4.005  23.572  0.00  0.00    +0.000 A 
ATOM     19  C   UNL     1      11.606   5.432  23.969  0.00  0.00    +0.000 A 
ATOM     20  C   UNL     1      10.185   5.859  24.002  0.00  0.00    +0.000 A 
ATOM     21  C   UNL     1       8.907   5.248  23.889  0.00  0.00    +0.000 A 
ATOM     22  C   UNL     1       9.130   3.815  23.502  0.00  0.00    +0.000 A 
ATOM     23  S   UNL     1       8.264   2.764  24.640  0.00  0.00    +0.000 S 
ENDBRANCH  11  15
BRANCH   1  24
ATOM     24  S   UNL     1       6.202  -5.527  27.228  0.00  0.00    +0.000 S 
ATOM     25  O   UNL     1       5.467  -6.762  27.240  0.00  0.00    +0.000 OA
ATOM     26  O   UNL     1       6.684  -5.103  28.525  0.00  0.00    +0.000 OA
BRANCH  24  31
ATOM     27  C   UNL     1       2.336  -4.880  27.849  0.00  0.00    +0.000 A 
ATOM     28  C   UNL     1       3.417  -4.192  28.643  0.00  0.00    +0.000 A 
ATOM     29  C   UNL     1       4.677  -3.645  28.106  0.00  0.00    +0.000 A 
ATOM     30  C   UNL     1       4.614  -2.127  28.104  0.00  0.00    +0.000 C 
ATOM     31  C   UNL     1       4.969  -4.246  26.715  0.00  0.00    +0.000 A 
ATOM     32  C   UNL     1       3.936  -4.731  25.783  0.00  0.00    +0.000 A 
ATOM     33  C   UNL     1       2.505  -4.847  26.387  0.00  0.00    +0.000 A 
ATOM     34  C   UNL     1       1.462  -3.945  25.647  0.00  0.00    +0.000 C 
ENDBRANCH  24  31
ENDBRANCH   1  24
TORSDOF 3
ENDMDL
MODEL 2
REMARK VINA RESULT:      -8.6      1.235      1.923
REMARK  Name = 
REMARK  5 active torsions:
REMARK  status: ('A' for Active; 'I' for Inactive)
REMARK    1  A    between atoms: C_5  and  C_6
REMARK    2  A    between atoms: C_10  and  S_11
REMARK    3  A    between atoms: S_11  and  N_14
REMARK    4  A    between atoms: C_34  and  C_36
REMARK    5  A    between atoms: C_60  and  C_61
REMARK                            x       y       z     vdW  Elec       q    Type
REMARK                         _______ _______ _______ _____ _____    ______ ____
ROOT
ATOM      1  N   UNL     1       7.031  -5.284  26.482  0.00  0.00    +0.000 NA
ATOM      2  C   UNL     1       6.634  -5.126  25.158  0.00  0.00    +0.000 C 
ATOM      3  C   UNL     1       7.609  -4.436  24.241  0.00  0.00    +0.000 C 
ATOM      4  N   UNL     1       8.151  -3.237  24.878  0.00  0.00    +0.000 N 
ATOM      5  C   UNL     1       9.009  -2.498  24.098  0.00  0.00    +0.000 C 
ATOM      6  O   UNL     1      10.055  -3.007  23.761  0.00  0.00    +0.000 OA
ATOM      7  N   UNL     1       8.267  -1.749  23.269  0.00  0.00    +0.000 N 
ATOM      8  C   UNL     1       8.280  -2.014  21.832  0.00  0.00    +0.000 C 
ATOM      9  C   UNL     1       9.054  -0.907  21.135  0.00  0.00    +0.000 C 
ATOM     10  C   UNL     1       9.900  -0.141  22.155  0.00  0.00    +0.000 C 
ATOM     11  C   UNL     1       8.999   0.552  23.142  0.00  0.00    +0.000 C 
ATOM     12  C   UNL     1       7.936  -0.379  23.677  0.00  0.00    +0.000 C 
ATOM     13  C   UNL     1       8.395  -3.262  26.308  0.00  0.00    +0.000 C 
ATOM     14  C   UNL     1       8.250  -4.689  26.823  0.00  0.00    +0.000 C 
ENDROOT
BRANCH  11  15
ATOM     15  C   UNL     1       9.714   1.286  24.237  0.00  0.00    +0.000 C 
ATOM     16  N   UNL     1      10.902   2.067  23.699  0.00  0.00    +0.000 NA
ATOM     17  C   UNL     1      10.533   3.195  23.155  0.00  0.00    +0.000 A 
ATOM     18  C   UNL     1      11.729   4.087  23.427  0.00  0.00    +0.000 A 
ATOM     19  C   UNL     1      11.689   5.492  23.892  0.00  0.00    +0.000 A 
ATOM     20  C   UNL     1      10.262   5.845  24.103  0.00  0.00    +0.000 A 
ATOM     21  C   UNL     1       9.009   5.176  24.104  0.00  0.00    +0.000 A 
ATOM     22  C   UNL     1       9.252   3.774  23.625  0.00  0.00    +0.000 A 
ATOM     23  S   UNL     1       8.568   2.632  24.799  0.00  0.00    +0.000 S 
ENDBRANCH  11  15
BRANCH   1  24
ATOM     24  S   UNL     1       5.853  -5.064  27.537  0.00  0.00    +0.000 S 
ATOM     25  O   UNL     1       6.351  -5.035  28.885  0.00  0.00    +0.000 OA
ATOM     26  O   UNL     1       5.058  -3.913  27.167  0.00  0.00    +0.000 OA
BRANCH  24  31
ATOM     27  C   UNL     1       2.030  -5.673  28.410  0.00  0.00    +0.000 A 
ATOM     28  C   UNL     1       2.516  -5.424  27.006  0.00  0.00    +0.000 A 
ATOM     29  C   UNL     1       3.736  -5.987  26.395  0.00  0.00    +0.000 A 
ATOM     30  C   UNL     1       3.353  -7.051  25.380  0.00  0.00    +0.000 C 
ATOM     31  C   UNL     1       4.691  -6.504  27.491  0.00  0.00    +0.000 A 
ATOM     32  C   UNL     1       4.259  -6.983  28.815  0.00  0.00    +0.000 A 
ATOM     33  C   UNL     1       2.768  -6.699  29.166  0.00  0.00    +0.000 A 
ATOM     34  C   UNL     1       1.950  -8.006  29.430  0.00  0.00    +0.000 C 
ENDBRANCH  24  31
ENDBRANCH   1  24
TORSDOF 3
ENDMDL
MODEL 3
REMARK VINA RESULT:      -8.2      1.587      2.082
REMARK  Name = 
REMARK  5 active torsions:
REMARK  status: ('A' for Active; 'I' for Inactive)
REMARK    1  A    between atoms: C_5  and  C_6
REMARK    2  A    between atoms: C_10  and  S_11
REMARK    3  A    between atoms: S_11  and  N_14
REMARK    4  A    between atoms: C_34  and  C_36
REMARK    5  A    between atoms: C_60  and  C_61
REMARK                            x       y       z     vdW  Elec       q    Type
REMARK                         _______ _______ _______ _____ _____    ______ ____
ROOT
ATOM      1  N   UNL     1       7.146  -5.575  25.669  0.00  0.00    +0.000 NA
ATOM      2  C   UNL     1       6.945  -5.298  24.320  0.00  0.00    +0.000 C 
ATOM      3  C   UNL     1       7.952  -4.392  23.661  0.00  0.00    +0.000 C 
ATOM      4  N   UNL     1       8.224  -3.230  24.504  0.00  0.00    +0.000 N 
ATOM      5  C   UNL     1       9.088  -2.306  23.965  0.00  0.00    +0.000 C 
ATOM      6  O   UNL     1      10.232  -2.647  23.762  0.00  0.00    +0.000 OA
ATOM      7  N   UNL     1       8.394  -1.549  23.103  0.00  0.00    +0.000 N 
ATOM      8  C   UNL     1       8.668  -1.628  21.671  0.00  0.00    +0.000 C 
ATOM      9  C   UNL     1       9.390  -0.362  21.237  0.00  0.00    +0.000 C 
ATOM     10  C   UNL     1       9.955   0.361  22.462  0.00  0.00    +0.000 C 
ATOM     11  C   UNL     1       8.827   0.818  23.346  0.00  0.00    +0.000 C 
ATOM     12  C   UNL     1       7.825  -0.286  23.590  0.00  0.00    +0.000 C 
ATOM     13  C   UNL     1       8.241  -3.405  25.944  0.00  0.00    +0.000 C 
ATOM     14  C   UNL     1       8.207  -4.893  26.275  0.00  0.00    +0.000 C 
ENDROOT
BRANCH  11  15
ATOM     15  C   UNL     1       9.257   1.486  24.619  0.00  0.00    +0.000 C 
ATOM     16  N   UNL     1       9.558   2.959  24.399  0.00  0.00    +0.000 NA
ATOM     17  C   UNL     1       8.468   3.676  24.366  0.00  0.00    +0.000 A 
ATOM     18  C   UNL     1       8.941   5.002  24.932  0.00  0.00    +0.000 A 
ATOM     19  C   UNL     1       8.226   5.839  25.923  0.00  0.00    +0.000 A 
ATOM     20  C   UNL     1       6.992   5.109  26.307  0.00  0.00    +0.000 A 
ATOM     21  C   UNL     1       6.423   3.826  26.081  0.00  0.00    +0.000 A 
ATOM     22  C   UNL     1       7.286   3.127  25.073  0.00  0.00    +0.000 A 
ATOM     23  S   UNL     1       7.759   1.540  25.713  0.00  0.00    +0.000 S 
ENDBRANCH  11  15
BRANCH   1  24
ATOM     24  S   UNL     1       5.798  -5.623  26.523  0.00  0.00    +0.000 S 
ATOM     25  O   UNL     1       5.725  -6.813  27.324  0.00  0.00    +0.000 OA
ATOM     26  O   UNL     1       5.628  -4.390  27.262  0.00  0.00    +0.000 OA
BRANCH  24  31
ATOM     27  C   UNL     1       2.069  -6.958  26.784  0.00  0.00    +0.000 A 
ATOM     28  C   UNL     1       2.429  -5.503  26.948  0.00  0.00    +0.000 A 
ATOM     29  C   UNL     1       3.405  -4.751  26.136  0.00  0.00    +0.000 A 
ATOM     30  C   UNL     1       2.669  -3.794  25.212  0.00  0.00    +0.000 C 
ATOM     31  C   UNL     1       4.339  -5.724  25.388  0.00  0.00    +0.000 A 
ATOM     32  C   UNL     1       3.969  -7.093  24.989  0.00  0.00    +0.000 A 
ATOM     33  C   UNL     1       2.637  -7.621  25.597  0.00  0.00    +0.000 A 
ATOM     34  C   UNL     1       1.577  -7.989  24.506  0.00  0.00    +0.000 C 
ENDBRANCH  24  31
ENDBRANCH   1  24
TORSDOF 3
ENDMDL
MODEL 4
REMARK VINA RESULT:      -8.2      2.352      9.205
REMARK  Name = 
REMARK  5 active torsions:
REMARK  status: ('A' for Active; 'I' for Inactive)
REMARK    1  A    between atoms: C_5  and  C_6
REMARK    2  A    between atoms: C_10  and  S_11
REMARK    3  A    between atoms: S_11  and  N_14
REMARK    4  A    between atoms: C_34  and  C_36
REMARK    5  A    between atoms: C_60  and  C_61
REMARK                            x       y       z     vdW  Elec       q    Type
REMARK                         _______ _______ _______ _____ _____    ______ ____
ROOT
ATOM      1  N   UNL     1       9.829  -0.308  21.985  0.00  0.00    +0.000 NA
ATOM      2  C   UNL     1      10.337  -0.665  23.231  0.00  0.00    +0.000 C 
ATOM      3  C   UNL     1       9.986  -2.041  23.731  0.00  0.00    +0.000 C 
ATOM      4  N   UNL     1       8.563  -2.310  23.536  0.00  0.00    +0.000 N 
ATOM      5  C   UNL     1       8.126  -3.522  24.017  0.00  0.00    +0.000 C 
ATOM      6  O   UNL     1       8.567  -4.529  23.509  0.00  0.00    +0.000 OA
ATOM      7  N   UNL     1       7.945  -3.397  25.340  0.00  0.00    +0.000 N 
ATOM      8  C   UNL     1       8.813  -4.114  26.270  0.00  0.00    +0.000 C 
ATOM      9  C   UNL     1       8.027  -5.253  26.899  0.00  0.00    +0.000 C 
ATOM     10  C   UNL     1       6.771  -5.536  26.073  0.00  0.00    +0.000 C 
ATOM     11  C   UNL     1       5.857  -4.341  26.114  0.00  0.00    +0.000 C 
ATOM     12  C   UNL     1       6.603  -3.058  25.829  0.00  0.00    +0.000 C 
ATOM     13  C   UNL     1       7.913  -1.784  22.350  0.00  0.00    +0.000 C 
ATOM     14  C   UNL     1       8.968  -1.239  21.394  0.00  0.00    +0.000 C 
ENDROOT
BRANCH  11  15
ATOM     15  C   UNL     1       4.615  -4.471  25.283  0.00  0.00    +0.000 C 
ATOM     16  N   UNL     1       4.495  -5.860  24.675  0.00  0.00    +0.000 NA
ATOM     17  C   UNL     1       4.036  -6.727  25.537  0.00  0.00    +0.000 A 
ATOM     18  C   UNL     1       3.278  -7.691  24.645  0.00  0.00    +0.000 A 
ATOM     19  C   UNL     1       1.942  -8.270  24.913  0.00  0.00    +0.000 A 
ATOM     20  C   UNL     1       1.455  -7.682  26.187  0.00  0.00    +0.000 A 
ATOM     21  C   UNL     1       1.861  -6.663  27.090  0.00  0.00    +0.000 A 
ATOM     22  C   UNL     1       3.216  -6.191  26.650  0.00  0.00    +0.000 A 
ATOM     23  S   UNL     1       3.187  -4.426  26.467  0.00  0.00    +0.000 S 
ENDBRANCH  11  15
BRANCH   1  24
ATOM     24  S   UNL     1       9.345   1.211  21.900  0.00  0.00    +0.000 S 
ATOM     25  O   UNL     1      10.455   2.108  21.724  0.00  0.00    +0.000 OA
ATOM     26  O   UNL     1       8.300   1.349  20.908  0.00  0.00    +0.000 OA
BRANCH  24  31
ATOM     27  C   UNL     1       7.439   4.413  23.264  0.00  0.00    +0.000 A 
ATOM     28  C   UNL     1       6.720   3.184  22.772  0.00  0.00    +0.000 A 
ATOM     29  C   UNL     1       7.107   1.784  23.038  0.00  0.00    +0.000 A 
ATOM     30  C   UNL     1       6.132   1.166  24.026  0.00  0.00    +0.000 C 
ATOM     31  C   UNL     1       8.575   1.716  23.505  0.00  0.00    +0.000 A 
ATOM     32  C   UNL     1       9.279   2.806  24.203  0.00  0.00    +0.000 A 
ATOM     33  C   UNL     1       8.527   4.169  24.228  0.00  0.00    +0.000 A 
ATOM     34  C   UNL     1       8.213   4.661  25.679  0.00  0.00    +0.000 C 
ENDBRANCH  24  31
ENDBRANCH   1  24
TORSDOF 3
ENDMDL
MODEL 5
REMARK VINA RESULT:      -7.6      1.669      2.341
REMARK  Name = 
REMARK  5 active torsions:
REMARK  status: ('A' for Active; 'I' for Inactive)
REMARK    1  A    between atoms: C_5  and  C_6
REMARK    2  A    between atoms: C_10  and  S_11
REMARK    3  A    between atoms: S_11  and  N_14
REMARK    4  A    between atoms: C_34  and  C_36
REMARK    5  A    between atoms: C_60  and  C_61
REMARK                            x       y       z     vdW  Elec       q    Type
REMARK                         _______ _______ _______ _____ _____    ______ ____
ROOT
ATOM      1  N   UNL     1       6.753  -5.551  25.400  0.00  0.00    +0.000 NA
ATOM      2  C   UNL     1       6.670  -5.257  24.042  0.00  0.00    +0.000 C 
ATOM      3  C   UNL     1       7.755  -4.380  23.477  0.00  0.00    +0.000 C 
ATOM      4  N   UNL     1       7.995  -3.233  24.351  0.00  0.00    +0.000 N 
ATOM      5  C   UNL     1       8.929  -2.334  23.892  0.00  0.00    +0.000 C 
ATOM      6  O   UNL     1      10.074  -2.710  23.778  0.00  0.00    +0.000 OA
ATOM      7  N   UNL     1       8.331  -1.547  22.986  0.00  0.00    +0.000 N 
ATOM      8  C   UNL     1       8.717  -1.625  21.579  0.00  0.00    +0.000 C 
ATOM      9  C   UNL     1       9.510  -0.379  21.218  0.00  0.00    +0.000 C 
ATOM     10  C   UNL     1       9.998   0.315  22.491  0.00  0.00    +0.000 C 
ATOM     11  C   UNL     1       8.817   0.802  23.287  0.00  0.00    +0.000 C 
ATOM     12  C   UNL     1       7.764  -0.271  23.438  0.00  0.00    +0.000 C 
ATOM     13  C   UNL     1       7.890  -3.420  25.786  0.00  0.00    +0.000 C 
ATOM     14  C   UNL     1       7.782  -4.909  26.096  0.00  0.00    +0.000 C 
ENDROOT
BRANCH  11  15
ATOM     15  C   UNL     1       9.164   1.445  24.597  0.00  0.00    +0.000 C 
ATOM     16  N   UNL     1       9.538   2.908  24.417  0.00  0.00    +0.000 NA
ATOM     17  C   UNL     1       8.481   3.666  24.300  0.00  0.00    +0.000 A 
ATOM     18  C   UNL     1       8.954   4.969  24.914  0.00  0.00    +0.000 A 
ATOM     19  C   UNL     1       8.192   5.827  25.851  0.00  0.00    +0.000 A 
ATOM     20  C   UNL     1       6.903   5.142  26.124  0.00  0.00    +0.000 A 
ATOM     21  C   UNL     1       6.308   3.883  25.840  0.00  0.00    +0.000 A 
ATOM     22  C   UNL     1       7.225   3.157  24.900  0.00  0.00    +0.000 A 
ATOM     23  S   UNL     1       7.583   1.550  25.563  0.00  0.00    +0.000 S 
ENDBRANCH  11  15
BRANCH   1  24
ATOM     24  S   UNL     1       5.339  -5.562  26.143  0.00  0.00    +0.000 S 
ATOM     25  O   UNL     1       4.417  -4.645  25.532  0.00  0.00    +0.000 OA
ATOM     26  O   UNL     1       4.847  -6.918  26.261  0.00  0.00    +0.000 OA
BRANCH  24  31
ATOM     27  C   UNL     1       3.003  -5.247  29.336  0.00  0.00    +0.000 A 
ATOM     28  C   UNL     1       3.961  -6.393  29.135  0.00  0.00    +0.000 A 
ATOM     29  C   UNL     1       5.338  -6.296  28.612  0.00  0.00    +0.000 A 
ATOM     30  C   UNL     1       6.329  -6.516  29.743  0.00  0.00    +0.000 C 
ATOM     31  C   UNL     1       5.536  -4.953  27.879  0.00  0.00    +0.000 A 
ATOM     32  C   UNL     1       4.788  -3.720  28.182  0.00  0.00    +0.000 A 
ATOM     33  C   UNL     1       3.572  -3.903  29.137  0.00  0.00    +0.000 A 
ATOM     34  C   UNL     1       3.705  -3.068  30.453  0.00  0.00    +0.000 C 
ENDBRANCH  24  31
ENDBRANCH   1  24
TORSDOF 3
ENDMDL
MODEL 6
REMARK VINA RESULT:      -7.6      2.757      8.766
REMARK  Name = 
REMARK  5 active torsions:
REMARK  status: ('A' for Active; 'I' for Inactive)
REMARK    1  A    between atoms: C_5  and  C_6
REMARK    2  A    between atoms: C_10  and  S_11
REMARK    3  A    between atoms: S_11  and  N_14
REMARK    4  A    between atoms: C_34  and  C_36
REMARK    5  A    between atoms: C_60  and  C_61
REMARK                            x       y       z     vdW  Elec       q    Type
REMARK                         _______ _______ _______ _____ _____    ______ ____
ROOT
ATOM      1  N   UNL     1       8.125   0.711  23.090  0.00  0.00    +0.000 NA
ATOM      2  C   UNL     1       8.849  -0.362  22.579  0.00  0.00    +0.000 C 
ATOM      3  C   UNL     1       8.049  -1.531  22.069  0.00  0.00    +0.000 C 
ATOM      4  N   UNL     1       6.995  -1.883  23.018  0.00  0.00    +0.000 N 
ATOM      5  C   UNL     1       6.241  -2.981  22.674  0.00  0.00    +0.000 C 
ATOM      6  O   UNL     1       5.562  -2.915  21.674  0.00  0.00    +0.000 OA
ATOM      7  N   UNL     1       6.939  -4.077  23.006  0.00  0.00    +0.000 N 
ATOM      8  C   UNL     1       7.457  -4.959  21.964  0.00  0.00    +0.000 C 
ATOM      9  C   UNL     1       6.641  -6.242  21.953  0.00  0.00    +0.000 C 
ATOM     10  C   UNL     1       5.327  -6.028  22.708  0.00  0.00    +0.000 C 
ATOM     11  C   UNL     1       5.615  -5.742  24.156  0.00  0.00    +0.000 C 
ATOM     12  C   UNL     1       6.688  -4.691  24.316  0.00  0.00    +0.000 C 
ATOM     13  C   UNL     1       6.334  -0.818  23.749  0.00  0.00    +0.000 C 
ATOM     14  C   UNL     1       6.741   0.528  23.161  0.00  0.00    +0.000 C 
ENDROOT
BRANCH  11  15
ATOM     15  C   UNL     1       4.404  -5.448  24.992  0.00  0.00    +0.000 C 
ATOM     16  N   UNL     1       4.114  -6.578  25.967  0.00  0.00    +0.000 NA
ATOM     17  C   UNL     1       4.882  -6.517  27.020  0.00  0.00    +0.000 A 
ATOM     18  C   UNL     1       3.992  -7.103  28.099  0.00  0.00    +0.000 A 
ATOM     19  C   UNL     1       3.817  -6.581  29.474  0.00  0.00    +0.000 A 
ATOM     20  C   UNL     1       4.629  -5.342  29.580  0.00  0.00    +0.000 A 
ATOM     21  C   UNL     1       5.377  -4.505  28.709  0.00  0.00    +0.000 A 
ATOM     22  C   UNL     1       5.429  -5.185  27.372  0.00  0.00    +0.000 A 
ATOM     23  S   UNL     1       4.875  -4.053  26.122  0.00  0.00    +0.000 S 
ENDBRANCH  11  15
BRANCH   1  24
ATOM     24  S   UNL     1       8.787   1.374  24.384  0.00  0.00    +0.000 S 
ATOM     25  O   UNL     1       8.057   1.044  25.576  0.00  0.00    +0.000 OA
ATOM     26  O   UNL     1      10.199   1.062  24.439  0.00  0.00    +0.000 OA
BRANCH  24  31
ATOM     27  C   UNL     1       6.100   4.015  23.137  0.00  0.00    +0.000 A 
ATOM     28  C   UNL     1       6.276   3.654  24.590  0.00  0.00    +0.000 A 
ATOM     29  C   UNL     1       7.562   3.452  25.287  0.00  0.00    +0.000 A 
ATOM     30  C   UNL     1       7.825   4.624  26.217  0.00  0.00    +0.000 C 
ATOM     31  C   UNL     1       8.692   3.219  24.263  0.00  0.00    +0.000 A 
ATOM     32  C   UNL     1       8.690   3.741  22.886  0.00  0.00    +0.000 A 
ATOM     33  C   UNL     1       7.337   4.349  22.412  0.00  0.00    +0.000 A 
ATOM     34  C   UNL     1       7.456   5.858  22.019  0.00  0.00    +0.000 C 
ENDBRANCH  24  31
ENDBRANCH   1  24
TORSDOF 3
ENDMDL
MODEL 7
REMARK VINA RESULT:      -7.5      2.855      8.604
REMARK  Name = 
REMARK  5 active torsions:
REMARK  status: ('A' for Active; 'I' for Inactive)
REMARK    1  A    between atoms: C_5  and  C_6
REMARK    2  A    between atoms: C_10  and  S_11
REMARK    3  A    between atoms: S_11  and  N_14
REMARK    4  A    between atoms: C_34  and  C_36
REMARK    5  A    between atoms: C_60  and  C_61
REMARK                            x       y       z     vdW  Elec       q    Type
REMARK                         _______ _______ _______ _____ _____    ______ ____
ROOT
ATOM      1  N   UNL     1       7.783  -2.929  22.057  0.00  0.00    +0.000 NA
ATOM      2  C   UNL     1       7.872  -4.251  22.483  0.00  0.00    +0.000 C 
ATOM      3  C   UNL     1       6.571  -4.984  22.678  0.00  0.00    +0.000 C 
ATOM      4  N   UNL     1       5.620  -4.153  23.412  0.00  0.00    +0.000 N 
ATOM      5  C   UNL     1       4.416  -4.754  23.697  0.00  0.00    +0.000 C 
ATOM      6  O   UNL     1       3.701  -5.064  22.770  0.00  0.00    +0.000 OA
ATOM      7  N   UNL     1       4.593  -5.540  24.769  0.00  0.00    +0.000 N 
ATOM      8  C   UNL     1       4.510  -6.992  24.636  0.00  0.00    +0.000 C 
ATOM      9  C   UNL     1       3.216  -7.471  25.276  0.00  0.00    +0.000 C 
ATOM     10  C   UNL     1       2.258  -6.292  25.458  0.00  0.00    +0.000 C 
ATOM     11  C   UNL     1       2.849  -5.304  26.427  0.00  0.00    +0.000 C 
ATOM     12  C   UNL     1       4.288  -4.987  26.095  0.00  0.00    +0.000 C 
ATOM     13  C   UNL     1       5.615  -2.722  23.169  0.00  0.00    +0.000 C 
ATOM     14  C   UNL     1       6.488  -2.411  21.959  0.00  0.00    +0.000 C 
ENDROOT
BRANCH  11  15
ATOM     15  C   UNL     1       2.030  -4.065  26.641  0.00  0.00    +0.000 C 
ATOM     16  N   UNL     1       1.455  -4.015  28.047  0.00  0.00    +0.000 NA
ATOM     17  C   UNL     1       2.339  -3.606  28.916  0.00  0.00    +0.000 A 
ATOM     18  C   UNL     1       1.475  -2.894  29.939  0.00  0.00    +0.000 A 
ATOM     19  C   UNL     1       1.765  -1.591  30.580  0.00  0.00    +0.000 A 
ATOM     20  C   UNL     1       3.028  -1.081  29.988  0.00  0.00    +0.000 A 
ATOM     21  C   UNL     1       3.904  -1.439  28.929  0.00  0.00    +0.000 A 
ATOM     22  C   UNL     1       3.445  -2.766  28.398  0.00  0.00    +0.000 A 
ATOM     23  S   UNL     1       3.222  -2.644  26.642  0.00  0.00    +0.000 S 
ENDBRANCH  11  15
BRANCH   1  24
ATOM     24  S   UNL     1       8.849  -1.959  22.744  0.00  0.00    +0.000 S 
ATOM     25  O   UNL     1       9.128  -2.358  24.096  0.00  0.00    +0.000 OA
ATOM     26  O   UNL     1      10.021  -1.827  21.904  0.00  0.00    +0.000 OA
BRANCH  24  31
ATOM     27  C   UNL     1      10.271   1.648  23.590  0.00  0.00    +0.000 A 
ATOM     28  C   UNL     1      10.045   1.170  22.179  0.00  0.00    +0.000 A 
ATOM     29  C   UNL     1       8.886   0.394  21.697  0.00  0.00    +0.000 A 
ATOM     30  C   UNL     1       7.994   1.285  20.848  0.00  0.00    +0.000 C 
ATOM     31  C   UNL     1       8.146  -0.253  22.887  0.00  0.00    +0.000 A 
ATOM     32  C   UNL     1       8.135   0.290  24.256  0.00  0.00    +0.000 A 
ATOM     33  C   UNL     1       9.142   1.449  24.515  0.00  0.00    +0.000 A 
ATOM     34  C   UNL     1       8.438   2.776  24.954  0.00  0.00    +0.000 C 
ENDBRANCH  24  31
ENDBRANCH   1  24
TORSDOF 3
ENDMDL
MODEL 8
REMARK VINA RESULT:      -7.5      3.012      9.340
REMARK  Name = 
REMARK  5 active torsions:
REMARK  status: ('A' for Active; 'I' for Inactive)
REMARK    1  A    between atoms: C_5  and  C_6
REMARK    2  A    between atoms: C_10  and  S_11
REMARK    3  A    between atoms: S_11  and  N_14
REMARK    4  A    between atoms: C_34  and  C_36
REMARK    5  A    between atoms: C_60  and  C_61
REMARK                            x       y       z     vdW  Elec       q    Type
REMARK                         _______ _______ _______ _____ _____    ______ ____
ROOT
ATOM      1  N   UNL     1       9.064   0.319  23.606  0.00  0.00    +0.000 NA
ATOM      2  C   UNL     1       8.105   0.818  24.484  0.00  0.00    +0.000 C 
ATOM      3  C   UNL     1       7.647  -0.110  25.577  0.00  0.00    +0.000 C 
ATOM      4  N   UNL     1       7.369  -1.440  25.037  0.00  0.00    +0.000 N 
ATOM      5  C   UNL     1       6.884  -2.350  25.947  0.00  0.00    +0.000 C 
ATOM      6  O   UNL     1       7.604  -2.679  26.863  0.00  0.00    +0.000 OA
ATOM      7  N   UNL     1       5.574  -2.114  26.104  0.00  0.00    +0.000 N 
ATOM      8  C   UNL     1       5.068  -1.603  27.376  0.00  0.00    +0.000 C 
ATOM      9  C   UNL     1       4.318  -2.716  28.091  0.00  0.00    +0.000 C 
ATOM     10  C   UNL     1       4.688  -4.069  27.479  0.00  0.00    +0.000 C 
ATOM     11  C   UNL     1       4.226  -4.122  26.048  0.00  0.00    +0.000 C 
ATOM     12  C   UNL     1       4.626  -2.880  25.285  0.00  0.00    +0.000 C 
ATOM     13  C   UNL     1       8.207  -1.943  23.965  0.00  0.00    +0.000 C 
ATOM     14  C   UNL     1       9.410  -1.024  23.788  0.00  0.00    +0.000 C 
ENDROOT
BRANCH  11  15
ATOM     15  C   UNL     1       4.591  -5.379  25.315  0.00  0.00    +0.000 C 
ATOM     16  N   UNL     1       3.766  -6.562  25.797  0.00  0.00    +0.000 NA
ATOM     17  C   UNL     1       2.575  -6.571  25.263  0.00  0.00    +0.000 A 
ATOM     18  C   UNL     1       2.270  -8.054  25.190  0.00  0.00    +0.000 A 
ATOM     19  C   UNL     1       1.657  -8.770  24.047  0.00  0.00    +0.000 A 
ATOM     20  C   UNL     1       1.456  -7.776  22.963  0.00  0.00    +0.000 A 
ATOM     21  C   UNL     1       1.806  -6.422  22.707  0.00  0.00    +0.000 A 
ATOM     22  C   UNL     1       2.423  -5.877  23.962  0.00  0.00    +0.000 A 
ATOM     23  S   UNL     1       3.998  -5.159  23.571  0.00  0.00    +0.000 S 
ENDBRANCH  11  15
BRANCH   1  24
ATOM     24  S   UNL     1       8.835   0.760  22.088  0.00  0.00    +0.000 S 
ATOM     25  O   UNL     1       9.012   2.176  21.919  0.00  0.00    +0.000 OA
ATOM     26  O   UNL     1       9.641  -0.055  21.204  0.00  0.00    +0.000 OA
BRANCH  24  31
ATOM     27  C   UNL     1       6.765   0.818  18.703  0.00  0.00    +0.000 A 
ATOM     28  C   UNL     1       7.320  -0.450  19.298  0.00  0.00    +0.000 A 
ATOM     29  C   UNL     1       7.317  -0.815  20.728  0.00  0.00    +0.000 A 
ATOM     30  C   UNL     1       6.298  -1.916  20.970  0.00  0.00    +0.000 C 
ATOM     31  C   UNL     1       7.080   0.437  21.598  0.00  0.00    +0.000 A 
ATOM     32  C   UNL     1       6.341   1.632  21.154  0.00  0.00    +0.000 A 
ATOM     33  C   UNL     1       6.013   1.679  19.632  0.00  0.00    +0.000 A 
ATOM     34  C   UNL     1       4.476   1.734  19.346  0.00  0.00    +0.000 C 
ENDBRANCH  24  31
ENDBRANCH   1  24
TORSDOF 3
ENDMDL
MODEL 9
REMARK VINA RESULT:      -7.4      2.999      8.880
REMARK  Name = 
REMARK  5 active torsions:
REMARK  status: ('A' for Active; 'I' for Inactive)
REMARK    1  A    between atoms: C_5  and  C_6
REMARK    2  A    between atoms: C_10  and  S_11
REMARK    3  A    between atoms: S_11  and  N_14
REMARK    4  A    between atoms: C_34  and  C_36
REMARK    5  A    between atoms: C_60  and  C_61
REMARK                            x       y       z     vdW  Elec       q    Type
REMARK                         _______ _______ _______ _____ _____    ______ ____
ROOT
ATOM      1  N   UNL     1       8.698   2.212  22.196  0.00  0.00    +0.000 NA
ATOM      2  C   UNL     1       9.630   1.560  22.999  0.00  0.00    +0.000 C 
ATOM      3  C   UNL     1       9.660   0.058  22.910  0.00  0.00    +0.000 C 
ATOM      4  N   UNL     1       8.304  -0.485  22.959  0.00  0.00    +0.000 N 
ATOM      5  C   UNL     1       8.224  -1.858  22.946  0.00  0.00    +0.000 C 
ATOM      6  O   UNL     1       8.612  -2.442  21.959  0.00  0.00    +0.000 OA
ATOM      7  N   UNL     1       8.470  -2.296  24.190  0.00  0.00    +0.000 N 
ATOM      8  C   UNL     1       9.687  -3.051  24.474  0.00  0.00    +0.000 C 
ATOM      9  C   UNL     1       9.318  -4.509  24.704  0.00  0.00    +0.000 C 
ATOM     10  C   UNL     1       7.914  -4.782  24.161  0.00  0.00    +0.000 C 
ATOM     11  C   UNL     1       6.905  -3.981  24.938  0.00  0.00    +0.000 C 
ATOM     12  C   UNL     1       7.328  -2.537  25.080  0.00  0.00    +0.000 C 
ATOM     13  C   UNL     1       7.235   0.256  22.317  0.00  0.00    +0.000 C 
ATOM     14  C   UNL     1       7.831   1.381  21.479  0.00  0.00    +0.000 C 
ENDROOT
BRANCH  11  15
ATOM     15  C   UNL     1       5.491  -4.113  24.455  0.00  0.00    +0.000 C 
ATOM     16  N   UNL     1       5.134  -5.564  24.173  0.00  0.00    +0.000 NA
ATOM     17  C   UNL     1       4.843  -6.212  25.268  0.00  0.00    +0.000 A 
ATOM     18  C   UNL     1       3.827  -7.226  24.778  0.00  0.00    +0.000 A 
ATOM     19  C   UNL     1       2.562  -7.598  25.452  0.00  0.00    +0.000 A 
ATOM     20  C   UNL     1       2.443  -6.748  26.664  0.00  0.00    +0.000 A 
ATOM     21  C   UNL     1       3.125  -5.640  27.234  0.00  0.00    +0.000 A 
ATOM     22  C   UNL     1       4.360  -5.405  26.413  0.00  0.00    +0.000 A 
ATOM     23  S   UNL     1       4.404  -3.706  25.903  0.00  0.00    +0.000 S 
ENDBRANCH  11  15
BRANCH   1  24
ATOM     24  S   UNL     1       8.003   3.463  22.905  0.00  0.00    +0.000 S 
ATOM     25  O   UNL     1       8.979   4.380  23.428  0.00  0.00    +0.000 OA
ATOM     26  O   UNL     1       7.030   4.064  22.019  0.00  0.00    +0.000 OA
BRANCH  24  31
ATOM     27  C   UNL     1       6.449   5.181  26.128  0.00  0.00    +0.000 A 
ATOM     28  C   UNL     1       5.636   4.866  24.899  0.00  0.00    +0.000 A 
ATOM     29  C   UNL     1       5.722   3.635  24.090  0.00  0.00    +0.000 A 
ATOM     30  C   UNL     1       4.489   2.780  24.331  0.00  0.00    +0.000 C 
ATOM     31  C   UNL     1       7.044   2.895  24.383  0.00  0.00    +0.000 A 
ATOM     32  C   UNL     1       7.780   2.977  25.657  0.00  0.00    +0.000 A 
ATOM     33  C   UNL     1       7.280   4.077  26.639  0.00  0.00    +0.000 A 
ATOM     34  C   UNL     1       6.788   3.491  28.004  0.00  0.00    +0.000 C 
ENDBRANCH  24  31
ENDBRANCH   1  24
TORSDOF 3
ENDMDL
