MODEL 1
REMARK VINA RESULT:      -8.6      0.000      0.000
REMARK  Name = 
REMARK  7 active torsions:
REMARK  status: ('A' for Active; 'I' for Inactive)
REMARK    1  A    between atoms: N_15  and  C_46
REMARK    2  A    between atoms: C_16  and  C_18
REMARK    3  A    between atoms: C_18  and  C_21
REMARK    4  A    between atoms: C_26  and  S_27
REMARK    5  A    between atoms: S_27  and  N_30
REMARK    6  A    between atoms: N_30  and  C_32
REMARK    7  A    between atoms: C_51  and  C_52
REMARK                            x       y       z     vdW  Elec       q    Type
REMARK                         _______ _______ _______ _____ _____    ______ ____
ROOT
ATOM      1  C   UNL     1       5.470  -4.244  23.614  0.00  0.00    +0.000 C 
ATOM      2  C   UNL     1       4.888  -4.568  22.429  0.00  0.00    +0.000 C 
ATOM      3  S   UNL     1       6.147  -5.723  21.498  0.00  0.00    +0.000 S 
ATOM      4  O   UNL     1       5.985  -5.657  20.196  0.00  0.00    +0.000 OA
ATOM      5  O   UNL     1       6.249  -6.835  22.331  0.00  0.00    +0.000 OA
ATOM      6  C   UNL     1       7.522  -4.586  22.058  0.00  0.00    +0.000 C 
ATOM      7  N   UNL     1       7.353  -3.608  23.047  0.00  0.00    +0.000 N 
ATOM      8  H   UNL     1       8.064  -2.991  22.662  0.00  0.00    +0.000 HD
ATOM      9  C   UNL     1       6.526  -3.251  24.031  0.00  0.00    +0.000 C 
ATOM     10  N   UNL     1       6.948  -3.259  25.280  0.00  0.00    +0.000 N 
ATOM     11  C   UNL     1       8.260  -2.736  25.113  0.00  0.00    +0.000 C 
ATOM     12  O   UNL     1       9.155  -3.445  24.850  0.00  0.00    +0.000 OA
ENDROOT
BRANCH  10  13
ATOM     13  C   UNL     1       7.105  -3.845  26.451  0.00  0.00    +0.000 A 
ATOM     14  C   UNL     1       6.127  -3.111  27.309  0.00  0.00    +0.000 A 
ATOM     15  C   UNL     1       4.965  -3.630  27.996  0.00  0.00    +0.000 A 
ATOM     16  C   UNL     1       5.118  -5.183  28.207  0.00  0.00    +0.000 A 
ATOM     17  C   UNL     1       5.062  -5.323  29.787  0.00  0.00    +0.000 C 
ATOM     18  C   UNL     1       5.929  -6.060  27.402  0.00  0.00    +0.000 A 
ATOM     19  C   UNL     1       7.133  -5.290  26.676  0.00  0.00    +0.000 A 
ENDBRANCH  10  13
BRANCH  11  20
ATOM     20  C   UNL     1       8.358  -1.185  25.214  0.00  0.00    +0.000 C 
BRANCH  20  21
ATOM     21  C   UNL     1       9.699  -0.870  24.650  0.00  0.00    +0.000 A 
ATOM     22  C   UNL     1       9.668  -1.059  23.139  0.00  0.00    +0.000 A 
ATOM     23  C   UNL     1      10.044  -0.061  22.134  0.00  0.00    +0.000 A 
ATOM     24  C   UNL     1      10.090   1.362  22.812  0.00  0.00    +0.000 A 
ATOM     25  C   UNL     1      10.481   1.599  24.164  0.00  0.00    +0.000 A 
ATOM     26  C   UNL     1      10.508   0.287  25.078  0.00  0.00    +0.000 A 
BRANCH  24  27
ATOM     27  S   UNL     1       8.466   1.848  22.228  0.00  0.00    +0.000 S 
ATOM     28  O   UNL     1       7.544   1.097  23.056  0.00  0.00    +0.000 OA
ATOM     29  O   UNL     1       8.357   3.283  22.402  0.00  0.00    +0.000 OA
BRANCH  27  30
ATOM     30  N   UNL     1       8.193   1.487  20.681  0.00  0.00    +0.000 N 
ATOM     31  H   UNL     1       8.861   0.955  20.288  0.00  0.00    +0.000 HD
BRANCH  30  32
ATOM     32  C   UNL     1       6.984   0.826  20.664  0.00  0.00    +0.000 A 
ATOM     33  N   UNL     1       6.070   1.939  20.312  0.00  0.00    +0.000 NA
ATOM     34  C   UNL     1       5.205   1.501  19.452  0.00  0.00    +0.000 A 
ATOM     35  C   UNL     1       5.282   0.442  18.494  0.00  0.00    +0.000 A 
ATOM     36  C   UNL     1       6.113  -0.710  18.655  0.00  0.00    +0.000 A 
ATOM     37  C   UNL     1       6.664  -0.416  20.053  0.00  0.00    +0.000 A 
ENDBRANCH  30  32
ENDBRANCH  27  30
ENDBRANCH  24  27
ENDBRANCH  20  21
ENDBRANCH  11  20
TORSDOF 6
ENDMDL
MODEL 2
REMARK VINA RESULT:      -8.3      2.010      2.611
REMARK  Name = 
REMARK  7 active torsions:
REMARK  status: ('A' for Active; 'I' for Inactive)
REMARK    1  A    between atoms: N_15  and  C_46
REMARK    2  A    between atoms: C_16  and  C_18
REMARK    3  A    between atoms: C_18  and  C_21
REMARK    4  A    between atoms: C_26  and  S_27
REMARK    5  A    between atoms: S_27  and  N_30
REMARK    6  A    between atoms: N_30  and  C_32
REMARK    7  A    between atoms: C_51  and  C_52
REMARK                            x       y       z     vdW  Elec       q    Type
REMARK                         _______ _______ _______ _____ _____    ______ ____
ROOT
ATOM      1  C   UNL     1       3.661  -4.452  24.469  0.00  0.00    +0.000 C 
ATOM      2  C   UNL     1       2.686  -5.329  24.109  0.00  0.00    +0.000 C 
ATOM      3  S   UNL     1       3.324  -7.095  24.617  0.00  0.00    +0.000 S 
ATOM      4  O   UNL     1       2.784  -8.033  23.870  0.00  0.00    +0.000 OA
ATOM      5  O   UNL     1       3.442  -7.015  26.003  0.00  0.00    +0.000 OA
ATOM      6  C   UNL     1       5.011  -6.614  23.970  0.00  0.00    +0.000 C 
ATOM      7  N   UNL     1       5.366  -5.294  23.659  0.00  0.00    +0.000 N 
ATOM      8  H   UNL     1       6.035  -5.565  22.943  0.00  0.00    +0.000 HD
ATOM      9  C   UNL     1       4.977  -4.035  23.864  0.00  0.00    +0.000 C 
ATOM     10  N   UNL     1       5.753  -3.208  24.537  0.00  0.00    +0.000 N 
ATOM     11  C   UNL     1       7.028  -3.576  24.025  0.00  0.00    +0.000 C 
ATOM     12  O   UNL     1       7.628  -4.462  24.502  0.00  0.00    +0.000 OA
ENDROOT
BRANCH  10  13
ATOM     13  C   UNL     1       6.138  -2.626  25.656  0.00  0.00    +0.000 A 
ATOM     14  C   UNL     1       5.691  -1.215  25.451  0.00  0.00    +0.000 A 
ATOM     15  C   UNL     1       4.725  -0.456  26.216  0.00  0.00    +0.000 A 
ATOM     16  C   UNL     1       4.569  -1.083  27.651  0.00  0.00    +0.000 A 
ATOM     17  C   UNL     1       4.996   0.117  28.599  0.00  0.00    +0.000 C 
ATOM     18  C   UNL     1       4.847  -2.452  28.001  0.00  0.00    +0.000 A 
ATOM     19  C   UNL     1       5.897  -3.141  27.004  0.00  0.00    +0.000 A 
ENDBRANCH  10  13
BRANCH  11  20
ATOM     20  C   UNL     1       7.476  -2.780  22.764  0.00  0.00    +0.000 C 
BRANCH  20  21
ATOM     21  C   UNL     1       8.847  -2.310  23.100  0.00  0.00    +0.000 A 
ATOM     22  C   UNL     1       9.426  -1.553  21.913  0.00  0.00    +0.000 A 
ATOM     23  C   UNL     1       9.965  -0.190  21.936  0.00  0.00    +0.000 A 
ATOM     24  C   UNL     1       9.488   0.531  23.255  0.00  0.00    +0.000 A 
ATOM     25  C   UNL     1       9.287  -0.125  24.505  0.00  0.00    +0.000 A 
ATOM     26  C   UNL     1       9.207  -1.719  24.404  0.00  0.00    +0.000 A 
BRANCH  24  27
ATOM     27  S   UNL     1       8.147   1.413  22.455  0.00  0.00    +0.000 S 
ATOM     28  O   UNL     1       6.947   0.872  23.060  0.00  0.00    +0.000 OA
ATOM     29  O   UNL     1       8.339   2.824  22.722  0.00  0.00    +0.000 OA
BRANCH  27  30
ATOM     30  N   UNL     1       8.077   1.189  20.860  0.00  0.00    +0.000 N 
ATOM     31  H   UNL     1       8.761   0.641  20.520  0.00  0.00    +0.000 HD
BRANCH  30  32
ATOM     32  C   UNL     1       6.845   0.618  20.621  0.00  0.00    +0.000 A 
ATOM     33  N   UNL     1       6.056   1.817  20.252  0.00  0.00    +0.000 NA
ATOM     34  C   UNL     1       5.296   1.513  19.248  0.00  0.00    +0.000 A 
ATOM     35  C   UNL     1       5.444   0.531  18.217  0.00  0.00    +0.000 A 
ATOM     36  C   UNL     1       6.176  -0.685  18.384  0.00  0.00    +0.000 A 
ATOM     37  C   UNL     1       6.541  -0.545  19.864  0.00  0.00    +0.000 A 
ENDBRANCH  30  32
ENDBRANCH  27  30
ENDBRANCH  24  27
ENDBRANCH  20  21
ENDBRANCH  11  20
TORSDOF 6
ENDMDL
MODEL 3
REMARK VINA RESULT:      -8.2      2.837      6.882
REMARK  Name = 
REMARK  7 active torsions:
REMARK  status: ('A' for Active; 'I' for Inactive)
REMARK    1  A    between atoms: N_15  and  C_46
REMARK    2  A    between atoms: C_16  and  C_18
REMARK    3  A    between atoms: C_18  and  C_21
REMARK    4  A    between atoms: C_26  and  S_27
REMARK    5  A    between atoms: S_27  and  N_30
REMARK    6  A    between atoms: N_30  and  C_32
REMARK    7  A    between atoms: C_51  and  C_52
REMARK                            x       y       z     vdW  Elec       q    Type
REMARK                         _______ _______ _______ _____ _____    ______ ____
ROOT
ATOM      1  C   UNL     1       7.932   0.399  20.307  0.00  0.00    +0.000 C 
ATOM      2  C   UNL     1       7.847   0.187  18.966  0.00  0.00    +0.000 C 
ATOM      3  S   UNL     1       5.953   0.023  18.556  0.00  0.00    +0.000 S 
ATOM      4  O   UNL     1       5.757  -0.702  17.477  0.00  0.00    +0.000 OA
ATOM      5  O   UNL     1       5.434   1.268  18.903  0.00  0.00    +0.000 OA
ATOM      6  C   UNL     1       5.763  -1.016  20.100  0.00  0.00    +0.000 C 
ATOM      7  N   UNL     1       6.751  -1.105  21.090  0.00  0.00    +0.000 N 
ATOM      8  H   UNL     1       6.487  -2.046  21.373  0.00  0.00    +0.000 HD
ATOM      9  C   UNL     1       7.855  -0.493  21.520  0.00  0.00    +0.000 C 
ATOM     10  N   UNL     1       7.878   0.060  22.717  0.00  0.00    +0.000 N 
ATOM     11  C   UNL     1       7.166  -0.917  23.466  0.00  0.00    +0.000 C 
ATOM     12  O   UNL     1       5.995  -0.891  23.520  0.00  0.00    +0.000 OA
ENDROOT
BRANCH  10  13
ATOM     13  C   UNL     1       7.727   1.091  23.525  0.00  0.00    +0.000 A 
ATOM     14  C   UNL     1       9.139   1.437  23.868  0.00  0.00    +0.000 A 
ATOM     15  C   UNL     1       9.860   2.660  23.588  0.00  0.00    +0.000 A 
ATOM     16  C   UNL     1       8.843   3.838  23.354  0.00  0.00    +0.000 A 
ATOM     17  C   UNL     1       9.240   4.866  24.497  0.00  0.00    +0.000 C 
ATOM     18  C   UNL     1       7.479   3.691  22.916  0.00  0.00    +0.000 A 
ATOM     19  C   UNL     1       6.872   2.250  23.266  0.00  0.00    +0.000 A 
ENDBRANCH  10  13
BRANCH  11  20
ATOM     20  C   UNL     1       8.056  -2.030  24.093  0.00  0.00    +0.000 C 
BRANCH  20  21
ATOM     21  C   UNL     1       7.828  -1.894  25.558  0.00  0.00    +0.000 A 
ATOM     22  C   UNL     1       6.549  -1.103  25.798  0.00  0.00    +0.000 A 
ATOM     23  C   UNL     1       5.406  -1.533  26.607  0.00  0.00    +0.000 A 
ATOM     24  C   UNL     1       5.504  -3.087  26.855  0.00  0.00    +0.000 A 
ATOM     25  C   UNL     1       6.728  -3.805  27.000  0.00  0.00    +0.000 A 
ATOM     26  C   UNL     1       8.022  -2.999  26.516  0.00  0.00    +0.000 A 
BRANCH  24  27
ATOM     27  S   UNL     1       4.341  -3.509  25.556  0.00  0.00    +0.000 S 
ATOM     28  O   UNL     1       3.904  -4.851  25.884  0.00  0.00    +0.000 OA
ATOM     29  O   UNL     1       3.274  -2.530  25.598  0.00  0.00    +0.000 OA
BRANCH  27  30
ATOM     30  N   UNL     1       4.986  -3.515  24.078  0.00  0.00    +0.000 N 
ATOM     31  H   UNL     1       5.725  -2.943  23.981  0.00  0.00    +0.000 HD
BRANCH  30  32
ATOM     32  C   UNL     1       5.358  -4.821  23.844  0.00  0.00    +0.000 A 
ATOM     33  N   UNL     1       4.729  -5.050  22.521  0.00  0.00    +0.000 NA
ATOM     34  C   UNL     1       5.562  -5.713  21.782  0.00  0.00    +0.000 A 
ATOM     35  C   UNL     1       6.991  -5.787  21.805  0.00  0.00    +0.000 A 
ATOM     36  C   UNL     1       7.772  -5.588  22.985  0.00  0.00    +0.000 A 
ATOM     37  C   UNL     1       6.638  -5.417  24.000  0.00  0.00    +0.000 A 
ENDBRANCH  30  32
ENDBRANCH  27  30
ENDBRANCH  24  27
ENDBRANCH  20  21
ENDBRANCH  11  20
TORSDOF 6
ENDMDL
MODEL 4
REMARK VINA RESULT:      -7.9      1.869      2.698
REMARK  Name = 
REMARK  7 active torsions:
REMARK  status: ('A' for Active; 'I' for Inactive)
REMARK    1  A    between atoms: N_15  and  C_46
REMARK    2  A    between atoms: C_16  and  C_18
REMARK    3  A    between atoms: C_18  and  C_21
REMARK    4  A    between atoms: C_26  and  S_27
REMARK    5  A    between atoms: S_27  and  N_30
REMARK    6  A    between atoms: N_30  and  C_32
REMARK    7  A    between atoms: C_51  and  C_52
REMARK                            x       y       z     vdW  Elec       q    Type
REMARK                         _______ _______ _______ _____ _____    ______ ____
ROOT
ATOM      1  C   UNL     1       5.535  -4.142  23.660  0.00  0.00    +0.000 C 
ATOM      2  C   UNL     1       4.924  -4.503  22.500  0.00  0.00    +0.000 C 
ATOM      3  S   UNL     1       6.139  -5.726  21.598  0.00  0.00    +0.000 S 
ATOM      4  O   UNL     1       5.955  -5.712  20.297  0.00  0.00    +0.000 OA
ATOM      5  O   UNL     1       6.231  -6.804  22.476  0.00  0.00    +0.000 OA
ATOM      6  C   UNL     1       7.550  -4.598  22.085  0.00  0.00    +0.000 C 
ATOM      7  N   UNL     1       7.421  -3.575  23.034  0.00  0.00    +0.000 N 
ATOM      8  H   UNL     1       8.138  -2.992  22.610  0.00  0.00    +0.000 HD
ATOM      9  C   UNL     1       6.620  -3.158  24.015  0.00  0.00    +0.000 C 
ATOM     10  N   UNL     1       7.064  -3.122  25.257  0.00  0.00    +0.000 N 
ATOM     11  C   UNL     1       8.384  -2.637  25.045  0.00  0.00    +0.000 C 
ATOM     12  O   UNL     1       9.258  -3.378  24.797  0.00  0.00    +0.000 OA
ENDROOT
BRANCH  10  13
ATOM     13  C   UNL     1       7.229  -3.661  26.448  0.00  0.00    +0.000 A 
ATOM     14  C   UNL     1       6.137  -3.022  27.242  0.00  0.00    +0.000 A 
ATOM     15  C   UNL     1       5.007  -3.652  27.890  0.00  0.00    +0.000 A 
ATOM     16  C   UNL     1       5.320  -5.173  28.149  0.00  0.00    +0.000 A 
ATOM     17  C   UNL     1       5.205  -5.284  29.728  0.00  0.00    +0.000 C 
ATOM     18  C   UNL     1       6.261  -5.972  27.406  0.00  0.00    +0.000 A 
ATOM     19  C   UNL     1       7.406  -5.089  26.714  0.00  0.00    +0.000 A 
ENDBRANCH  10  13
BRANCH  11  20
ATOM     20  C   UNL     1       8.520  -1.087  25.077  0.00  0.00    +0.000 C 
BRANCH  20  21
ATOM     21  C   UNL     1       9.756  -0.814  24.294  0.00  0.00    +0.000 A 
ATOM     22  C   UNL     1       9.489  -1.082  22.819  0.00  0.00    +0.000 A 
ATOM     23  C   UNL     1       9.705  -0.141  21.717  0.00  0.00    +0.000 A 
ATOM     24  C   UNL     1       9.859   1.315  22.303  0.00  0.00    +0.000 A 
ATOM     25  C   UNL     1      10.457   1.618  23.562  0.00  0.00    +0.000 A 
ATOM     26  C   UNL     1      10.625   0.355  24.529  0.00  0.00    +0.000 A 
BRANCH  24  27
ATOM     27  S   UNL     1       8.164   1.786  21.955  0.00  0.00    +0.000 S 
ATOM     28  O   UNL     1       8.182   3.234  21.963  0.00  0.00    +0.000 OA
ATOM     29  O   UNL     1       7.817   1.223  20.665  0.00  0.00    +0.000 OA
BRANCH  27  30
ATOM     30  N   UNL     1       7.103   1.268  23.053  0.00  0.00    +0.000 N 
ATOM     31  H   UNL     1       7.383   0.505  23.525  0.00  0.00    +0.000 HD
BRANCH  30  32
ATOM     32  C   UNL     1       6.922   2.326  23.918  0.00  0.00    +0.000 A 
ATOM     33  N   UNL     1       5.448   2.472  23.864  0.00  0.00    +0.000 NA
ATOM     34  C   UNL     1       5.015   2.692  25.065  0.00  0.00    +0.000 A 
ATOM     35  C   UNL     1       5.552   2.329  26.341  0.00  0.00    +0.000 A 
ATOM     36  C   UNL     1       6.947   2.136  26.585  0.00  0.00    +0.000 A 
ATOM     37  C   UNL     1       7.488   2.521  25.206  0.00  0.00    +0.000 A 
ENDBRANCH  30  32
ENDBRANCH  27  30
ENDBRANCH  24  27
ENDBRANCH  20  21
ENDBRANCH  11  20
TORSDOF 6
ENDMDL
MODEL 5
REMARK VINA RESULT:      -7.8      2.956      7.161
REMARK  Name = 
REMARK  7 active torsions:
REMARK  status: ('A' for Active; 'I' for Inactive)
REMARK    1  A    between atoms: N_15  and  C_46
REMARK    2  A    between atoms: C_16  and  C_18
REMARK    3  A    between atoms: C_18  and  C_21
REMARK    4  A    between atoms: C_26  and  S_27
REMARK    5  A    between atoms: S_27  and  N_30
REMARK    6  A    between atoms: N_30  and  C_32
REMARK    7  A    between atoms: C_51  and  C_52
REMARK                            x       y       z     vdW  Elec       q    Type
REMARK                         _______ _______ _______ _____ _____    ______ ____
ROOT
ATOM      1  C   UNL     1       6.118   3.024  22.916  0.00  0.00    +0.000 C 
ATOM      2  C   UNL     1       4.913   3.234  22.321  0.00  0.00    +0.000 C 
ATOM      3  S   UNL     1       3.633   3.511  23.759  0.00  0.00    +0.000 S 
ATOM      4  O   UNL     1       2.416   3.180  23.388  0.00  0.00    +0.000 OA
ATOM      5  O   UNL     1       4.092   4.666  24.388  0.00  0.00    +0.000 OA
ATOM      6  C   UNL     1       4.452   2.109  24.687  0.00  0.00    +0.000 C 
ATOM      7  N   UNL     1       5.694   1.571  24.323  0.00  0.00    +0.000 N 
ATOM      8  H   UNL     1       5.482   0.645  24.688  0.00  0.00    +0.000 HD
ATOM      9  C   UNL     1       6.770   1.839  23.582  0.00  0.00    +0.000 C 
ATOM     10  N   UNL     1       7.944   2.002  24.162  0.00  0.00    +0.000 N 
ATOM     11  C   UNL     1       7.889   0.978  25.147  0.00  0.00    +0.000 C 
ATOM     12  O   UNL     1       7.392   1.180  26.189  0.00  0.00    +0.000 OA
ENDROOT
BRANCH  10  13
ATOM     13  C   UNL     1       8.879   2.759  24.700  0.00  0.00    +0.000 A 
ATOM     14  C   UNL     1      10.076   2.425  23.871  0.00  0.00    +0.000 A 
ATOM     15  C   UNL     1      10.851   3.297  23.016  0.00  0.00    +0.000 A 
ATOM     16  C   UNL     1      10.648   4.795  23.455  0.00  0.00    +0.000 A 
ATOM     17  C   UNL     1      12.124   5.248  23.825  0.00  0.00    +0.000 C 
ATOM     18  C   UNL     1       9.504   5.312  24.161  0.00  0.00    +0.000 A 
ATOM     19  C   UNL     1       8.743   4.183  25.007  0.00  0.00    +0.000 A 
ENDBRANCH  10  13
BRANCH  11  20
ATOM     20  C   UNL     1       8.444  -0.400  24.682  0.00  0.00    +0.000 C 
BRANCH  20  21
ATOM     21  C   UNL     1       7.758  -1.383  25.565  0.00  0.00    +0.000 A 
ATOM     22  C   UNL     1       6.260  -1.349  25.291  0.00  0.00    +0.000 A 
ATOM     23  C   UNL     1       5.420  -2.495  24.933  0.00  0.00    +0.000 A 
ATOM     24  C   UNL     1       6.343  -3.686  24.468  0.00  0.00    +0.000 A 
ATOM     25  C   UNL     1       7.642  -3.953  24.994  0.00  0.00    +0.000 A 
ATOM     26  C   UNL     1       8.275  -2.741  25.824  0.00  0.00    +0.000 A 
BRANCH  24  27
ATOM     27  S   UNL     1       6.109  -3.370  22.718  0.00  0.00    +0.000 S 
ATOM     28  O   UNL     1       7.270  -3.961  22.085  0.00  0.00    +0.000 OA
ATOM     29  O   UNL     1       4.861  -3.997  22.330  0.00  0.00    +0.000 OA
BRANCH  27  30
ATOM     30  N   UNL     1       6.046  -1.804  22.340  0.00  0.00    +0.000 N 
ATOM     31  H   UNL     1       6.283  -1.230  23.046  0.00  0.00    +0.000 HD
BRANCH  30  32
ATOM     32  C   UNL     1       6.914  -1.645  21.282  0.00  0.00    +0.000 A 
ATOM     33  N   UNL     1       5.955  -1.460  20.167  0.00  0.00    +0.000 NA
ATOM     34  C   UNL     1       6.399  -0.516  19.398  0.00  0.00    +0.000 A 
ATOM     35  C   UNL     1       7.247   0.603  19.674  0.00  0.00    +0.000 A 
ATOM     36  C   UNL     1       8.228   0.614  20.714  0.00  0.00    +0.000 A 
ATOM     37  C   UNL     1       8.074  -0.828  21.205  0.00  0.00    +0.000 A 
ENDBRANCH  30  32
ENDBRANCH  27  30
ENDBRANCH  24  27
ENDBRANCH  20  21
ENDBRANCH  11  20
TORSDOF 6
ENDMDL
MODEL 6
REMARK VINA RESULT:      -7.7      2.862      8.069
REMARK  Name = 
REMARK  7 active torsions:
REMARK  status: ('A' for Active; 'I' for Inactive)
REMARK    1  A    between atoms: N_15  and  C_46
REMARK    2  A    between atoms: C_16  and  C_18
REMARK    3  A    between atoms: C_18  and  C_21
REMARK    4  A    between atoms: C_26  and  S_27
REMARK    5  A    between atoms: S_27  and  N_30
REMARK    6  A    between atoms: N_30  and  C_32
REMARK    7  A    between atoms: C_51  and  C_52
REMARK                            x       y       z     vdW  Elec       q    Type
REMARK                         _______ _______ _______ _____ _____    ______ ____
ROOT
ATOM      1  C   UNL     1       7.821   0.503  20.347  0.00  0.00    +0.000 C 
ATOM      2  C   UNL     1       7.805   0.222  19.016  0.00  0.00    +0.000 C 
ATOM      3  S   UNL     1       5.985  -0.317  18.592  0.00  0.00    +0.000 S 
ATOM      4  O   UNL     1       5.952  -1.110  17.544  0.00  0.00    +0.000 OA
ATOM      5  O   UNL     1       5.232   0.820  18.876  0.00  0.00    +0.000 OA
ATOM      6  C   UNL     1       5.964  -1.306  20.179  0.00  0.00    +0.000 C 
ATOM      7  N   UNL     1       6.931  -1.164  21.183  0.00  0.00    +0.000 N 
ATOM      8  H   UNL     1       6.843  -2.125  21.505  0.00  0.00    +0.000 HD
ATOM      9  C   UNL     1       7.890  -0.335  21.598  0.00  0.00    +0.000 C 
ATOM     10  N   UNL     1       7.783   0.262  22.769  0.00  0.00    +0.000 N 
ATOM     11  C   UNL     1       7.254  -0.801  23.553  0.00  0.00    +0.000 C 
ATOM     12  O   UNL     1       6.098  -0.995  23.592  0.00  0.00    +0.000 OA
ENDROOT
BRANCH  10  13
ATOM     13  C   UNL     1       7.423   1.279  23.527  0.00  0.00    +0.000 A 
ATOM     14  C   UNL     1       8.738   1.809  23.995  0.00  0.00    +0.000 A 
ATOM     15  C   UNL     1       9.324   3.109  23.750  0.00  0.00    +0.000 A 
ATOM     16  C   UNL     1       8.195   4.143  23.384  0.00  0.00    +0.000 A 
ATOM     17  C   UNL     1       8.343   5.233  24.529  0.00  0.00    +0.000 C 
ATOM     18  C   UNL     1       6.911   3.815  22.820  0.00  0.00    +0.000 A 
ATOM     19  C   UNL     1       6.459   2.314  23.153  0.00  0.00    +0.000 A 
ENDBRANCH  10  13
BRANCH  11  20
ATOM     20  C   UNL     1       8.325  -1.696  24.241  0.00  0.00    +0.000 C 
BRANCH  20  21
ATOM     21  C   UNL     1       8.149  -3.029  23.600  0.00  0.00    +0.000 A 
ATOM     22  C   UNL     1       9.131  -4.018  24.215  0.00  0.00    +0.000 A 
ATOM     23  C   UNL     1       8.792  -5.307  24.824  0.00  0.00    +0.000 A 
ATOM     24  C   UNL     1       7.245  -5.344  25.127  0.00  0.00    +0.000 A 
ATOM     25  C   UNL     1       6.251  -4.705  24.328  0.00  0.00    +0.000 A 
ATOM     26  C   UNL     1       6.830  -3.620  23.306  0.00  0.00    +0.000 A 
BRANCH  24  27
ATOM     27  S   UNL     1       7.432  -4.930  26.862  0.00  0.00    +0.000 S 
ATOM     28  O   UNL     1       8.864  -4.813  27.054  0.00  0.00    +0.000 OA
ATOM     29  O   UNL     1       6.719  -3.689  27.089  0.00  0.00    +0.000 OA
BRANCH  27  30
ATOM     30  N   UNL     1       6.859  -6.052  27.868  0.00  0.00    +0.000 N 
ATOM     31  H   UNL     1       7.421  -6.235  28.599  0.00  0.00    +0.000 HD
BRANCH  30  32
ATOM     32  C   UNL     1       5.646  -5.569  28.307  0.00  0.00    +0.000 A 
ATOM     33  N   UNL     1       4.717  -6.363  27.467  0.00  0.00    +0.000 NA
ATOM     34  C   UNL     1       3.721  -6.741  28.206  0.00  0.00    +0.000 A 
ATOM     35  C   UNL     1       3.626  -6.970  29.615  0.00  0.00    +0.000 A 
ATOM     36  C   UNL     1       4.444  -6.304  30.580  0.00  0.00    +0.000 A 
ATOM     37  C   UNL     1       5.206  -5.365  29.642  0.00  0.00    +0.000 A 
ENDBRANCH  30  32
ENDBRANCH  27  30
ENDBRANCH  24  27
ENDBRANCH  20  21
ENDBRANCH  11  20
TORSDOF 6
ENDMDL
MODEL 7
REMARK VINA RESULT:      -7.7      2.863      7.509
REMARK  Name = 
REMARK  7 active torsions:
REMARK  status: ('A' for Active; 'I' for Inactive)
REMARK    1  A    between atoms: N_15  and  C_46
REMARK    2  A    between atoms: C_16  and  C_18
REMARK    3  A    between atoms: C_18  and  C_21
REMARK    4  A    between atoms: C_26  and  S_27
REMARK    5  A    between atoms: S_27  and  N_30
REMARK    6  A    between atoms: N_30  and  C_32
REMARK    7  A    between atoms: C_51  and  C_52
REMARK                            x       y       z     vdW  Elec       q    Type
REMARK                         _______ _______ _______ _____ _____    ______ ____
ROOT
ATOM      1  C   UNL     1       5.790   1.626  24.158  0.00  0.00    +0.000 C 
ATOM      2  C   UNL     1       5.273   2.290  25.225  0.00  0.00    +0.000 C 
ATOM      3  S   UNL     1       6.698   3.423  25.910  0.00  0.00    +0.000 S 
ATOM      4  O   UNL     1       6.538   3.675  27.189  0.00  0.00    +0.000 OA
ATOM      5  O   UNL     1       6.961   4.293  24.854  0.00  0.00    +0.000 OA
ATOM      6  C   UNL     1       7.882   1.998  25.653  0.00  0.00    +0.000 C 
ATOM      7  N   UNL     1       7.560   0.859  24.902  0.00  0.00    +0.000 N 
ATOM      8  H   UNL     1       8.171   0.245  25.434  0.00  0.00    +0.000 HD
ATOM      9  C   UNL     1       6.681   0.419  24.001  0.00  0.00    +0.000 C 
ATOM     10  N   UNL     1       7.089   0.084  22.792  0.00  0.00    +0.000 N 
ATOM     11  C   UNL     1       8.308  -0.578  23.107  0.00  0.00    +0.000 C 
ATOM     12  O   UNL     1       9.302   0.030  23.229  0.00  0.00    +0.000 OA
ENDROOT
BRANCH  10  13
ATOM     13  C   UNL     1       7.325   0.363  21.526  0.00  0.00    +0.000 A 
ATOM     14  C   UNL     1       6.906  -0.895  20.838  0.00  0.00    +0.000 A 
ATOM     15  C   UNL     1       5.848  -1.082  19.869  0.00  0.00    +0.000 A 
ATOM     16  C   UNL     1       5.508   0.290  19.177  0.00  0.00    +0.000 A 
ATOM     17  C   UNL     1       5.806  -0.014  17.647  0.00  0.00    +0.000 C 
ATOM     18  C   UNL     1       5.741   1.593  19.744  0.00  0.00    +0.000 A 
ATOM     19  C   UNL     1       6.912   1.587  20.838  0.00  0.00    +0.000 A 
ENDBRANCH  10  13
BRANCH  11  20
ATOM     20  C   UNL     1       8.170  -2.109  23.355  0.00  0.00    +0.000 C 
BRANCH  20  21
ATOM     21  C   UNL     1       9.169  -2.394  24.421  0.00  0.00    +0.000 A 
ATOM     22  C   UNL     1       8.586  -2.015  25.775  0.00  0.00    +0.000 A 
ATOM     23  C   UNL     1       8.476  -2.890  26.945  0.00  0.00    +0.000 A 
ATOM     24  C   UNL     1       8.662  -4.388  26.489  0.00  0.00    +0.000 A 
ATOM     25  C   UNL     1       9.514  -4.807  25.424  0.00  0.00    +0.000 A 
ATOM     26  C   UNL     1       9.987  -3.622  24.459  0.00  0.00    +0.000 A 
BRANCH  24  27
ATOM     27  S   UNL     1       6.905  -4.743  26.452  0.00  0.00    +0.000 S 
ATOM     28  O   UNL     1       6.823  -6.183  26.589  0.00  0.00    +0.000 OA
ATOM     29  O   UNL     1       6.297  -4.025  27.554  0.00  0.00    +0.000 OA
BRANCH  27  30
ATOM     30  N   UNL     1       6.178  -4.305  25.081  0.00  0.00    +0.000 N 
ATOM     31  H   UNL     1       6.571  -3.561  24.660  0.00  0.00    +0.000 HD
BRANCH  30  32
ATOM     32  C   UNL     1       6.246  -5.409  24.259  0.00  0.00    +0.000 A 
ATOM     33  N   UNL     1       4.826  -5.532  23.851  0.00  0.00    +0.000 NA
ATOM     34  C   UNL     1       4.787  -5.817  22.588  0.00  0.00    +0.000 A 
ATOM     35  C   UNL     1       5.709  -5.538  21.530  0.00  0.00    +0.000 A 
ATOM     36  C   UNL     1       7.116  -5.379  21.730  0.00  0.00    +0.000 A 
ATOM     37  C   UNL     1       7.182  -5.689  23.228  0.00  0.00    +0.000 A 
ENDBRANCH  30  32
ENDBRANCH  27  30
ENDBRANCH  24  27
ENDBRANCH  20  21
ENDBRANCH  11  20
TORSDOF 6
ENDMDL
MODEL 8
REMARK VINA RESULT:      -7.6      2.557      4.283
REMARK  Name = 
REMARK  7 active torsions:
REMARK  status: ('A' for Active; 'I' for Inactive)
REMARK    1  A    between atoms: N_15  and  C_46
REMARK    2  A    between atoms: C_16  and  C_18
REMARK    3  A    between atoms: C_18  and  C_21
REMARK    4  A    between atoms: C_26  and  S_27
REMARK    5  A    between atoms: S_27  and  N_30
REMARK    6  A    between atoms: N_30  and  C_32
REMARK    7  A    between atoms: C_51  and  C_52
REMARK                            x       y       z     vdW  Elec       q    Type
REMARK                         _______ _______ _______ _____ _____    ______ ____
ROOT
ATOM      1  C   UNL     1       5.980  -5.772  26.754  0.00  0.00    +0.000 C 
ATOM      2  C   UNL     1       5.611  -6.493  27.846  0.00  0.00    +0.000 C 
ATOM      3  S   UNL     1       4.071  -5.582  28.610  0.00  0.00    +0.000 S 
ATOM      4  O   UNL     1       3.965  -5.818  29.898  0.00  0.00    +0.000 OA
ATOM      5  O   UNL     1       3.110  -5.663  27.604  0.00  0.00    +0.000 OA
ATOM      6  C   UNL     1       4.945  -3.957  28.299  0.00  0.00    +0.000 C 
ATOM      7  N   UNL     1       6.080  -3.841  27.486  0.00  0.00    +0.000 N 
ATOM      8  H   UNL     1       6.453  -3.044  27.995  0.00  0.00    +0.000 HD
ATOM      9  C   UNL     1       6.763  -4.500  26.549  0.00  0.00    +0.000 C 
ATOM     10  N   UNL     1       6.860  -4.002  25.332  0.00  0.00    +0.000 N 
ATOM     11  C   UNL     1       7.042  -2.624  25.630  0.00  0.00    +0.000 C 
ATOM     12  O   UNL     1       6.118  -1.923  25.800  0.00  0.00    +0.000 OA
ENDROOT
BRANCH  10  13
ATOM     13  C   UNL     1       6.445  -3.892  24.085  0.00  0.00    +0.000 A 
ATOM     14  C   UNL     1       7.534  -4.576  23.325  0.00  0.00    +0.000 A 
ATOM     15  C   UNL     1       7.450  -5.766  22.506  0.00  0.00    +0.000 A 
ATOM     16  C   UNL     1       5.965  -5.985  22.033  0.00  0.00    +0.000 A 
ATOM     17  C   UNL     1       6.097  -5.933  20.451  0.00  0.00    +0.000 C 
ATOM     18  C   UNL     1       4.792  -5.491  22.706  0.00  0.00    +0.000 A 
ATOM     19  C   UNL     1       5.097  -4.203  23.610  0.00  0.00    +0.000 A 
ENDBRANCH  10  13
BRANCH  11  20
ATOM     20  C   UNL     1       8.527  -2.187  25.798  0.00  0.00    +0.000 C 
BRANCH  20  21
ATOM     21  C   UNL     1       8.458  -0.705  25.917  0.00  0.00    +0.000 A 
ATOM     22  C   UNL     1       9.724  -0.092  25.335  0.00  0.00    +0.000 A 
ATOM     23  C   UNL     1       9.786   0.931  24.287  0.00  0.00    +0.000 A 
ATOM     24  C   UNL     1       8.390   1.011  23.559  0.00  0.00    +0.000 A 
ATOM     25  C   UNL     1       7.133   0.790  24.198  0.00  0.00    +0.000 A 
ATOM     26  C   UNL     1       7.240   0.077  25.626  0.00  0.00    +0.000 A 
BRANCH  24  27
ATOM     27  S   UNL     1       8.901   0.004  22.166  0.00  0.00    +0.000 S 
ATOM     28  O   UNL     1      10.346  -0.030  22.255  0.00  0.00    +0.000 OA
ATOM     29  O   UNL     1       8.284  -1.298  22.327  0.00  0.00    +0.000 OA
BRANCH  27  30
ATOM     30  N   UNL     1       8.478   0.608  20.733  0.00  0.00    +0.000 N 
ATOM     31  H   UNL     1       8.986   0.279  20.013  0.00  0.00    +0.000 HD
BRANCH  30  32
ATOM     32  C   UNL     1       7.150   0.278  20.570  0.00  0.00    +0.000 A 
ATOM     33  N   UNL     1       6.515   1.605  20.756  0.00  0.00    +0.000 NA
ATOM     34  C   UNL     1       5.574   1.734  19.874  0.00  0.00    +0.000 A 
ATOM     35  C   UNL     1       5.409   1.148  18.579  0.00  0.00    +0.000 A 
ATOM     36  C   UNL     1       5.955  -0.121  18.211  0.00  0.00    +0.000 A 
ATOM     37  C   UNL     1       6.556  -0.525  19.560  0.00  0.00    +0.000 A 
ENDBRANCH  30  32
ENDBRANCH  27  30
ENDBRANCH  24  27
ENDBRANCH  20  21
ENDBRANCH  11  20
TORSDOF 6
ENDMDL
MODEL 9
REMARK VINA RESULT:      -7.3      2.794      4.575
REMARK  Name = 
REMARK  7 active torsions:
REMARK  status: ('A' for Active; 'I' for Inactive)
REMARK    1  A    between atoms: N_15  and  C_46
REMARK    2  A    between atoms: C_16  and  C_18
REMARK    3  A    between atoms: C_18  and  C_21
REMARK    4  A    between atoms: C_26  and  S_27
REMARK    5  A    between atoms: S_27  and  N_30
REMARK    6  A    between atoms: N_30  and  C_32
REMARK    7  A    between atoms: C_51  and  C_52
REMARK                            x       y       z     vdW  Elec       q    Type
REMARK                         _______ _______ _______ _____ _____    ______ ____
ROOT
ATOM      1  C   UNL     1       7.214  -4.704  26.095  0.00  0.00    +0.000 C 
ATOM      2  C   UNL     1       7.512  -5.344  27.257  0.00  0.00    +0.000 C 
ATOM      3  S   UNL     1       5.856  -5.439  28.272  0.00  0.00    +0.000 S 
ATOM      4  O   UNL     1       6.087  -5.512  29.563  0.00  0.00    +0.000 OA
ATOM      5  O   UNL     1       5.024  -6.216  27.468  0.00  0.00    +0.000 OA
ATOM      6  C   UNL     1       5.499  -3.677  27.756  0.00  0.00    +0.000 C 
ATOM      7  N   UNL     1       6.205  -3.019  26.739  0.00  0.00    +0.000 N 
ATOM      8  H   UNL     1       6.074  -2.096  27.146  0.00  0.00    +0.000 HD
ATOM      9  C   UNL     1       7.018  -3.260  25.710  0.00  0.00    +0.000 C 
ATOM     10  N   UNL     1       6.627  -2.977  24.482  0.00  0.00    +0.000 N 
ATOM     11  C   UNL     1       5.964  -1.738  24.702  0.00  0.00    +0.000 C 
ATOM     12  O   UNL     1       4.837  -1.714  25.023  0.00  0.00    +0.000 OA
ENDROOT
BRANCH  10  13
ATOM     13  C   UNL     1       6.072  -3.309  23.333  0.00  0.00    +0.000 A 
ATOM     14  C   UNL     1       7.236  -3.833  22.557  0.00  0.00    +0.000 A 
ATOM     15  C   UNL     1       7.445  -5.166  22.036  0.00  0.00    +0.000 A 
ATOM     16  C   UNL     1       6.062  -5.905  21.890  0.00  0.00    +0.000 A 
ATOM     17  C   UNL     1       6.006  -6.225  20.336  0.00  0.00    +0.000 C 
ATOM     18  C   UNL     1       4.870  -5.604  22.639  0.00  0.00    +0.000 A 
ATOM     19  C   UNL     1       4.848  -4.096  23.181  0.00  0.00    +0.000 A 
ENDBRANCH  10  13
BRANCH  11  20
ATOM     20  C   UNL     1       6.875  -0.482  24.573  0.00  0.00    +0.000 C 
BRANCH  20  21
ATOM     21  C   UNL     1       8.249  -1.043  24.450  0.00  0.00    +0.000 A 
ATOM     22  C   UNL     1       8.720  -0.909  23.008  0.00  0.00    +0.000 A 
ATOM     23  C   UNL     1       9.955  -0.259  22.559  0.00  0.00    +0.000 A 
ATOM     24  C   UNL     1      10.519   0.640  23.725  0.00  0.00    +0.000 A 
ATOM     25  C   UNL     1      10.398   0.330  25.113  0.00  0.00    +0.000 A 
ATOM     26  C   UNL     1       9.316  -0.801  25.440  0.00  0.00    +0.000 A 
BRANCH  24  27
ATOM     27  S   UNL     1       9.848   2.165  23.064  0.00  0.00    +0.000 S 
ATOM     28  O   UNL     1      10.810   3.179  23.444  0.00  0.00    +0.000 OA
ATOM     29  O   UNL     1       9.727   1.996  21.629  0.00  0.00    +0.000 OA
BRANCH  27  30
ATOM     30  N   UNL     1       8.406   2.560  23.666  0.00  0.00    +0.000 N 
ATOM     31  H   UNL     1       8.445   3.132  24.412  0.00  0.00    +0.000 HD
BRANCH  30  32
ATOM     32  C   UNL     1       7.728   3.170  22.633  0.00  0.00    +0.000 A 
ATOM     33  N   UNL     1       6.536   2.295  22.534  0.00  0.00    +0.000 NA
ATOM     34  C   UNL     1       5.494   3.043  22.353  0.00  0.00    +0.000 A 
ATOM     35  C   UNL     1       5.232   4.401  22.722  0.00  0.00    +0.000 A 
ATOM     36  C   UNL     1       6.255   5.389  22.873  0.00  0.00    +0.000 A 
ATOM     37  C   UNL     1       7.463   4.553  22.443  0.00  0.00    +0.000 A 
ENDBRANCH  30  32
ENDBRANCH  27  30
ENDBRANCH  24  27
ENDBRANCH  20  21
ENDBRANCH  11  20
TORSDOF 6
ENDMDL
