MODEL 1
REMARK VINA RESULT:      -8.7      0.000      0.000
REMARK  Name = 
REMARK  5 active torsions:
REMARK  status: ('A' for Active; 'I' for Inactive)
REMARK    1  A    between atoms: C_7  and  C_8
REMARK    2  A    between atoms: N_23  and  N_24
REMARK    3  A    between atoms: N_24  and  C_26
REMARK    4  A    between atoms: C_26  and  C_28
REMARK    5  A    between atoms: C_26  and  C_45
REMARK                            x       y       z     vdW  Elec       q    Type
REMARK                         _______ _______ _______ _____ _____    ______ ____
ROOT
ATOM      1  C   UNL     1       9.109   0.516  21.313  0.00  0.00    +0.000 C 
ATOM      2  C   UNL     1       7.914   0.102  20.812  0.00  0.00    +0.000 A 
ATOM      3  C   UNL     1       7.865   0.000  19.342  0.00  0.00    +0.000 A 
ATOM      4  C   UNL     1       6.644  -0.412  18.726  0.00  0.00    +0.000 A 
ATOM      5  C   UNL     1       5.800  -1.200  19.739  0.00  0.00    +0.000 A 
ATOM      6  C   UNL     1       6.135  -1.571  21.092  0.00  0.00    +0.000 A 
ATOM      7  C   UNL     1       7.589  -1.346  21.463  0.00  0.00    +0.000 A 
ATOM      8  C   UNL     1       8.474  -2.337  21.868  0.00  0.00    +0.000 C 
ATOM      9  N   UNL     1       9.454  -1.672  22.451  0.00  0.00    +0.000 N 
ATOM     10  C   UNL     1       9.873  -0.479  22.132  0.00  0.00    +0.000 C 
ENDROOT
BRANCH   1  14
ATOM     11  C   UNL     1       8.936   3.159  24.599  0.00  0.00    +0.000 A 
ATOM     12  C   UNL     1      10.186   2.738  23.846  0.00  0.00    +0.000 A 
ATOM     13  C   UNL     1      10.323   2.408  22.440  0.00  0.00    +0.000 A 
ATOM     14  C   UNL     1       8.926   1.864  21.910  0.00  0.00    +0.000 A 
ATOM     15  C   UNL     1       7.648   2.399  22.382  0.00  0.00    +0.000 A 
ATOM     16  C   UNL     1       7.705   2.737  23.910  0.00  0.00    +0.000 A 
ENDBRANCH   1  14
BRANCH   9  17
ATOM     17  N   UNL     1       9.857  -1.865  23.597  0.00  0.00    +0.000 N 
ATOM     18  H   UNL     1      10.303  -2.706  23.560  0.00  0.00    +0.000 HD
BRANCH  17  19
ATOM     19  C   UNL     1       9.037  -1.405  24.558  0.00  0.00    +0.000 C 
ATOM     20  C   UNL     1       9.386  -0.290  25.449  0.00  0.00    +0.000 C 
BRANCH  19  21
ATOM     21  C   UNL     1       8.101  -2.376  25.178  0.00  0.00    +0.000 A 
ATOM     22  C   UNL     1       6.738  -1.807  25.225  0.00  0.00    +0.000 A 
ATOM     23  C   UNL     1       5.531  -2.305  24.520  0.00  0.00    +0.000 A 
ATOM     24  C   UNL     1       5.859  -3.719  24.144  0.00  0.00    +0.000 A 
ATOM     25  C   UNL     1       6.953  -4.607  24.285  0.00  0.00    +0.000 A 
ATOM     26  C   UNL     1       6.394  -5.368  25.395  0.00  0.00    +0.000 A 
ATOM     27  C   UNL     1       6.267  -5.615  26.763  0.00  0.00    +0.000 A 
ATOM     28  C   UNL     1       7.718  -5.242  27.020  0.00  0.00    +0.000 A 
ATOM     29  C   UNL     1       8.572  -4.584  26.213  0.00  0.00    +0.000 A 
ATOM     30  C   UNL     1       8.093  -3.839  25.034  0.00  0.00    +0.000 A 
ENDBRANCH  19  21
ENDBRANCH  17  19
ENDBRANCH   9  17
TORSDOF 4
ENDMDL
MODEL 2
REMARK VINA RESULT:      -8.3      0.693      1.763
REMARK  Name = 
REMARK  5 active torsions:
REMARK  status: ('A' for Active; 'I' for Inactive)
REMARK    1  A    between atoms: C_7  and  C_8
REMARK    2  A    between atoms: N_23  and  N_24
REMARK    3  A    between atoms: N_24  and  C_26
REMARK    4  A    between atoms: C_26  and  C_28
REMARK    5  A    between atoms: C_26  and  C_45
REMARK                            x       y       z     vdW  Elec       q    Type
REMARK                         _______ _______ _______ _____ _____    ______ ____
ROOT
ATOM      1  C   UNL     1       9.056   0.638  21.240  0.00  0.00    +0.000 C 
ATOM      2  C   UNL     1       7.858   0.213  20.756  0.00  0.00    +0.000 A 
ATOM      3  C   UNL     1       7.748   0.232  19.286  0.00  0.00    +0.000 A 
ATOM      4  C   UNL     1       6.519  -0.182  18.688  0.00  0.00    +0.000 A 
ATOM      5  C   UNL     1       5.755  -1.091  19.664  0.00  0.00    +0.000 A 
ATOM      6  C   UNL     1       6.167  -1.557  20.965  0.00  0.00    +0.000 A 
ATOM      7  C   UNL     1       7.625  -1.298  21.293  0.00  0.00    +0.000 A 
ATOM      8  C   UNL     1       8.568  -2.278  21.575  0.00  0.00    +0.000 C 
ATOM      9  N   UNL     1       9.545  -1.619  22.173  0.00  0.00    +0.000 N 
ATOM     10  C   UNL     1       9.897  -0.386  21.939  0.00  0.00    +0.000 C 
ENDROOT
BRANCH   1  14
ATOM     11  C   UNL     1       8.364   2.899  24.736  0.00  0.00    +0.000 A 
ATOM     12  C   UNL     1       9.715   2.448  24.208  0.00  0.00    +0.000 A 
ATOM     13  C   UNL     1      10.128   2.266  22.829  0.00  0.00    +0.000 A 
ATOM     14  C   UNL     1       8.844   1.921  21.958  0.00  0.00    +0.000 A 
ATOM     15  C   UNL     1       7.534   2.520  22.222  0.00  0.00    +0.000 A 
ATOM     16  C   UNL     1       7.285   2.677  23.760  0.00  0.00    +0.000 A 
ENDBRANCH   1  14
BRANCH   9  17
ATOM     17  N   UNL     1      10.007  -1.888  23.280  0.00  0.00    +0.000 N 
ATOM     18  H   UNL     1      10.696  -2.524  23.109  0.00  0.00    +0.000 HD
BRANCH  17  19
ATOM     19  C   UNL     1       9.098  -1.900  24.272  0.00  0.00    +0.000 C 
ATOM     20  C   UNL     1       9.210  -1.065  25.475  0.00  0.00    +0.000 C 
BRANCH  19  21
ATOM     21  C   UNL     1       8.362  -3.168  24.507  0.00  0.00    +0.000 A 
ATOM     22  C   UNL     1       9.302  -4.232  24.916  0.00  0.00    +0.000 A 
ATOM     23  C   UNL     1       9.344  -4.942  26.217  0.00  0.00    +0.000 A 
ATOM     24  C   UNL     1       7.997  -4.703  26.831  0.00  0.00    +0.000 A 
ATOM     25  C   UNL     1       6.806  -4.016  26.495  0.00  0.00    +0.000 A 
ATOM     26  C   UNL     1       6.056  -5.196  26.083  0.00  0.00    +0.000 A 
ATOM     27  C   UNL     1       5.603  -6.068  25.092  0.00  0.00    +0.000 A 
ATOM     28  C   UNL     1       5.455  -4.937  24.087  0.00  0.00    +0.000 A 
ATOM     29  C   UNL     1       5.961  -3.690  24.146  0.00  0.00    +0.000 A 
ATOM     30  C   UNL     1       7.029  -3.339  25.101  0.00  0.00    +0.000 A 
ENDBRANCH  19  21
ENDBRANCH  17  19
ENDBRANCH   9  17
TORSDOF 4
ENDMDL
MODEL 3
REMARK VINA RESULT:      -7.7      1.412      4.195
REMARK  Name = 
REMARK  5 active torsions:
REMARK  status: ('A' for Active; 'I' for Inactive)
REMARK    1  A    between atoms: C_7  and  C_8
REMARK    2  A    between atoms: N_23  and  N_24
REMARK    3  A    between atoms: N_24  and  C_26
REMARK    4  A    between atoms: C_26  and  C_28
REMARK    5  A    between atoms: C_26  and  C_45
REMARK                            x       y       z     vdW  Elec       q    Type
REMARK                         _______ _______ _______ _____ _____    ______ ____
ROOT
ATOM      1  C   UNL     1       7.340   0.341  22.096  0.00  0.00    +0.000 C 
ATOM      2  C   UNL     1       8.420   0.913  22.692  0.00  0.00    +0.000 A 
ATOM      3  C   UNL     1       8.094   1.897  23.741  0.00  0.00    +0.000 A 
ATOM      4  C   UNL     1       9.167   2.562  24.411  0.00  0.00    +0.000 A 
ATOM      5  C   UNL     1      10.444   1.715  24.297  0.00  0.00    +0.000 A 
ATOM      6  C   UNL     1      10.611   0.418  23.690  0.00  0.00    +0.000 A 
ATOM      7  C   UNL     1       9.312  -0.279  23.331  0.00  0.00    +0.000 A 
ATOM      8  C   UNL     1       8.894  -1.504  23.837  0.00  0.00    +0.000 C 
ATOM      9  N   UNL     1       7.961  -1.899  22.990  0.00  0.00    +0.000 N 
ATOM     10  C   UNL     1       7.147  -1.127  22.326  0.00  0.00    +0.000 C 
ENDROOT
BRANCH   1  14
ATOM     11  C   UNL     1       5.489   0.578  18.310  0.00  0.00    +0.000 A 
ATOM     12  C   UNL     1       5.226   1.485  19.500  0.00  0.00    +0.000 A 
ATOM     13  C   UNL     1       6.154   1.912  20.530  0.00  0.00    +0.000 A 
ATOM     14  C   UNL     1       7.282   0.803  20.685  0.00  0.00    +0.000 A 
ATOM     15  C   UNL     1       7.804   0.051  19.542  0.00  0.00    +0.000 A 
ATOM     16  C   UNL     1       6.667  -0.281  18.517  0.00  0.00    +0.000 A 
ENDBRANCH   1  14
BRANCH   9  17
ATOM     17  N   UNL     1       7.958  -2.972  22.390  0.00  0.00    +0.000 N 
ATOM     18  H   UNL     1       8.327  -2.774  21.535  0.00  0.00    +0.000 HD
BRANCH  17  19
ATOM     19  C   UNL     1       6.910  -3.764  22.676  0.00  0.00    +0.000 C 
ATOM     20  C   UNL     1       5.551  -3.512  22.178  0.00  0.00    +0.000 C 
BRANCH  19  21
ATOM     21  C   UNL     1       6.931  -4.481  23.976  0.00  0.00    +0.000 A 
ATOM     22  C   UNL     1       8.220  -5.184  24.146  0.00  0.00    +0.000 A 
ATOM     23  C   UNL     1       9.255  -4.926  25.176  0.00  0.00    +0.000 A 
ATOM     24  C   UNL     1       8.546  -4.158  26.252  0.00  0.00    +0.000 A 
ATOM     25  C   UNL     1       7.242  -3.662  26.491  0.00  0.00    +0.000 A 
ATOM     26  C   UNL     1       6.843  -4.713  27.418  0.00  0.00    +0.000 A 
ATOM     27  C   UNL     1       6.217  -5.932  27.684  0.00  0.00    +0.000 A 
ATOM     28  C   UNL     1       5.139  -5.667  26.647  0.00  0.00    +0.000 A 
ATOM     29  C   UNL     1       5.127  -4.748  25.662  0.00  0.00    +0.000 A 
ATOM     30  C   UNL     1       6.358  -4.043  25.257  0.00  0.00    +0.000 A 
ENDBRANCH  19  21
ENDBRANCH  17  19
ENDBRANCH   9  17
TORSDOF 4
ENDMDL
MODEL 4
REMARK VINA RESULT:      -7.7      1.507      6.229
REMARK  Name = 
REMARK  5 active torsions:
REMARK  status: ('A' for Active; 'I' for Inactive)
REMARK    1  A    between atoms: C_7  and  C_8
REMARK    2  A    between atoms: N_23  and  N_24
REMARK    3  A    between atoms: N_24  and  C_26
REMARK    4  A    between atoms: C_26  and  C_28
REMARK    5  A    between atoms: C_26  and  C_45
REMARK                            x       y       z     vdW  Elec       q    Type
REMARK                         _______ _______ _______ _____ _____    ______ ____
ROOT
ATOM      1  C   UNL     1       6.315  -2.404  24.185  0.00  0.00    +0.000 C 
ATOM      2  C   UNL     1       5.804  -3.609  23.815  0.00  0.00    +0.000 A 
ATOM      3  C   UNL     1       4.386  -3.809  24.166  0.00  0.00    +0.000 A 
ATOM      4  C   UNL     1       3.767  -5.052  23.829  0.00  0.00    +0.000 A 
ATOM      5  C   UNL     1       4.540  -5.712  22.677  0.00  0.00    +0.000 A 
ATOM      6  C   UNL     1       5.674  -5.202  21.947  0.00  0.00    +0.000 A 
ATOM      7  C   UNL     1       5.983  -3.740  22.209  0.00  0.00    +0.000 A 
ATOM      8  C   UNL     1       5.982  -2.737  21.248  0.00  0.00    +0.000 C 
ATOM      9  N   UNL     1       6.669  -1.757  21.807  0.00  0.00    +0.000 N 
ATOM     10  C   UNL     1       6.713  -1.476  23.079  0.00  0.00    +0.000 C 
ENDROOT
BRANCH   1  14
ATOM     11  C   UNL     1       9.152  -4.787  26.208  0.00  0.00    +0.000 A 
ATOM     12  C   UNL     1       9.409  -3.925  24.984  0.00  0.00    +0.000 A 
ATOM     13  C   UNL     1       8.778  -2.670  24.617  0.00  0.00    +0.000 A 
ATOM     14  C   UNL     1       7.322  -2.631  25.254  0.00  0.00    +0.000 A 
ATOM     15  C   UNL     1       7.027  -3.204  26.568  0.00  0.00    +0.000 A 
ATOM     16  C   UNL     1       7.830  -4.528  26.801  0.00  0.00    +0.000 A 
ENDBRANCH   1  14
BRANCH   9  17
ATOM     17  N   UNL     1       7.659  -1.217  21.317  0.00  0.00    +0.000 N 
ATOM     18  H   UNL     1       8.383  -1.482  21.876  0.00  0.00    +0.000 HD
BRANCH  17  19
ATOM     19  C   UNL     1       7.424  -0.003  20.788  0.00  0.00    +0.000 C 
ATOM     20  C   UNL     1       7.340   0.242  19.342  0.00  0.00    +0.000 C 
BRANCH  19  21
ATOM     21  C   UNL     1       7.896   1.177  21.553  0.00  0.00    +0.000 A 
ATOM     22  C   UNL     1       6.793   2.147  21.722  0.00  0.00    +0.000 A 
ATOM     23  C   UNL     1       6.158   2.573  22.993  0.00  0.00    +0.000 A 
ATOM     24  C   UNL     1       7.139   2.193  24.062  0.00  0.00    +0.000 A 
ATOM     25  C   UNL     1       8.410   1.573  24.137  0.00  0.00    +0.000 A 
ATOM     26  C   UNL     1       9.171   2.802  24.319  0.00  0.00    +0.000 A 
ATOM     27  C   UNL     1       9.930   3.854  23.804  0.00  0.00    +0.000 A 
ATOM     28  C   UNL     1      10.569   2.954  22.759  0.00  0.00    +0.000 A 
ATOM     29  C   UNL     1      10.181   1.729  22.355  0.00  0.00    +0.000 A 
ATOM     30  C   UNL     1       8.842   1.203  22.678  0.00  0.00    +0.000 A 
ENDBRANCH  19  21
ENDBRANCH  17  19
ENDBRANCH   9  17
TORSDOF 4
ENDMDL
MODEL 5
REMARK VINA RESULT:      -7.5      1.149      2.331
REMARK  Name = 
REMARK  5 active torsions:
REMARK  status: ('A' for Active; 'I' for Inactive)
REMARK    1  A    between atoms: C_7  and  C_8
REMARK    2  A    between atoms: N_23  and  N_24
REMARK    3  A    between atoms: N_24  and  C_26
REMARK    4  A    between atoms: C_26  and  C_28
REMARK    5  A    between atoms: C_26  and  C_45
REMARK                            x       y       z     vdW  Elec       q    Type
REMARK                         _______ _______ _______ _____ _____    ______ ____
ROOT
ATOM      1  C   UNL     1       9.146   0.210  22.601  0.00  0.00    +0.000 C 
ATOM      2  C   UNL     1       8.080  -0.010  21.786  0.00  0.00    +0.000 A 
ATOM      3  C   UNL     1       8.312   0.323  20.368  0.00  0.00    +0.000 A 
ATOM      4  C   UNL     1       7.242   0.138  19.440  0.00  0.00    +0.000 A 
ATOM      5  C   UNL     1       6.249  -0.891  20.001  0.00  0.00    +0.000 A 
ATOM      6  C   UNL     1       6.337  -1.649  21.225  0.00  0.00    +0.000 A 
ATOM      7  C   UNL     1       7.687  -1.577  21.913  0.00  0.00    +0.000 A 
ATOM      8  C   UNL     1       8.512  -2.664  22.171  0.00  0.00    +0.000 C 
ATOM      9  N   UNL     1       9.343  -2.222  23.097  0.00  0.00    +0.000 N 
ATOM     10  C   UNL     1       9.775  -0.998  23.224  0.00  0.00    +0.000 C 
ENDROOT
BRANCH   1  14
ATOM     11  C   UNL     1       8.368   4.278  23.415  0.00  0.00    +0.000 A 
ATOM     12  C   UNL     1       7.358   3.243  22.952  0.00  0.00    +0.000 A 
ATOM     13  C   UNL     1       7.326   1.822  23.244  0.00  0.00    +0.000 A 
ATOM     14  C   UNL     1       8.812   1.329  23.520  0.00  0.00    +0.000 A 
ATOM     15  C   UNL     1       9.798   2.162  24.210  0.00  0.00    +0.000 A 
ATOM     16  C   UNL     1       9.650   3.667  23.803  0.00  0.00    +0.000 A 
ENDBRANCH   1  14
BRANCH   9  17
ATOM     17  N   UNL     1       9.530  -2.751  24.192  0.00  0.00    +0.000 N 
ATOM     18  H   UNL     1      10.149  -3.455  24.020  0.00  0.00    +0.000 HD
BRANCH  17  19
ATOM     19  C   UNL     1       8.446  -2.779  24.986  0.00  0.00    +0.000 C 
ATOM     20  C   UNL     1       8.352  -2.028  26.246  0.00  0.00    +0.000 C 
BRANCH  19  21
ATOM     21  C   UNL     1       7.630  -4.019  24.984  0.00  0.00    +0.000 A 
ATOM     22  C   UNL     1       8.149  -4.970  25.989  0.00  0.00    +0.000 A 
ATOM     23  C   UNL     1       7.453  -5.463  27.203  0.00  0.00    +0.000 A 
ATOM     24  C   UNL     1       6.001  -5.179  26.957  0.00  0.00    +0.000 A 
ATOM     25  C   UNL     1       5.211  -4.598  25.936  0.00  0.00    +0.000 A 
ATOM     26  C   UNL     1       4.734  -5.856  25.374  0.00  0.00    +0.000 A 
ATOM     27  C   UNL     1       4.832  -6.890  24.442  0.00  0.00    +0.000 A 
ATOM     28  C   UNL     1       5.303  -5.939  23.355  0.00  0.00    +0.000 A 
ATOM     29  C   UNL     1       5.766  -4.680  23.481  0.00  0.00    +0.000 A 
ATOM     30  C   UNL     1       6.178  -4.144  24.792  0.00  0.00    +0.000 A 
ENDBRANCH  19  21
ENDBRANCH  17  19
ENDBRANCH   9  17
TORSDOF 4
ENDMDL
MODEL 6
REMARK VINA RESULT:      -7.3      1.509      6.746
REMARK  Name = 
REMARK  5 active torsions:
REMARK  status: ('A' for Active; 'I' for Inactive)
REMARK    1  A    between atoms: C_7  and  C_8
REMARK    2  A    between atoms: N_23  and  N_24
REMARK    3  A    between atoms: N_24  and  C_26
REMARK    4  A    between atoms: C_26  and  C_28
REMARK    5  A    between atoms: C_26  and  C_45
REMARK                            x       y       z     vdW  Elec       q    Type
REMARK                         _______ _______ _______ _____ _____    ______ ____
ROOT
ATOM      1  C   UNL     1       8.342  -3.203  22.853  0.00  0.00    +0.000 C 
ATOM      2  C   UNL     1       8.222  -2.910  24.175  0.00  0.00    +0.000 A 
ATOM      3  C   UNL     1       8.792  -3.923  25.083  0.00  0.00    +0.000 A 
ATOM      4  C   UNL     1       8.698  -3.707  26.492  0.00  0.00    +0.000 A 
ATOM      5  C   UNL     1       8.524  -2.207  26.770  0.00  0.00    +0.000 A 
ATOM      6  C   UNL     1       8.513  -1.114  25.828  0.00  0.00    +0.000 A 
ATOM      7  C   UNL     1       8.959  -1.488  24.427  0.00  0.00    +0.000 A 
ATOM      8  C   UNL     1      10.048  -0.942  23.761  0.00  0.00    +0.000 C 
ATOM      9  N   UNL     1       9.831  -1.239  22.493  0.00  0.00    +0.000 N 
ATOM     10  C   UNL     1       9.227  -2.304  22.045  0.00  0.00    +0.000 C 
ENDROOT
BRANCH   1  14
ATOM     11  C   UNL     1       4.386  -4.640  23.180  0.00  0.00    +0.000 A 
ATOM     12  C   UNL     1       4.879  -3.260  23.579  0.00  0.00    +0.000 A 
ATOM     13  C   UNL     1       5.938  -2.472  22.977  0.00  0.00    +0.000 A 
ATOM     14  C   UNL     1       6.985  -3.462  22.305  0.00  0.00    +0.000 A 
ATOM     15  C   UNL     1       6.577  -4.704  21.647  0.00  0.00    +0.000 A 
ATOM     16  C   UNL     1       5.396  -5.389  22.415  0.00  0.00    +0.000 A 
ENDBRANCH   1  14
BRANCH   9  17
ATOM     17  N   UNL     1       9.788  -0.426  21.572  0.00  0.00    +0.000 N 
ATOM     18  H   UNL     1      10.693  -0.154  21.445  0.00  0.00    +0.000 HD
BRANCH  17  19
ATOM     19  C   UNL     1       8.685   0.343  21.561  0.00  0.00    +0.000 C 
ATOM     20  C   UNL     1       7.605   0.187  20.578  0.00  0.00    +0.000 C 
BRANCH  19  21
ATOM     21  C   UNL     1       8.816   1.732  22.069  0.00  0.00    +0.000 A 
ATOM     22  C   UNL     1       7.691   2.557  21.583  0.00  0.00    +0.000 A 
ATOM     23  C   UNL     1       6.635   3.206  22.399  0.00  0.00    +0.000 A 
ATOM     24  C   UNL     1       7.192   3.245  23.791  0.00  0.00    +0.000 A 
ATOM     25  C   UNL     1       8.377   2.839  24.451  0.00  0.00    +0.000 A 
ATOM     26  C   UNL     1       8.982   4.163  24.513  0.00  0.00    +0.000 A 
ATOM     27  C   UNL     1       9.835   5.139  23.996  0.00  0.00    +0.000 A 
ATOM     28  C   UNL     1      10.832   4.095  23.521  0.00  0.00    +0.000 A 
ATOM     29  C   UNL     1      10.654   2.767  23.380  0.00  0.00    +0.000 A 
ATOM     30  C   UNL     1       9.306   2.169  23.384  0.00  0.00    +0.000 A 
ENDBRANCH  19  21
ENDBRANCH  17  19
ENDBRANCH   9  17
TORSDOF 4
ENDMDL
MODEL 7
REMARK VINA RESULT:      -7.3      1.841      6.506
REMARK  Name = 
REMARK  5 active torsions:
REMARK  status: ('A' for Active; 'I' for Inactive)
REMARK    1  A    between atoms: C_7  and  C_8
REMARK    2  A    between atoms: N_23  and  N_24
REMARK    3  A    between atoms: N_24  and  C_26
REMARK    4  A    between atoms: C_26  and  C_28
REMARK    5  A    between atoms: C_26  and  C_45
REMARK                            x       y       z     vdW  Elec       q    Type
REMARK                         _______ _______ _______ _____ _____    ______ ____
ROOT
ATOM      1  C   UNL     1       7.549  -4.087  24.898  0.00  0.00    +0.000 C 
ATOM      2  C   UNL     1       6.242  -3.770  25.097  0.00  0.00    +0.000 A 
ATOM      3  C   UNL     1       5.512  -4.700  25.977  0.00  0.00    +0.000 A 
ATOM      4  C   UNL     1       4.127  -4.455  26.231  0.00  0.00    +0.000 A 
ATOM      5  C   UNL     1       3.817  -2.970  25.991  0.00  0.00    +0.000 A 
ATOM      6  C   UNL     1       4.727  -1.910  25.632  0.00  0.00    +0.000 A 
ATOM      7  C   UNL     1       6.195  -2.280  25.734  0.00  0.00    +0.000 A 
ATOM      8  C   UNL     1       7.123  -1.654  26.556  0.00  0.00    +0.000 C 
ATOM      9  N   UNL     1       8.290  -2.005  26.047  0.00  0.00    +0.000 N 
ATOM     10  C   UNL     1       8.563  -3.133  25.453  0.00  0.00    +0.000 C 
ENDROOT
BRANCH   1  14
ATOM     11  C   UNL     1       6.058  -5.327  21.149  0.00  0.00    +0.000 A 
ATOM     12  C   UNL     1       6.183  -3.895  21.640  0.00  0.00    +0.000 A 
ATOM     13  C   UNL     1       7.182  -3.331  22.527  0.00  0.00    +0.000 A 
ATOM     14  C   UNL     1       7.724  -4.484  23.477  0.00  0.00    +0.000 A 
ATOM     15  C   UNL     1       7.899  -5.862  23.014  0.00  0.00    +0.000 A 
ATOM     16  C   UNL     1       6.751  -6.278  22.033  0.00  0.00    +0.000 A 
ENDBRANCH   1  14
BRANCH   9  17
ATOM     17  N   UNL     1       9.170  -1.225  25.690  0.00  0.00    +0.000 N 
ATOM     18  H   UNL     1       9.223  -0.580  26.389  0.00  0.00    +0.000 HD
BRANCH  17  19
ATOM     19  C   UNL     1       9.217  -1.011  24.363  0.00  0.00    +0.000 C 
ATOM     20  C   UNL     1      10.297  -1.516  23.504  0.00  0.00    +0.000 C 
BRANCH  19  21
ATOM     21  C   UNL     1       8.600   0.238  23.851  0.00  0.00    +0.000 A 
ATOM     22  C   UNL     1       9.647   1.153  23.352  0.00  0.00    +0.000 A 
ATOM     23  C   UNL     1       9.843   1.620  21.957  0.00  0.00    +0.000 A 
ATOM     24  C   UNL     1       8.533   1.360  21.275  0.00  0.00    +0.000 A 
ATOM     25  C   UNL     1       7.270   0.817  21.617  0.00  0.00    +0.000 A 
ATOM     26  C   UNL     1       6.583   2.095  21.754  0.00  0.00    +0.000 A 
ATOM     27  C   UNL     1       6.123   3.154  22.538  0.00  0.00    +0.000 A 
ATOM     28  C   UNL     1       5.813   2.229  23.703  0.00  0.00    +0.000 A 
ATOM     29  C   UNL     1       6.225   0.962  23.903  0.00  0.00    +0.000 A 
ATOM     30  C   UNL     1       7.333   0.384  23.120  0.00  0.00    +0.000 A 
ENDBRANCH  19  21
ENDBRANCH  17  19
ENDBRANCH   9  17
TORSDOF 4
ENDMDL
MODEL 8
REMARK VINA RESULT:      -7.3      1.698      5.968
REMARK  Name = 
REMARK  5 active torsions:
REMARK  status: ('A' for Active; 'I' for Inactive)
REMARK    1  A    between atoms: C_7  and  C_8
REMARK    2  A    between atoms: N_23  and  N_24
REMARK    3  A    between atoms: N_24  and  C_26
REMARK    4  A    between atoms: C_26  and  C_28
REMARK    5  A    between atoms: C_26  and  C_45
REMARK                            x       y       z     vdW  Elec       q    Type
REMARK                         _______ _______ _______ _____ _____    ______ ____
ROOT
ATOM      1  C   UNL     1       8.455  -2.090  24.103  0.00  0.00    +0.000 C 
ATOM      2  C   UNL     1       7.207  -2.170  24.637  0.00  0.00    +0.000 A 
ATOM      3  C   UNL     1       6.874  -3.480  25.227  0.00  0.00    +0.000 A 
ATOM      4  C   UNL     1       5.577  -3.662  25.798  0.00  0.00    +0.000 A 
ATOM      5  C   UNL     1       4.990  -2.295  26.183  0.00  0.00    +0.000 A 
ATOM      6  C   UNL     1       5.604  -0.994  26.082  0.00  0.00    +0.000 A 
ATOM      7  C   UNL     1       7.089  -1.022  25.775  0.00  0.00    +0.000 A 
ATOM      8  C   UNL     1       8.085  -0.497  26.589  0.00  0.00    +0.000 C 
ATOM      9  N   UNL     1       9.127  -0.381  25.786  0.00  0.00    +0.000 N 
ATOM     10  C   UNL     1       9.414  -1.158  24.779  0.00  0.00    +0.000 C 
ENDROOT
BRANCH   1  14
ATOM     11  C   UNL     1       8.260   0.198  20.561  0.00  0.00    +0.000 A 
ATOM     12  C   UNL     1       9.523  -0.288  21.251  0.00  0.00    +0.000 A 
ATOM     13  C   UNL     1       9.722  -1.509  22.009  0.00  0.00    +0.000 A 
ATOM     14  C   UNL     1       8.327  -1.952  22.629  0.00  0.00    +0.000 A 
ATOM     15  C   UNL     1       7.061  -1.770  21.917  0.00  0.00    +0.000 A 
ATOM     16  C   UNL     1       7.048  -0.421  21.122  0.00  0.00    +0.000 A 
ENDBRANCH   1  14
BRANCH   9  17
ATOM     17  N   UNL     1       9.757   0.657  25.589  0.00  0.00    +0.000 N 
ATOM     18  H   UNL     1       9.869   1.042  26.453  0.00  0.00    +0.000 HD
BRANCH  17  19
ATOM     19  C   UNL     1       9.451   1.282  24.438  0.00  0.00    +0.000 C 
ATOM     20  C   UNL     1      10.457   1.665  23.439  0.00  0.00    +0.000 C 
BRANCH  19  21
ATOM     21  C   UNL     1       8.262   2.170  24.441  0.00  0.00    +0.000 A 
ATOM     22  C   UNL     1       8.617   3.492  24.998  0.00  0.00    +0.000 A 
ATOM     23  C   UNL     1       8.602   4.797  24.295  0.00  0.00    +0.000 A 
ATOM     24  C   UNL     1       7.735   4.578  23.091  0.00  0.00    +0.000 A 
ATOM     25  C   UNL     1       7.000   3.512  22.517  0.00  0.00    +0.000 A 
ATOM     26  C   UNL     1       5.693   3.957  22.983  0.00  0.00    +0.000 A 
ATOM     27  C   UNL     1       4.651   3.917  23.912  0.00  0.00    +0.000 A 
ATOM     28  C   UNL     1       4.855   2.432  24.159  0.00  0.00    +0.000 A 
ATOM     29  C   UNL     1       5.909   1.661  23.829  0.00  0.00    +0.000 A 
ATOM     30  C   UNL     1       7.198   2.256  23.430  0.00  0.00    +0.000 A 
ENDBRANCH  19  21
ENDBRANCH  17  19
ENDBRANCH   9  17
TORSDOF 4
ENDMDL
MODEL 9
REMARK VINA RESULT:      -7.2      2.082      6.781
REMARK  Name = 
REMARK  5 active torsions:
REMARK  status: ('A' for Active; 'I' for Inactive)
REMARK    1  A    between atoms: C_7  and  C_8
REMARK    2  A    between atoms: N_23  and  N_24
REMARK    3  A    between atoms: N_24  and  C_26
REMARK    4  A    between atoms: C_26  and  C_28
REMARK    5  A    between atoms: C_26  and  C_45
REMARK                            x       y       z     vdW  Elec       q    Type
REMARK                         _______ _______ _______ _____ _____    ______ ____
ROOT
ATOM      1  C   UNL     1       4.719  -3.836  24.716  0.00  0.00    +0.000 C 
ATOM      2  C   UNL     1       5.527  -4.663  24.000  0.00  0.00    +0.000 A 
ATOM      3  C   UNL     1       4.882  -5.291  22.832  0.00  0.00    +0.000 A 
ATOM      4  C   UNL     1       5.651  -6.189  22.029  0.00  0.00    +0.000 A 
ATOM      5  C   UNL     1       7.146  -5.890  22.214  0.00  0.00    +0.000 A 
ATOM      6  C   UNL     1       7.763  -4.848  22.998  0.00  0.00    +0.000 A 
ATOM      7  C   UNL     1       6.801  -3.791  23.507  0.00  0.00    +0.000 A 
ATOM      8  C   UNL     1       6.865  -2.437  23.203  0.00  0.00    +0.000 C 
ATOM      9  N   UNL     1       6.126  -1.864  24.136  0.00  0.00    +0.000 N 
ATOM     10  C   UNL     1       5.077  -2.381  24.712  0.00  0.00    +0.000 C 
ENDROOT
BRANCH   1  14
ATOM     11  C   UNL     1       5.820  -6.317  27.948  0.00  0.00    +0.000 A 
ATOM     12  C   UNL     1       6.206  -4.860  27.759  0.00  0.00    +0.000 A 
ATOM     13  C   UNL     1       5.443  -3.801  27.124  0.00  0.00    +0.000 A 
ATOM     14  C   UNL     1       4.475  -4.453  26.045  0.00  0.00    +0.000 A 
ATOM     15  C   UNL     1       3.830  -5.750  26.255  0.00  0.00    +0.000 A 
ATOM     16  C   UNL     1       4.789  -6.746  26.990  0.00  0.00    +0.000 A 
ENDBRANCH   1  14
BRANCH   9  17
ATOM     17  N   UNL     1       6.504  -0.967  24.886  0.00  0.00    +0.000 N 
ATOM     18  H   UNL     1       6.044  -0.188  24.586  0.00  0.00    +0.000 HD
BRANCH  17  19
ATOM     19  C   UNL     1       7.787  -1.071  25.274  0.00  0.00    +0.000 C 
ATOM     20  C   UNL     1       8.188  -1.448  26.636  0.00  0.00    +0.000 C 
BRANCH  19  21
ATOM     21  C   UNL     1       8.778  -0.200  24.594  0.00  0.00    +0.000 A 
ATOM     22  C   UNL     1       9.952  -0.997  24.179  0.00  0.00    +0.000 A 
ATOM     23  C   UNL     1      10.417  -1.257  22.795  0.00  0.00    +0.000 A 
ATOM     24  C   UNL     1       9.757  -0.200  21.960  0.00  0.00    +0.000 A 
ATOM     25  C   UNL     1       8.869   0.884  22.163  0.00  0.00    +0.000 A 
ATOM     26  C   UNL     1       9.885   1.928  22.112  0.00  0.00    +0.000 A 
ATOM     27  C   UNL     1      10.778   2.792  22.747  0.00  0.00    +0.000 A 
ATOM     28  C   UNL     1       9.835   2.991  23.922  0.00  0.00    +0.000 A 
ATOM     29  C   UNL     1       8.756   2.261  24.267  0.00  0.00    +0.000 A 
ATOM     30  C   UNL     1       8.517   0.927  23.687  0.00  0.00    +0.000 A 
ENDBRANCH  19  21
ENDBRANCH  17  19
ENDBRANCH   9  17
TORSDOF 4
ENDMDL
