MODEL 1
REMARK VINA RESULT:      -8.8      0.000      0.000
REMARK  Name = 
REMARK  8 active torsions:
REMARK  status: ('A' for Active; 'I' for Inactive)
REMARK    1  A    between atoms: C_5  and  C_6
REMARK    2  A    between atoms: C_14  and  C_15
REMARK    3  A    between atoms: C_25  and  C_27
REMARK    4  A    between atoms: C_27  and  N_30
REMARK    5  A    between atoms: N_37  and  S_38
REMARK    6  A    between atoms: S_38  and  C_41
REMARK    7  A    between atoms: C_44  and  C_45
REMARK    8  A    between atoms: C_53  and  C_54
REMARK                            x       y       z     vdW  Elec       q    Type
REMARK                         _______ _______ _______ _____ _____    ______ ____
ROOT
ATOM      1  C   UNL     1       8.481  -2.112  26.302  0.00  0.00    +0.000 C 
ENDROOT
BRANCH   1   8
ATOM      2  C   UNL     1       8.807  -0.292  21.891  0.00  0.00    +0.000 C 
ATOM      3  O   UNL     1       9.395  -1.321  21.727  0.00  0.00    +0.000 OA
ATOM      4  N   UNL     1       8.940   0.454  23.015  0.00  0.00    +0.000 N 
ATOM      5  C   UNL     1       7.807   0.573  23.896  0.00  0.00    +0.000 C 
ATOM      6  C   UNL     1       8.292   0.778  25.348  0.00  0.00    +0.000 C 
ATOM      7  N   UNL     1       9.515  -0.061  25.451  0.00  0.00    +0.000 N 
ATOM      8  C   UNL     1       9.314  -1.395  25.230  0.00  0.00    +0.000 C 
ATOM      9  O   UNL     1       9.510  -1.884  24.154  0.00  0.00    +0.000 OA
ATOM     10  C   UNL     1      10.674   0.533  24.756  0.00  0.00    +0.000 C 
ATOM     11  C   UNL     1      10.241   0.973  23.372  0.00  0.00    +0.000 C 
BRANCH   2  18
ATOM     12  C   UNL     1       8.163  -0.218  19.562  0.00  0.00    +0.000 A 
ATOM     13  C   UNL     1       6.713  -0.226  19.071  0.00  0.00    +0.000 A 
ATOM     14  C   UNL     1       5.635   0.745  19.433  0.00  0.00    +0.000 A 
ATOM     15  C   UNL     1       5.270   1.476  18.269  0.00  0.00    +0.000 C 
ATOM     16  C   UNL     1       6.200   1.608  20.480  0.00  0.00    +0.000 A 
ATOM     17  C   UNL     1       7.355   1.633  21.313  0.00  0.00    +0.000 A 
ATOM     18  C   UNL     1       8.295   0.528  20.825  0.00  0.00    +0.000 A 
ENDBRANCH   2  18
ENDBRANCH   1   8
BRANCH   1  19
ATOM     19  N   UNL     1       8.115  -3.351  25.952  0.00  0.00    +0.000 NA
ATOM     20  C   UNL     1       8.942  -4.406  26.320  0.00  0.00    +0.000 C 
ATOM     21  C   UNL     1       8.040  -5.521  26.949  0.00  0.00    +0.000 C 
ATOM     22  N   UNL     1       6.948  -5.754  26.198  0.00  0.00    +0.000 NA
ATOM     23  C   UNL     1       6.827  -5.133  24.961  0.00  0.00    +0.000 C 
ATOM     24  C   UNL     1       7.194  -3.636  24.975  0.00  0.00    +0.000 C 
BRANCH  22  25
ATOM     25  S   UNL     1       5.488  -5.996  26.947  0.00  0.00    +0.000 S 
ATOM     26  O   UNL     1       5.363  -4.654  27.746  0.00  0.00    +0.000 OA
ATOM     27  O   UNL     1       5.565  -6.997  27.928  0.00  0.00    +0.000 OA
BRANCH  25  28
ATOM     28  C   UNL     1       4.237  -5.819  25.862  0.00  0.00    +0.000 A 
ATOM     29  C   UNL     1       3.857  -7.207  25.434  0.00  0.00    +0.000 A 
ATOM     30  C   UNL     1       2.488  -7.800  25.398  0.00  0.00    +0.000 A 
ATOM     31  C   UNL     1       2.171  -7.919  23.899  0.00  0.00    +0.000 C 
ATOM     32  C   UNL     1       1.614  -6.741  25.947  0.00  0.00    +0.000 A 
ATOM     33  C   UNL     1       1.655  -5.431  26.446  0.00  0.00    +0.000 A 
ATOM     34  C   UNL     1       3.099  -4.919  26.026  0.00  0.00    +0.000 A 
ATOM     35  C   UNL     1       2.927  -3.771  25.002  0.00  0.00    +0.000 C 
ENDBRANCH  25  28
ENDBRANCH  22  25
ENDBRANCH   1  19
TORSDOF 5
ENDMDL
MODEL 2
REMARK VINA RESULT:      -8.6      3.379      9.134
REMARK  Name = 
REMARK  8 active torsions:
REMARK  status: ('A' for Active; 'I' for Inactive)
REMARK    1  A    between atoms: C_5  and  C_6
REMARK    2  A    between atoms: C_14  and  C_15
REMARK    3  A    between atoms: C_25  and  C_27
REMARK    4  A    between atoms: C_27  and  N_30
REMARK    5  A    between atoms: N_37  and  S_38
REMARK    6  A    between atoms: S_38  and  C_41
REMARK    7  A    between atoms: C_44  and  C_45
REMARK    8  A    between atoms: C_53  and  C_54
REMARK                            x       y       z     vdW  Elec       q    Type
REMARK                         _______ _______ _______ _____ _____    ______ ____
ROOT
ATOM      1  C   UNL     1       8.326  -2.153  22.071  0.00  0.00    +0.000 C 
ENDROOT
BRANCH   1   8
ATOM      2  C   UNL     1       6.304  -4.797  25.506  0.00  0.00    +0.000 C 
ATOM      3  O   UNL     1       7.452  -5.080  25.685  0.00  0.00    +0.000 OA
ATOM      4  N   UNL     1       5.772  -4.654  24.267  0.00  0.00    +0.000 N 
ATOM      5  C   UNL     1       5.348  -3.342  23.852  0.00  0.00    +0.000 C 
ATOM      6  C   UNL     1       5.477  -3.211  22.318  0.00  0.00    +0.000 C 
ATOM      7  N   UNL     1       6.702  -3.985  21.983  0.00  0.00    +0.000 N 
ATOM      8  C   UNL     1       7.847  -3.524  22.570  0.00  0.00    +0.000 C 
ATOM      9  O   UNL     1       8.263  -4.004  23.586  0.00  0.00    +0.000 OA
ATOM     10  C   UNL     1       6.492  -5.444  22.054  0.00  0.00    +0.000 C 
ATOM     11  C   UNL     1       5.788  -5.775  23.354  0.00  0.00    +0.000 C 
BRANCH   2  18
ATOM     12  C   UNL     1       5.001  -6.471  26.665  0.00  0.00    +0.000 A 
ATOM     13  C   UNL     1       5.220  -6.868  28.128  0.00  0.00    +0.000 A 
ATOM     14  C   UNL     1       5.182  -5.966  29.320  0.00  0.00    +0.000 A 
ATOM     15  C   UNL     1       4.075  -6.334  30.134  0.00  0.00    +0.000 C 
ATOM     16  C   UNL     1       5.057  -4.600  28.793  0.00  0.00    +0.000 A 
ATOM     17  C   UNL     1       5.153  -3.947  27.530  0.00  0.00    +0.000 A 
ATOM     18  C   UNL     1       5.252  -5.035  26.459  0.00  0.00    +0.000 A 
ENDBRANCH   2  18
ENDBRANCH   1   8
BRANCH   1  19
ATOM     19  N   UNL     1       8.649  -1.310  23.060  0.00  0.00    +0.000 NA
ATOM     20  C   UNL     1       9.871  -1.490  23.699  0.00  0.00    +0.000 C 
ATOM     21  C   UNL     1      10.572  -0.092  23.786  0.00  0.00    +0.000 C 
ATOM     22  N   UNL     1       9.723   0.860  24.215  0.00  0.00    +0.000 NA
ATOM     23  C   UNL     1       8.453   0.496  24.645  0.00  0.00    +0.000 C 
ATOM     24  C   UNL     1       7.747  -0.517  23.722  0.00  0.00    +0.000 C 
BRANCH  22  25
ATOM     25  S   UNL     1       9.761   2.358  23.503  0.00  0.00    +0.000 S 
ATOM     26  O   UNL     1       9.639   1.949  21.996  0.00  0.00    +0.000 OA
ATOM     27  O   UNL     1      11.026   2.957  23.616  0.00  0.00    +0.000 OA
BRANCH  25  28
ATOM     28  C   UNL     1       8.311   3.147  23.721  0.00  0.00    +0.000 A 
ATOM     29  C   UNL     1       8.556   4.185  24.778  0.00  0.00    +0.000 A 
ATOM     30  C   UNL     1       8.200   5.633  24.723  0.00  0.00    +0.000 A 
ATOM     31  C   UNL     1       7.047   5.774  25.730  0.00  0.00    +0.000 C 
ATOM     32  C   UNL     1       7.627   5.821  23.373  0.00  0.00    +0.000 A 
ATOM     33  C   UNL     1       7.315   5.113  22.204  0.00  0.00    +0.000 A 
ATOM     34  C   UNL     1       7.424   3.591  22.650  0.00  0.00    +0.000 A 
ATOM     35  C   UNL     1       6.014   2.960  22.566  0.00  0.00    +0.000 C 
ENDBRANCH  25  28
ENDBRANCH  22  25
ENDBRANCH   1  19
TORSDOF 5
ENDMDL
MODEL 3
REMARK VINA RESULT:      -8.5      3.326      5.999
REMARK  Name = 
REMARK  8 active torsions:
REMARK  status: ('A' for Active; 'I' for Inactive)
REMARK    1  A    between atoms: C_5  and  C_6
REMARK    2  A    between atoms: C_14  and  C_15
REMARK    3  A    between atoms: C_25  and  C_27
REMARK    4  A    between atoms: C_27  and  N_30
REMARK    5  A    between atoms: N_37  and  S_38
REMARK    6  A    between atoms: S_38  and  C_41
REMARK    7  A    between atoms: C_44  and  C_45
REMARK    8  A    between atoms: C_53  and  C_54
REMARK                            x       y       z     vdW  Elec       q    Type
REMARK                         _______ _______ _______ _____ _____    ______ ____
ROOT
ATOM      1  C   UNL     1       9.380   1.333  21.738  0.00  0.00    +0.000 C 
ENDROOT
BRANCH   1   8
ATOM      2  C   UNL     1       6.291   1.941  25.338  0.00  0.00    +0.000 C 
ATOM      3  O   UNL     1       5.758   1.034  24.769  0.00  0.00    +0.000 OA
ATOM      4  N   UNL     1       6.880   2.971  24.681  0.00  0.00    +0.000 N 
ATOM      5  C   UNL     1       8.311   3.106  24.765  0.00  0.00    +0.000 C 
ATOM      6  C   UNL     1       8.849   3.777  23.481  0.00  0.00    +0.000 C 
ATOM      7  N   UNL     1       7.989   3.239  22.395  0.00  0.00    +0.000 N 
ATOM      8  C   UNL     1       8.039   1.881  22.246  0.00  0.00    +0.000 C 
ATOM      9  O   UNL     1       7.218   1.169  22.751  0.00  0.00    +0.000 OA
ATOM     10  C   UNL     1       6.637   3.831  22.392  0.00  0.00    +0.000 C 
ATOM     11  C   UNL     1       6.085   3.799  23.803  0.00  0.00    +0.000 C 
BRANCH   2  18
ATOM     12  C   UNL     1       4.575   2.700  26.862  0.00  0.00    +0.000 A 
ATOM     13  C   UNL     1       3.897   1.808  27.906  0.00  0.00    +0.000 A 
ATOM     14  C   UNL     1       4.566   1.030  28.994  0.00  0.00    +0.000 A 
ATOM     15  C   UNL     1       4.170   1.571  30.249  0.00  0.00    +0.000 C 
ATOM     16  C   UNL     1       6.011   1.162  28.760  0.00  0.00    +0.000 A 
ATOM     17  C   UNL     1       6.870   1.641  27.730  0.00  0.00    +0.000 A 
ATOM     18  C   UNL     1       5.991   2.338  26.689  0.00  0.00    +0.000 A 
ENDBRANCH   2  18
ENDBRANCH   1   8
BRANCH   1  19
ATOM     19  N   UNL     1       9.824   0.281  22.436  0.00  0.00    +0.000 NA
ATOM     20  C   UNL     1      10.524   0.524  23.612  0.00  0.00    +0.000 C 
ATOM     21  C   UNL     1       9.929  -0.407  24.722  0.00  0.00    +0.000 C 
ATOM     22  N   UNL     1       9.780  -1.669  24.278  0.00  0.00    +0.000 NA
ATOM     23  C   UNL     1      10.273  -2.014  23.027  0.00  0.00    +0.000 C 
ATOM     24  C   UNL     1       9.953  -0.985  21.923  0.00  0.00    +0.000 C 
BRANCH  22  25
ATOM     25  S   UNL     1       8.414  -2.514  24.692  0.00  0.00    +0.000 S 
ATOM     26  O   UNL     1       7.460  -1.329  25.066  0.00  0.00    +0.000 OA
ATOM     27  O   UNL     1       8.586  -3.233  25.885  0.00  0.00    +0.000 OA
BRANCH  25  28
ATOM     28  C   UNL     1       7.651  -3.097  23.331  0.00  0.00    +0.000 A 
ATOM     29  C   UNL     1       7.737  -4.594  23.413  0.00  0.00    +0.000 A 
ATOM     30  C   UNL     1       6.624  -5.574  23.246  0.00  0.00    +0.000 A 
ATOM     31  C   UNL     1       6.921  -6.251  21.898  0.00  0.00    +0.000 C 
ATOM     32  C   UNL     1       5.421  -4.736  23.059  0.00  0.00    +0.000 A 
ATOM     33  C   UNL     1       5.016  -3.396  22.977  0.00  0.00    +0.000 A 
ATOM     34  C   UNL     1       6.383  -2.606  22.799  0.00  0.00    +0.000 A 
ATOM     35  C   UNL     1       6.387  -1.955  21.395  0.00  0.00    +0.000 C 
ENDBRANCH  25  28
ENDBRANCH  22  25
ENDBRANCH   1  19
TORSDOF 5
ENDMDL
MODEL 4
REMARK VINA RESULT:      -8.5      2.683      8.195
REMARK  Name = 
REMARK  8 active torsions:
REMARK  status: ('A' for Active; 'I' for Inactive)
REMARK    1  A    between atoms: C_5  and  C_6
REMARK    2  A    between atoms: C_14  and  C_15
REMARK    3  A    between atoms: C_25  and  C_27
REMARK    4  A    between atoms: C_27  and  N_30
REMARK    5  A    between atoms: N_37  and  S_38
REMARK    6  A    between atoms: S_38  and  C_41
REMARK    7  A    between atoms: C_44  and  C_45
REMARK    8  A    between atoms: C_53  and  C_54
REMARK                            x       y       z     vdW  Elec       q    Type
REMARK                         _______ _______ _______ _____ _____    ______ ____
ROOT
ATOM      1  C   UNL     1       9.876  -2.518  23.617  0.00  0.00    +0.000 C 
ENDROOT
BRANCH   1   8
ATOM      2  C   UNL     1       5.465  -3.545  25.156  0.00  0.00    +0.000 C 
ATOM      3  O   UNL     1       5.504  -2.379  25.424  0.00  0.00    +0.000 OA
ATOM      4  N   UNL     1       6.526  -4.371  25.332  0.00  0.00    +0.000 N 
ATOM      5  C   UNL     1       7.163  -4.925  24.166  0.00  0.00    +0.000 C 
ATOM      6  C   UNL     1       8.658  -5.183  24.460  0.00  0.00    +0.000 C 
ATOM      7  N   UNL     1       9.061  -4.056  25.341  0.00  0.00    +0.000 N 
ATOM      8  C   UNL     1       8.922  -2.816  24.783  0.00  0.00    +0.000 C 
ATOM      9  O   UNL     1       7.949  -2.147  24.986  0.00  0.00    +0.000 OA
ATOM     10  C   UNL     1       8.549  -4.197  26.718  0.00  0.00    +0.000 C 
ATOM     11  C   UNL     1       7.075  -4.546  26.658  0.00  0.00    +0.000 C 
BRANCH   2  18
ATOM     12  C   UNL     1       3.803  -4.528  23.702  0.00  0.00    +0.000 A 
ATOM     13  C   UNL     1       3.738  -6.019  23.356  0.00  0.00    +0.000 A 
ATOM     14  C   UNL     1       3.621  -7.160  24.315  0.00  0.00    +0.000 A 
ATOM     15  C   UNL     1       2.364  -7.794  24.118  0.00  0.00    +0.000 C 
ATOM     16  C   UNL     1       3.748  -6.578  25.658  0.00  0.00    +0.000 A 
ATOM     17  C   UNL     1       4.121  -5.328  26.232  0.00  0.00    +0.000 A 
ATOM     18  C   UNL     1       4.255  -4.321  25.088  0.00  0.00    +0.000 A 
ENDBRANCH   2  18
ENDBRANCH   1   8
BRANCH   1  19
ATOM     19  N   UNL     1       9.307  -1.813  22.631  0.00  0.00    +0.000 NA
ATOM     20  C   UNL     1       8.215  -2.369  21.974  0.00  0.00    +0.000 C 
ATOM     21  C   UNL     1       7.101  -1.270  21.890  0.00  0.00    +0.000 C 
ATOM     22  N   UNL     1       7.603  -0.091  21.480  0.00  0.00    +0.000 NA
ATOM     23  C   UNL     1       8.926  -0.021  21.063  0.00  0.00    +0.000 C 
ATOM     24  C   UNL     1       9.912  -0.764  21.986  0.00  0.00    +0.000 C 
BRANCH  22  25
ATOM     25  S   UNL     1       7.077   1.306  22.203  0.00  0.00    +0.000 S 
ATOM     26  O   UNL     1       6.091   0.712  23.265  0.00  0.00    +0.000 OA
ATOM     27  O   UNL     1       6.269   2.067  21.342  0.00  0.00    +0.000 OA
BRANCH  25  28
ATOM     28  C   UNL     1       8.256   1.929  23.200  0.00  0.00    +0.000 A 
ATOM     29  C   UNL     1       8.311   3.401  22.912  0.00  0.00    +0.000 A 
ATOM     30  C   UNL     1       8.281   4.519  23.901  0.00  0.00    +0.000 A 
ATOM     31  C   UNL     1       9.709   5.088  23.866  0.00  0.00    +0.000 C 
ATOM     32  C   UNL     1       8.110   3.849  25.208  0.00  0.00    +0.000 A 
ATOM     33  C   UNL     1       7.989   2.575  25.783  0.00  0.00    +0.000 A 
ATOM     34  C   UNL     1       8.429   1.596  24.611  0.00  0.00    +0.000 A 
ATOM     35  C   UNL     1       9.738   0.890  25.036  0.00  0.00    +0.000 C 
ENDBRANCH  25  28
ENDBRANCH  22  25
ENDBRANCH   1  19
TORSDOF 5
ENDMDL
MODEL 5
REMARK VINA RESULT:      -8.3      2.171      3.639
REMARK  Name = 
REMARK  8 active torsions:
REMARK  status: ('A' for Active; 'I' for Inactive)
REMARK    1  A    between atoms: C_5  and  C_6
REMARK    2  A    between atoms: C_14  and  C_15
REMARK    3  A    between atoms: C_25  and  C_27
REMARK    4  A    between atoms: C_27  and  N_30
REMARK    5  A    between atoms: N_37  and  S_38
REMARK    6  A    between atoms: S_38  and  C_41
REMARK    7  A    between atoms: C_44  and  C_45
REMARK    8  A    between atoms: C_53  and  C_54
REMARK                            x       y       z     vdW  Elec       q    Type
REMARK                         _______ _______ _______ _____ _____    ______ ____
ROOT
ATOM      1  C   UNL     1       5.266  -0.836  26.958  0.00  0.00    +0.000 C 
ENDROOT
BRANCH   1   8
ATOM      2  C   UNL     1       7.080  -0.117  22.592  0.00  0.00    +0.000 C 
ATOM      3  O   UNL     1       6.964  -1.307  22.566  0.00  0.00    +0.000 OA
ATOM      4  N   UNL     1       7.503   0.553  23.692  0.00  0.00    +0.000 N 
ATOM      5  C   UNL     1       6.568   1.413  24.371  0.00  0.00    +0.000 C 
ATOM      6  C   UNL     1       6.919   1.485  25.874  0.00  0.00    +0.000 C 
ATOM      7  N   UNL     1       7.394   0.116  26.208  0.00  0.00    +0.000 N 
ATOM      8  C   UNL     1       6.473  -0.873  26.009  0.00  0.00    +0.000 C 
ATOM      9  O   UNL     1       6.460  -1.519  25.000  0.00  0.00    +0.000 OA
ATOM     10  C   UNL     1       8.748  -0.160  25.688  0.00  0.00    +0.000 C 
ATOM     11  C   UNL     1       8.812   0.269  24.236  0.00  0.00    +0.000 C 
BRANCH   2  18
ATOM     12  C   UNL     1       8.171   0.078  20.443  0.00  0.00    +0.000 A 
ATOM     13  C   UNL     1       7.466  -0.135  19.100  0.00  0.00    +0.000 A 
ATOM     14  C   UNL     1       6.262   0.590  18.591  0.00  0.00    +0.000 A 
ATOM     15  C   UNL     1       6.640   1.359  17.455  0.00  0.00    +0.000 C 
ATOM     16  C   UNL     1       5.792   1.429  19.702  0.00  0.00    +0.000 A 
ATOM     17  C   UNL     1       6.053   1.572  21.095  0.00  0.00    +0.000 A 
ATOM     18  C   UNL     1       7.270   0.705  21.425  0.00  0.00    +0.000 A 
ENDBRANCH   2  18
ENDBRANCH   1   8
BRANCH   1  19
ATOM     19  N   UNL     1       4.729  -2.042  27.184  0.00  0.00    +0.000 NA
ATOM     20  C   UNL     1       3.429  -2.271  26.750  0.00  0.00    +0.000 C 
ATOM     21  C   UNL     1       3.415  -3.643  25.995  0.00  0.00    +0.000 C 
ATOM     22  N   UNL     1       4.069  -4.594  26.688  0.00  0.00    +0.000 NA
ATOM     23  C   UNL     1       4.521  -4.312  27.970  0.00  0.00    +0.000 C 
ATOM     24  C   UNL     1       5.212  -2.940  28.102  0.00  0.00    +0.000 C 
BRANCH  22  25
ATOM     25  S   UNL     1       5.048  -5.657  25.875  0.00  0.00    +0.000 S 
ATOM     26  O   UNL     1       3.980  -6.410  25.011  0.00  0.00    +0.000 OA
ATOM     27  O   UNL     1       5.580  -6.635  26.730  0.00  0.00    +0.000 OA
BRANCH  25  28
ATOM     28  C   UNL     1       5.902  -4.871  24.681  0.00  0.00    +0.000 A 
ATOM     29  C   UNL     1       7.288  -4.671  25.221  0.00  0.00    +0.000 A 
ATOM     30  C   UNL     1       8.578  -5.001  24.546  0.00  0.00    +0.000 A 
ATOM     31  C   UNL     1       9.183  -3.630  24.205  0.00  0.00    +0.000 C 
ATOM     32  C   UNL     1       8.176  -5.631  23.271  0.00  0.00    +0.000 A 
ATOM     33  C   UNL     1       7.039  -5.983  22.529  0.00  0.00    +0.000 A 
ATOM     34  C   UNL     1       5.863  -5.201  23.259  0.00  0.00    +0.000 A 
ATOM     35  C   UNL     1       5.306  -4.140  22.281  0.00  0.00    +0.000 C 
ENDBRANCH  25  28
ENDBRANCH  22  25
ENDBRANCH   1  19
TORSDOF 5
ENDMDL
MODEL 6
REMARK VINA RESULT:      -8.2      3.140      9.216
REMARK  Name = 
REMARK  8 active torsions:
REMARK  status: ('A' for Active; 'I' for Inactive)
REMARK    1  A    between atoms: C_5  and  C_6
REMARK    2  A    between atoms: C_14  and  C_15
REMARK    3  A    between atoms: C_25  and  C_27
REMARK    4  A    between atoms: C_27  and  N_30
REMARK    5  A    between atoms: N_37  and  S_38
REMARK    6  A    between atoms: S_38  and  C_41
REMARK    7  A    between atoms: C_44  and  C_45
REMARK    8  A    between atoms: C_53  and  C_54
REMARK                            x       y       z     vdW  Elec       q    Type
REMARK                         _______ _______ _______ _____ _____    ______ ____
ROOT
ATOM      1  C   UNL     1       7.253  -2.348  22.546  0.00  0.00    +0.000 C 
ENDROOT
BRANCH   1   8
ATOM      2  C   UNL     1       6.101  -4.629  26.589  0.00  0.00    +0.000 C 
ATOM      3  O   UNL     1       6.314  -3.537  27.029  0.00  0.00    +0.000 OA
ATOM      4  N   UNL     1       6.860  -5.184  25.612  0.00  0.00    +0.000 N 
ATOM      5  C   UNL     1       6.262  -5.401  24.320  0.00  0.00    +0.000 C 
ATOM      6  C   UNL     1       7.345  -5.320  23.222  0.00  0.00    +0.000 C 
ATOM      7  N   UNL     1       8.271  -4.257  23.694  0.00  0.00    +0.000 N 
ATOM      8  C   UNL     1       7.698  -3.026  23.850  0.00  0.00    +0.000 C 
ATOM      9  O   UNL     1       7.307  -2.652  24.919  0.00  0.00    +0.000 OA
ATOM     10  C   UNL     1       9.132  -4.704  24.807  0.00  0.00    +0.000 C 
ATOM     11  C   UNL     1       8.271  -5.395  25.845  0.00  0.00    +0.000 C 
BRANCH   2  18
ATOM     12  C   UNL     1       6.131  -6.143  28.474  0.00  0.00    +0.000 A 
ATOM     13  C   UNL     1       5.326  -5.930  29.759  0.00  0.00    +0.000 A 
ATOM     14  C   UNL     1       3.845  -5.763  29.875  0.00  0.00    +0.000 A 
ATOM     15  C   UNL     1       3.314  -6.879  30.580  0.00  0.00    +0.000 C 
ATOM     16  C   UNL     1       3.335  -5.678  28.499  0.00  0.00    +0.000 A 
ATOM     17  C   UNL     1       3.870  -5.530  27.187  0.00  0.00    +0.000 A 
ATOM     18  C   UNL     1       5.391  -5.663  27.294  0.00  0.00    +0.000 A 
ENDBRANCH   2  18
ENDBRANCH   1   8
BRANCH   1  19
ATOM     19  N   UNL     1       8.075  -1.370  22.147  0.00  0.00    +0.000 NA
ATOM     20  C   UNL     1       7.612  -0.477  21.187  0.00  0.00    +0.000 C 
ATOM     21  C   UNL     1       7.946   0.970  21.685  0.00  0.00    +0.000 C 
ATOM     22  N   UNL     1       9.214   1.059  22.129  0.00  0.00    +0.000 NA
ATOM     23  C   UNL     1      10.068  -0.024  21.969  0.00  0.00    +0.000 C 
ATOM     24  C   UNL     1       9.434  -1.381  22.337  0.00  0.00    +0.000 C 
BRANCH  22  25
ATOM     25  S   UNL     1       9.530   1.937  23.500  0.00  0.00    +0.000 S 
ATOM     26  O   UNL     1      10.659   2.883  22.966  0.00  0.00    +0.000 OA
ATOM     27  O   UNL     1      10.148   1.156  24.490  0.00  0.00    +0.000 OA
BRANCH  25  28
ATOM     28  C   UNL     1       8.316   3.043  23.779  0.00  0.00    +0.000 A 
ATOM     29  C   UNL     1       7.764   2.721  25.138  0.00  0.00    +0.000 A 
ATOM     30  C   UNL     1       7.530   3.669  26.267  0.00  0.00    +0.000 A 
ATOM     31  C   UNL     1       5.999   3.778  26.353  0.00  0.00    +0.000 C 
ATOM     32  C   UNL     1       8.034   4.967  25.769  0.00  0.00    +0.000 A 
ATOM     33  C   UNL     1       8.611   5.560  24.637  0.00  0.00    +0.000 A 
ATOM     34  C   UNL     1       8.398   4.473  23.497  0.00  0.00    +0.000 A 
ATOM     35  C   UNL     1       7.431   5.062  22.442  0.00  0.00    +0.000 C 
ENDBRANCH  25  28
ENDBRANCH  22  25
ENDBRANCH   1  19
TORSDOF 5
ENDMDL
MODEL 7
REMARK VINA RESULT:      -8.2      2.928      7.714
REMARK  Name = 
REMARK  8 active torsions:
REMARK  status: ('A' for Active; 'I' for Inactive)
REMARK    1  A    between atoms: C_5  and  C_6
REMARK    2  A    between atoms: C_14  and  C_15
REMARK    3  A    between atoms: C_25  and  C_27
REMARK    4  A    between atoms: C_27  and  N_30
REMARK    5  A    between atoms: N_37  and  S_38
REMARK    6  A    between atoms: S_38  and  C_41
REMARK    7  A    between atoms: C_44  and  C_45
REMARK    8  A    between atoms: C_53  and  C_54
REMARK                            x       y       z     vdW  Elec       q    Type
REMARK                         _______ _______ _______ _____ _____    ______ ____
ROOT
ATOM      1  C   UNL     1       5.360  -5.495  24.632  0.00  0.00    +0.000 C 
ENDROOT
BRANCH   1   8
ATOM      2  C   UNL     1       5.410  -1.413  27.124  0.00  0.00    +0.000 C 
ATOM      3  O   UNL     1       6.573  -1.690  27.171  0.00  0.00    +0.000 OA
ATOM      4  N   UNL     1       4.431  -2.344  27.241  0.00  0.00    +0.000 N 
ATOM      5  C   UNL     1       3.610  -2.621  26.092  0.00  0.00    +0.000 C 
ATOM      6  C   UNL     1       3.118  -4.085  26.141  0.00  0.00    +0.000 C 
ATOM      7  N   UNL     1       4.261  -4.840  26.720  0.00  0.00    +0.000 N 
ATOM      8  C   UNL     1       5.414  -4.779  25.989  0.00  0.00    +0.000 C 
ATOM      9  O   UNL     1       6.276  -3.989  26.251  0.00  0.00    +0.000 OA
ATOM     10  C   UNL     1       4.413  -4.619  28.172  0.00  0.00    +0.000 C 
ATOM     11  C   UNL     1       4.343  -3.131  28.450  0.00  0.00    +0.000 C 
BRANCH   2  18
ATOM     12  C   UNL     1       5.150   0.304  28.807  0.00  0.00    +0.000 A 
ATOM     13  C   UNL     1       5.970   1.597  28.848  0.00  0.00    +0.000 A 
ATOM     14  C   UNL     1       6.081   2.626  27.769  0.00  0.00    +0.000 A 
ATOM     15  C   UNL     1       5.487   3.834  28.229  0.00  0.00    +0.000 C 
ATOM     16  C   UNL     1       5.382   2.069  26.602  0.00  0.00    +0.000 A 
ATOM     17  C   UNL     1       4.836   0.816  26.202  0.00  0.00    +0.000 A 
ATOM     18  C   UNL     1       4.875  -0.110  27.420  0.00  0.00    +0.000 A 
ENDBRANCH   2  18
ENDBRANCH   1   8
BRANCH   1  19
ATOM     19  N   UNL     1       5.934  -4.801  23.641  0.00  0.00    +0.000 NA
ATOM     20  C   UNL     1       5.153  -3.885  22.946  0.00  0.00    +0.000 C 
ATOM     21  C   UNL     1       5.963  -2.547  22.847  0.00  0.00    +0.000 C 
ATOM     22  N   UNL     1       7.235  -2.769  22.468  0.00  0.00    +0.000 NA
ATOM     23  C   UNL     1       7.620  -4.048  22.090  0.00  0.00    +0.000 C 
ATOM     24  C   UNL     1       7.109  -5.159  23.029  0.00  0.00    +0.000 C 
BRANCH  22  25
ATOM     25  S   UNL     1       8.455  -1.914  23.197  0.00  0.00    +0.000 S 
ATOM     26  O   UNL     1       9.619  -2.174  22.181  0.00  0.00    +0.000 OA
ATOM     27  O   UNL     1       8.875  -2.519  24.393  0.00  0.00    +0.000 OA
BRANCH  25  28
ATOM     28  C   UNL     1       8.230  -0.278  22.986  0.00  0.00    +0.000 A 
ATOM     29  C   UNL     1       8.571   0.363  24.301  0.00  0.00    +0.000 A 
ATOM     30  C   UNL     1       9.479   1.524  24.533  0.00  0.00    +0.000 A 
ATOM     31  C   UNL     1       8.530   2.668  24.927  0.00  0.00    +0.000 C 
ATOM     32  C   UNL     1      10.017   1.844  23.194  0.00  0.00    +0.000 A 
ATOM     33  C   UNL     1       9.941   1.440  21.853  0.00  0.00    +0.000 A 
ATOM     34  C   UNL     1       8.667   0.491  21.824  0.00  0.00    +0.000 A 
ATOM     35  C   UNL     1       7.582   1.163  20.948  0.00  0.00    +0.000 C 
ENDBRANCH  25  28
ENDBRANCH  22  25
ENDBRANCH   1  19
TORSDOF 5
ENDMDL
MODEL 8
REMARK VINA RESULT:      -8.2      2.548      3.516
REMARK  Name = 
REMARK  8 active torsions:
REMARK  status: ('A' for Active; 'I' for Inactive)
REMARK    1  A    between atoms: C_5  and  C_6
REMARK    2  A    between atoms: C_14  and  C_15
REMARK    3  A    between atoms: C_25  and  C_27
REMARK    4  A    between atoms: C_27  and  N_30
REMARK    5  A    between atoms: N_37  and  S_38
REMARK    6  A    between atoms: S_38  and  C_41
REMARK    7  A    between atoms: C_44  and  C_45
REMARK    8  A    between atoms: C_53  and  C_54
REMARK                            x       y       z     vdW  Elec       q    Type
REMARK                         _______ _______ _______ _____ _____    ______ ____
ROOT
ATOM      1  C   UNL     1       8.709  -2.735  24.362  0.00  0.00    +0.000 C 
ENDROOT
BRANCH   1   8
ATOM      2  C   UNL     1       8.524   1.612  22.376  0.00  0.00    +0.000 C 
ATOM      3  O   UNL     1       9.100   1.021  21.510  0.00  0.00    +0.000 OA
ATOM      4  N   UNL     1       8.774   1.406  23.693  0.00  0.00    +0.000 N 
ATOM      5  C   UNL     1       7.744   0.801  24.498  0.00  0.00    +0.000 C 
ATOM      6  C   UNL     1       8.387   0.006  25.657  0.00  0.00    +0.000 C 
ATOM      7  N   UNL     1       9.622  -0.574  25.067  0.00  0.00    +0.000 N 
ATOM      8  C   UNL     1       9.411  -1.415  24.011  0.00  0.00    +0.000 C 
ATOM      9  O   UNL     1       9.491  -1.026  22.880  0.00  0.00    +0.000 OA
ATOM     10  C   UNL     1      10.690   0.428  24.881  0.00  0.00    +0.000 C 
ATOM     11  C   UNL     1      10.101   1.652  24.209  0.00  0.00    +0.000 C 
BRANCH   2  18
ATOM     12  C   UNL     1       6.490   2.764  21.757  0.00  0.00    +0.000 A 
ATOM     13  C   UNL     1       5.529   3.408  22.760  0.00  0.00    +0.000 A 
ATOM     14  C   UNL     1       5.856   4.461  23.770  0.00  0.00    +0.000 A 
ATOM     15  C   UNL     1       5.159   5.653  23.428  0.00  0.00    +0.000 C 
ATOM     16  C   UNL     1       7.314   4.634  23.720  0.00  0.00    +0.000 A 
ATOM     17  C   UNL     1       8.433   3.968  23.141  0.00  0.00    +0.000 A 
ATOM     18  C   UNL     1       7.888   2.892  22.200  0.00  0.00    +0.000 A 
ENDBRANCH   2  18
ENDBRANCH   1   8
BRANCH   1  19
ATOM     19  N   UNL     1       7.700  -3.038  23.536  0.00  0.00    +0.000 NA
ATOM     20  C   UNL     1       7.957  -3.906  22.481  0.00  0.00    +0.000 C 
ATOM     21  C   UNL     1       6.818  -4.981  22.461  0.00  0.00    +0.000 C 
ATOM     22  N   UNL     1       5.604  -4.415  22.585  0.00  0.00    +0.000 NA
ATOM     23  C   UNL     1       5.493  -3.031  22.566  0.00  0.00    +0.000 C 
ATOM     24  C   UNL     1       6.544  -2.307  23.431  0.00  0.00    +0.000 C 
BRANCH  22  25
ATOM     25  S   UNL     1       4.467  -5.143  23.549  0.00  0.00    +0.000 S 
ATOM     26  O   UNL     1       4.894  -6.643  23.393  0.00  0.00    +0.000 OA
ATOM     27  O   UNL     1       3.183  -5.071  22.986  0.00  0.00    +0.000 OA
BRANCH  25  28
ATOM     28  C   UNL     1       4.818  -4.895  25.157  0.00  0.00    +0.000 A 
ATOM     29  C   UNL     1       3.536  -4.451  25.800  0.00  0.00    +0.000 A 
ATOM     30  C   UNL     1       2.912  -4.992  27.043  0.00  0.00    +0.000 A 
ATOM     31  C   UNL     1       3.095  -3.867  28.074  0.00  0.00    +0.000 C 
ATOM     32  C   UNL     1       3.800  -6.103  27.447  0.00  0.00    +0.000 A 
ATOM     33  C   UNL     1       4.978  -6.762  27.067  0.00  0.00    +0.000 A 
ATOM     34  C   UNL     1       5.621  -5.784  25.993  0.00  0.00    +0.000 A 
ATOM     35  C   UNL     1       6.948  -5.237  26.569  0.00  0.00    +0.000 C 
ENDBRANCH  25  28
ENDBRANCH  22  25
ENDBRANCH   1  19
TORSDOF 5
ENDMDL
MODEL 9
REMARK VINA RESULT:      -8.1      2.854      8.694
REMARK  Name = 
REMARK  8 active torsions:
REMARK  status: ('A' for Active; 'I' for Inactive)
REMARK    1  A    between atoms: C_5  and  C_6
REMARK    2  A    between atoms: C_14  and  C_15
REMARK    3  A    between atoms: C_25  and  C_27
REMARK    4  A    between atoms: C_27  and  N_30
REMARK    5  A    between atoms: N_37  and  S_38
REMARK    6  A    between atoms: S_38  and  C_41
REMARK    7  A    between atoms: C_44  and  C_45
REMARK    8  A    between atoms: C_53  and  C_54
REMARK                            x       y       z     vdW  Elec       q    Type
REMARK                         _______ _______ _______ _____ _____    ______ ____
ROOT
ATOM      1  C   UNL     1       8.517  -2.845  22.439  0.00  0.00    +0.000 C 
ENDROOT
BRANCH   1   8
ATOM      2  C   UNL     1       6.442  -3.430  26.708  0.00  0.00    +0.000 C 
ATOM      3  O   UNL     1       6.915  -2.342  26.863  0.00  0.00    +0.000 OA
ATOM      4  N   UNL     1       7.093  -4.424  26.055  0.00  0.00    +0.000 N 
ATOM      5  C   UNL     1       6.567  -4.872  24.792  0.00  0.00    +0.000 C 
ATOM      6  C   UNL     1       7.716  -5.396  23.903  0.00  0.00    +0.000 C 
ATOM      7  N   UNL     1       8.861  -4.500  24.212  0.00  0.00    +0.000 N 
ATOM      8  C   UNL     1       8.645  -3.179  23.933  0.00  0.00    +0.000 C 
ATOM      9  O   UNL     1       8.287  -2.414  24.782  0.00  0.00    +0.000 OA
ATOM     10  C   UNL     1       9.467  -4.782  25.528  0.00  0.00    +0.000 C 
ATOM     11  C   UNL     1       8.364  -4.891  26.561  0.00  0.00    +0.000 C 
BRANCH   2  18
ATOM     12  C   UNL     1       4.069  -3.810  26.973  0.00  0.00    +0.000 A 
ATOM     13  C   UNL     1       3.382  -5.157  26.727  0.00  0.00    +0.000 A 
ATOM     14  C   UNL     1       3.698  -6.461  27.386  0.00  0.00    +0.000 A 
ATOM     15  C   UNL     1       2.584  -6.852  28.179  0.00  0.00    +0.000 C 
ATOM     16  C   UNL     1       4.904  -6.229  28.192  0.00  0.00    +0.000 A 
ATOM     17  C   UNL     1       5.888  -5.210  28.343  0.00  0.00    +0.000 A 
ATOM     18  C   UNL     1       5.414  -3.994  27.544  0.00  0.00    +0.000 A 
ENDBRANCH   2  18
ENDBRANCH   1   8
BRANCH   1  19
ATOM     19  N   UNL     1       8.763  -1.559  22.159  0.00  0.00    +0.000 NA
ATOM     20  C   UNL     1       7.733  -0.799  21.616  0.00  0.00    +0.000 C 
ATOM     21  C   UNL     1       7.663   0.547  22.413  0.00  0.00    +0.000 C 
ATOM     22  N   UNL     1       8.885   1.089  22.573  0.00  0.00    +0.000 NA
ATOM     23  C   UNL     1       9.974   0.514  21.931  0.00  0.00    +0.000 C 
ATOM     24  C   UNL     1      10.020  -1.024  22.034  0.00  0.00    +0.000 C 
BRANCH  22  25
ATOM     25  S   UNL     1       9.280   1.776  24.030  0.00  0.00    +0.000 S 
ATOM     26  O   UNL     1      10.706   2.331  23.695  0.00  0.00    +0.000 OA
ATOM     27  O   UNL     1       9.491   0.806  25.024  0.00  0.00    +0.000 OA
BRANCH  25  28
ATOM     28  C   UNL     1       8.445   3.199  24.251  0.00  0.00    +0.000 A 
ATOM     29  C   UNL     1       8.297   3.813  22.889  0.00  0.00    +0.000 A 
ATOM     30  C   UNL     1       7.047   4.334  22.262  0.00  0.00    +0.000 A 
ATOM     31  C   UNL     1       7.244   5.858  22.246  0.00  0.00    +0.000 C 
ATOM     32  C   UNL     1       5.989   4.040  23.252  0.00  0.00    +0.000 A 
ATOM     33  C   UNL     1       5.798   3.477  24.522  0.00  0.00    +0.000 A 
ATOM     34  C   UNL     1       7.272   3.366  25.105  0.00  0.00    +0.000 A 
ATOM     35  C   UNL     1       7.386   4.317  26.319  0.00  0.00    +0.000 C 
ENDBRANCH  25  28
ENDBRANCH  22  25
ENDBRANCH   1  19
TORSDOF 5
ENDMDL
