MODEL 1
REMARK VINA RESULT:      -8.9      0.000      0.000
REMARK  Name = 
REMARK  4 active torsions:
REMARK  status: ('A' for Active; 'I' for Inactive)
REMARK    1  A    between atoms: C_4  and  C_5
REMARK    2  A    between atoms: C_5  and  C_8
REMARK    3  A    between atoms: C_24  and  C_26
REMARK    4  A    between atoms: C_44  and  N_45
REMARK                            x       y       z     vdW  Elec       q    Type
REMARK                         _______ _______ _______ _____ _____    ______ ____
ROOT
ATOM      1  C   UNL     1      10.184   0.848  24.581  0.00  0.00    +0.000 C 
ATOM      2  O   UNL     1      11.432   0.601  24.738  0.00  0.00    +0.000 OA
ATOM      3  N   UNL     1       9.907   1.761  23.692  0.00  0.00    +0.000 N 
ATOM      4  C   UNL     1       9.098   3.016  24.031  0.00  0.00    +0.000 C 
ATOM      5  C   UNL     1       7.937   2.927  23.579  0.00  0.00    +0.000 A 
ATOM      6  C   UNL     1       7.470   4.279  23.299  0.00  0.00    +0.000 A 
ATOM      7  C   UNL     1       6.332   4.778  22.498  0.00  0.00    +0.000 A 
ATOM      8  C   UNL     1       5.786   3.506  21.891  0.00  0.00    +0.000 A 
ATOM      9  C   UNL     1       6.280   2.147  21.846  0.00  0.00    +0.000 A 
ATOM     10  C   UNL     1       7.543   2.014  22.532  0.00  0.00    +0.000 A 
ATOM     11  C   UNL     1       8.754   1.710  21.509  0.00  0.00    +0.000 C 
ATOM     12  C   UNL     1      10.039   1.604  22.261  0.00  0.00    +0.000 C 
ENDROOT
BRANCH  11  13
ATOM     13  C   UNL     1       8.303   0.515  20.908  0.00  0.00    +0.000 A 
ATOM     14  C   UNL     1       7.919  -0.535  21.952  0.00  0.00    +0.000 A 
ATOM     15  C   UNL     1       6.856  -1.570  21.819  0.00  0.00    +0.000 A 
ATOM     16  C   UNL     1       6.188  -1.302  20.488  0.00  0.00    +0.000 A 
ATOM     17  C   UNL     1       6.245  -0.336  19.491  0.00  0.00    +0.000 A 
ATOM     18  C   UNL     1       7.654   0.336  19.634  0.00  0.00    +0.000 A 
ENDBRANCH  11  13
BRANCH   1  19
ATOM     19  C   UNL     1       9.283  -0.012  25.392  0.00  0.00    +0.000 C 
BRANCH  19  22
ATOM     20  C   UNL     1       9.593  -3.189  24.110  0.00  0.00    +0.000 A 
ATOM     21  N   UNL     1       9.997  -1.853  24.339  0.00  0.00    +0.000 NA
ATOM     22  C   UNL     1       9.214  -1.382  25.280  0.00  0.00    +0.000 A 
ATOM     23  C   UNL     1       8.572  -2.017  26.407  0.00  0.00    +0.000 A 
ATOM     24  C   UNL     1       8.106  -3.254  26.373  0.00  0.00    +0.000 A 
ATOM     25  C   UNL     1       8.511  -3.663  24.929  0.00  0.00    +0.000 A 
BRANCH  25  26
ATOM     26  N   UNL     1       7.388  -4.260  24.272  0.00  0.00    +0.000 N 
ATOM     27  C   UNL     1       6.138  -4.110  24.939  0.00  0.00    +0.000 C 
ATOM     28  C   UNL     1       5.038  -4.825  24.138  0.00  0.00    +0.000 C 
ATOM     29  O   UNL     1       4.968  -4.245  22.921  0.00  0.00    +0.000 OA
ATOM     30  C   UNL     1       5.532  -4.954  21.915  0.00  0.00    +0.000 C 
ATOM     31  C   UNL     1       6.914  -5.401  22.059  0.00  0.00    +0.000 C 
ATOM     32  C   UNL     1       7.679  -5.290  23.335  0.00  0.00    +0.000 C 
ENDBRANCH  25  26
ENDBRANCH  19  22
ENDBRANCH   1  19
TORSDOF 4
ENDMDL
MODEL 2
REMARK VINA RESULT:      -8.9      1.971      3.111
REMARK  Name = 
REMARK  4 active torsions:
REMARK  status: ('A' for Active; 'I' for Inactive)
REMARK    1  A    between atoms: C_4  and  C_5
REMARK    2  A    between atoms: C_5  and  C_8
REMARK    3  A    between atoms: C_24  and  C_26
REMARK    4  A    between atoms: C_44  and  N_45
REMARK                            x       y       z     vdW  Elec       q    Type
REMARK                         _______ _______ _______ _____ _____    ______ ____
ROOT
ATOM      1  C   UNL     1      10.025  -1.614  23.537  0.00  0.00    +0.000 C 
ATOM      2  O   UNL     1      10.777  -2.556  23.101  0.00  0.00    +0.000 OA
ATOM      3  N   UNL     1      10.150  -0.473  22.917  0.00  0.00    +0.000 N 
ATOM      4  C   UNL     1      10.514   0.822  23.649  0.00  0.00    +0.000 C 
ATOM      5  C   UNL     1       9.512   1.557  23.767  0.00  0.00    +0.000 A 
ATOM      6  C   UNL     1       9.982   2.937  23.798  0.00  0.00    +0.000 A 
ATOM      7  C   UNL     1       9.269   4.221  23.624  0.00  0.00    +0.000 A 
ATOM      8  C   UNL     1       7.873   3.766  23.266  0.00  0.00    +0.000 A 
ATOM      9  C   UNL     1       7.316   2.473  22.932  0.00  0.00    +0.000 A 
ATOM     10  C   UNL     1       8.317   1.434  22.966  0.00  0.00    +0.000 A 
ATOM     11  C   UNL     1       8.635   0.857  21.492  0.00  0.00    +0.000 C 
ATOM     12  C   UNL     1       9.690  -0.195  21.576  0.00  0.00    +0.000 C 
ENDROOT
BRANCH  11  13
ATOM     13  C   UNL     1       7.357   0.404  21.100  0.00  0.00    +0.000 A 
ATOM     14  C   UNL     1       7.044   0.773  19.649  0.00  0.00    +0.000 A 
ATOM     15  C   UNL     1       6.209  -0.009  18.696  0.00  0.00    +0.000 A 
ATOM     16  C   UNL     1       5.820  -1.271  19.432  0.00  0.00    +0.000 A 
ATOM     17  C   UNL     1       6.120  -1.883  20.643  0.00  0.00    +0.000 A 
ATOM     18  C   UNL     1       6.616  -0.732  21.586  0.00  0.00    +0.000 A 
ENDBRANCH  11  13
BRANCH   1  19
ATOM     19  C   UNL     1       9.098  -2.024  24.623  0.00  0.00    +0.000 C 
BRANCH  19  22
ATOM     20  C   UNL     1       5.680  -2.352  24.843  0.00  0.00    +0.000 A 
ATOM     21  N   UNL     1       6.901  -1.638  24.805  0.00  0.00    +0.000 NA
ATOM     22  C   UNL     1       7.819  -2.489  24.413  0.00  0.00    +0.000 A 
ATOM     23  C   UNL     1       7.762  -3.628  23.527  0.00  0.00    +0.000 A 
ATOM     24  C   UNL     1       6.712  -4.428  23.443  0.00  0.00    +0.000 A 
ATOM     25  C   UNL     1       5.752  -3.732  24.448  0.00  0.00    +0.000 A 
BRANCH  25  26
ATOM     26  N   UNL     1       5.203  -4.711  25.337  0.00  0.00    +0.000 N 
ATOM     27  C   UNL     1       5.047  -6.016  24.788  0.00  0.00    +0.000 C 
ATOM     28  C   UNL     1       4.422  -6.946  25.840  0.00  0.00    +0.000 C 
ATOM     29  O   UNL     1       5.262  -7.002  26.895  0.00  0.00    +0.000 OA
ATOM     30  C   UNL     1       4.881  -6.272  27.971  0.00  0.00    +0.000 C 
ATOM     31  C   UNL     1       4.574  -4.858  27.788  0.00  0.00    +0.000 C 
ATOM     32  C   UNL     1       4.466  -4.213  26.446  0.00  0.00    +0.000 C 
ENDBRANCH  25  26
ENDBRANCH  19  22
ENDBRANCH   1  19
TORSDOF 4
ENDMDL
MODEL 3
REMARK VINA RESULT:      -8.7      1.967      3.079
REMARK  Name = 
REMARK  4 active torsions:
REMARK  status: ('A' for Active; 'I' for Inactive)
REMARK    1  A    between atoms: C_4  and  C_5
REMARK    2  A    between atoms: C_5  and  C_8
REMARK    3  A    between atoms: C_24  and  C_26
REMARK    4  A    between atoms: C_44  and  N_45
REMARK                            x       y       z     vdW  Elec       q    Type
REMARK                         _______ _______ _______ _____ _____    ______ ____
ROOT
ATOM      1  C   UNL     1       9.298  -2.505  24.183  0.00  0.00    +0.000 C 
ATOM      2  O   UNL     1      10.117  -3.489  24.247  0.00  0.00    +0.000 OA
ATOM      3  N   UNL     1       9.789  -1.407  23.679  0.00  0.00    +0.000 N 
ATOM      4  C   UNL     1       9.779  -0.079  24.442  0.00  0.00    +0.000 C 
ATOM      5  C   UNL     1       8.905   0.685  23.983  0.00  0.00    +0.000 A 
ATOM      6  C   UNL     1       9.359   2.053  24.205  0.00  0.00    +0.000 A 
ATOM      7  C   UNL     1       8.912   3.341  23.631  0.00  0.00    +0.000 A 
ATOM      8  C   UNL     1       7.894   2.897  22.605  0.00  0.00    +0.000 A 
ATOM      9  C   UNL     1       7.530   1.600  22.078  0.00  0.00    +0.000 A 
ATOM     10  C   UNL     1       8.308   0.542  22.676  0.00  0.00    +0.000 A 
ATOM     11  C   UNL     1       9.325  -0.129  21.618  0.00  0.00    +0.000 C 
ATOM     12  C   UNL     1      10.122  -1.199  22.288  0.00  0.00    +0.000 C 
ENDROOT
BRANCH  11  13
ATOM     13  C   UNL     1       8.425  -0.575  20.626  0.00  0.00    +0.000 A 
ATOM     14  C   UNL     1       7.358  -1.505  21.205  0.00  0.00    +0.000 A 
ATOM     15  C   UNL     1       5.952  -1.644  20.733  0.00  0.00    +0.000 A 
ATOM     16  C   UNL     1       5.785  -0.616  19.636  0.00  0.00    +0.000 A 
ATOM     17  C   UNL     1       6.528   0.420  19.082  0.00  0.00    +0.000 A 
ATOM     18  C   UNL     1       8.025   0.087  19.410  0.00  0.00    +0.000 A 
ENDBRANCH  11  13
BRANCH   1  19
ATOM     19  C   UNL     1       7.917  -2.828  24.627  0.00  0.00    +0.000 C 
BRANCH  19  22
ATOM     20  C   UNL     1       6.496  -5.525  23.033  0.00  0.00    +0.000 A 
ATOM     21  N   UNL     1       7.424  -4.469  23.188  0.00  0.00    +0.000 NA
ATOM     22  C   UNL     1       7.303  -4.042  24.422  0.00  0.00    +0.000 A 
ATOM     23  C   UNL     1       6.959  -4.724  25.648  0.00  0.00    +0.000 A 
ATOM     24  C   UNL     1       6.090  -5.719  25.704  0.00  0.00    +0.000 A 
ATOM     25  C   UNL     1       5.721  -5.850  24.199  0.00  0.00    +0.000 A 
BRANCH  25  26
ATOM     26  N   UNL     1       4.297  -5.905  24.062  0.00  0.00    +0.000 N 
ATOM     27  C   UNL     1       3.659  -4.660  23.793  0.00  0.00    +0.000 C 
ATOM     28  C   UNL     1       2.140  -4.868  23.705  0.00  0.00    +0.000 C 
ATOM     29  O   UNL     1       1.897  -5.722  22.688  0.00  0.00    +0.000 OA
ATOM     30  C   UNL     1       1.593  -6.988  23.063  0.00  0.00    +0.000 C 
ATOM     31  C   UNL     1       2.502  -7.692  23.961  0.00  0.00    +0.000 C 
ATOM     32  C   UNL     1       3.650  -7.028  24.647  0.00  0.00    +0.000 C 
ENDBRANCH  25  26
ENDBRANCH  19  22
ENDBRANCH   1  19
TORSDOF 4
ENDMDL
MODEL 4
REMARK VINA RESULT:      -8.4      2.031      4.328
REMARK  Name = 
REMARK  4 active torsions:
REMARK  status: ('A' for Active; 'I' for Inactive)
REMARK    1  A    between atoms: C_4  and  C_5
REMARK    2  A    between atoms: C_5  and  C_8
REMARK    3  A    between atoms: C_24  and  C_26
REMARK    4  A    between atoms: C_44  and  N_45
REMARK                            x       y       z     vdW  Elec       q    Type
REMARK                         _______ _______ _______ _____ _____    ______ ____
ROOT
ATOM      1  C   UNL     1       9.646  -1.770  23.138  0.00  0.00    +0.000 C 
ATOM      2  O   UNL     1      10.708  -2.331  22.690  0.00  0.00    +0.000 OA
ATOM      3  N   UNL     1       9.802  -1.086  24.238  0.00  0.00    +0.000 N 
ATOM      4  C   UNL     1       8.990  -1.375  25.504  0.00  0.00    +0.000 C 
ATOM      5  C   UNL     1       8.110  -0.506  25.671  0.00  0.00    +0.000 A 
ATOM      6  C   UNL     1       7.867  -0.397  27.104  0.00  0.00    +0.000 A 
ATOM      7  C   UNL     1       7.180   0.637  27.908  0.00  0.00    +0.000 A 
ATOM      8  C   UNL     1       6.864   1.690  26.871  0.00  0.00    +0.000 A 
ATOM      9  C   UNL     1       7.264   1.863  25.492  0.00  0.00    +0.000 A 
ATOM     10  C   UNL     1       8.130   0.797  25.048  0.00  0.00    +0.000 A 
ATOM     11  C   UNL     1       9.635   1.316  24.781  0.00  0.00    +0.000 C 
ATOM     12  C   UNL     1      10.496   0.176  24.349  0.00  0.00    +0.000 C 
ENDROOT
BRANCH  11  13
ATOM     13  C   UNL     1       9.406   2.309  23.804  0.00  0.00    +0.000 A 
ATOM     14  C   UNL     1       8.534   1.789  22.660  0.00  0.00    +0.000 A 
ATOM     15  C   UNL     1       7.565   2.582  21.854  0.00  0.00    +0.000 A 
ATOM     16  C   UNL     1       7.561   3.966  22.463  0.00  0.00    +0.000 A 
ATOM     17  C   UNL     1       8.113   4.598  23.571  0.00  0.00    +0.000 A 
ATOM     18  C   UNL     1       9.364   3.740  23.967  0.00  0.00    +0.000 A 
ENDBRANCH  11  13
BRANCH   1  19
ATOM     19  C   UNL     1       8.451  -1.943  22.272  0.00  0.00    +0.000 C 
BRANCH  19  22
ATOM     20  C   UNL     1       5.350  -2.995  23.329  0.00  0.00    +0.000 A 
ATOM     21  N   UNL     1       6.263  -2.107  22.711  0.00  0.00    +0.000 NA
ATOM     22  C   UNL     1       7.389  -2.765  22.574  0.00  0.00    +0.000 A 
ATOM     23  C   UNL     1       7.667  -4.165  22.350  0.00  0.00    +0.000 A 
ATOM     24  C   UNL     1       6.939  -5.140  22.868  0.00  0.00    +0.000 A 
ATOM     25  C   UNL     1       5.854  -4.310  23.612  0.00  0.00    +0.000 A 
BRANCH  25  26
ATOM     26  N   UNL     1       5.707  -4.810  24.946  0.00  0.00    +0.000 N 
ATOM     27  C   UNL     1       5.043  -6.066  25.059  0.00  0.00    +0.000 C 
ATOM     28  C   UNL     1       4.930  -6.456  26.541  0.00  0.00    +0.000 C 
ATOM     29  O   UNL     1       6.181  -6.565  27.037  0.00  0.00    +0.000 OA
ATOM     30  C   UNL     1       6.584  -5.527  27.809  0.00  0.00    +0.000 C 
ATOM     31  C   UNL     1       6.491  -4.174  27.271  0.00  0.00    +0.000 C 
ATOM     32  C   UNL     1       5.793  -3.851  25.992  0.00  0.00    +0.000 C 
ENDBRANCH  25  26
ENDBRANCH  19  22
ENDBRANCH   1  19
TORSDOF 4
ENDMDL
MODEL 5
REMARK VINA RESULT:      -8.4      1.437      2.137
REMARK  Name = 
REMARK  4 active torsions:
REMARK  status: ('A' for Active; 'I' for Inactive)
REMARK    1  A    between atoms: C_4  and  C_5
REMARK    2  A    between atoms: C_5  and  C_8
REMARK    3  A    between atoms: C_24  and  C_26
REMARK    4  A    between atoms: C_44  and  N_45
REMARK                            x       y       z     vdW  Elec       q    Type
REMARK                         _______ _______ _______ _____ _____    ______ ____
ROOT
ATOM      1  C   UNL     1      10.109  -1.171  23.627  0.00  0.00    +0.000 C 
ATOM      2  O   UNL     1      10.934  -2.062  23.217  0.00  0.00    +0.000 OA
ATOM      3  N   UNL     1      10.121  -0.052  22.956  0.00  0.00    +0.000 N 
ATOM      4  C   UNL     1      10.379   1.301  23.624  0.00  0.00    +0.000 C 
ATOM      5  C   UNL     1       9.317   1.949  23.731  0.00  0.00    +0.000 A 
ATOM      6  C   UNL     1       9.663   3.365  23.693  0.00  0.00    +0.000 A 
ATOM      7  C   UNL     1       8.835   4.572  23.478  0.00  0.00    +0.000 A 
ATOM      8  C   UNL     1       7.480   3.979  23.167  0.00  0.00    +0.000 A 
ATOM      9  C   UNL     1       7.035   2.628  22.901  0.00  0.00    +0.000 A 
ATOM     10  C   UNL     1       8.126   1.685  22.959  0.00  0.00    +0.000 A 
ATOM     11  C   UNL     1       8.470   1.074  21.506  0.00  0.00    +0.000 C 
ATOM     12  C   UNL     1       9.617   0.124  21.613  0.00  0.00    +0.000 C 
ENDROOT
BRANCH  11  13
ATOM     13  C   UNL     1       7.232   0.492  21.159  0.00  0.00    +0.000 A 
ATOM     14  C   UNL     1       6.859   0.776  19.703  0.00  0.00    +0.000 A 
ATOM     15  C   UNL     1       6.080  -0.113  18.797  0.00  0.00    +0.000 A 
ATOM     16  C   UNL     1       5.823  -1.377  19.587  0.00  0.00    +0.000 A 
ATOM     17  C   UNL     1       6.201  -1.913  20.812  0.00  0.00    +0.000 A 
ATOM     18  C   UNL     1       6.607  -0.688  21.702  0.00  0.00    +0.000 A 
ENDBRANCH  11  13
BRANCH   1  19
ATOM     19  C   UNL     1       9.239  -1.613  24.747  0.00  0.00    +0.000 C 
BRANCH  19  22
ATOM     20  C   UNL     1       8.112  -4.746  23.881  0.00  0.00    +0.000 A 
ATOM     21  N   UNL     1       8.992  -3.640  23.831  0.00  0.00    +0.000 NA
ATOM     22  C   UNL     1       8.678  -2.867  24.843  0.00  0.00    +0.000 A 
ATOM     23  C   UNL     1       8.160  -3.163  26.158  0.00  0.00    +0.000 A 
ATOM     24  C   UNL     1       7.305  -4.144  26.396  0.00  0.00    +0.000 A 
ATOM     25  C   UNL     1       7.173  -4.748  24.969  0.00  0.00    +0.000 A 
BRANCH  25  26
ATOM     26  N   UNL     1       5.787  -4.926  24.656  0.00  0.00    +0.000 N 
ATOM     27  C   UNL     1       5.076  -3.736  24.326  0.00  0.00    +0.000 C 
ATOM     28  C   UNL     1       3.604  -4.077  24.047  0.00  0.00    +0.000 C 
ATOM     29  O   UNL     1       3.566  -4.926  22.998  0.00  0.00    +0.000 OA
ATOM     30  C   UNL     1       3.336  -6.222  23.317  0.00  0.00    +0.000 C 
ATOM     31  C   UNL     1       4.189  -6.863  24.312  0.00  0.00    +0.000 C 
ATOM     32  C   UNL     1       5.178  -6.115  25.143  0.00  0.00    +0.000 C 
ENDBRANCH  25  26
ENDBRANCH  19  22
ENDBRANCH   1  19
TORSDOF 4
ENDMDL
MODEL 6
REMARK VINA RESULT:      -8.3      1.319      1.909
REMARK  Name = 
REMARK  4 active torsions:
REMARK  status: ('A' for Active; 'I' for Inactive)
REMARK    1  A    between atoms: C_4  and  C_5
REMARK    2  A    between atoms: C_5  and  C_8
REMARK    3  A    between atoms: C_24  and  C_26
REMARK    4  A    between atoms: C_44  and  N_45
REMARK                            x       y       z     vdW  Elec       q    Type
REMARK                         _______ _______ _______ _____ _____    ______ ____
ROOT
ATOM      1  C   UNL     1       9.428  -0.234  24.596  0.00  0.00    +0.000 C 
ATOM      2  O   UNL     1      10.266  -1.203  24.572  0.00  0.00    +0.000 OA
ATOM      3  N   UNL     1       9.621   0.688  23.694  0.00  0.00    +0.000 N 
ATOM      4  C   UNL     1       9.824   2.161  24.059  0.00  0.00    +0.000 C 
ATOM      5  C   UNL     1       8.796   2.824  23.806  0.00  0.00    +0.000 A 
ATOM      6  C   UNL     1       9.217   4.186  23.500  0.00  0.00    +0.000 A 
ATOM      7  C   UNL     1       8.506   5.310  22.853  0.00  0.00    +0.000 A 
ATOM      8  C   UNL     1       7.201   4.669  22.440  0.00  0.00    +0.000 A 
ATOM      9  C   UNL     1       6.742   3.297  22.422  0.00  0.00    +0.000 A 
ATOM     10  C   UNL     1       7.752   2.388  22.908  0.00  0.00    +0.000 A 
ATOM     11  C   UNL     1       8.324   1.441  21.732  0.00  0.00    +0.000 C 
ATOM     12  C   UNL     1       9.380   0.537  22.277  0.00  0.00    +0.000 C 
ENDROOT
BRANCH  11  13
ATOM     13  C   UNL     1       7.140   0.801  21.305  0.00  0.00    +0.000 A 
ATOM     14  C   UNL     1       6.863   1.052  19.822  0.00  0.00    +0.000 A 
ATOM     15  C   UNL     1       6.192   0.118  18.875  0.00  0.00    +0.000 A 
ATOM     16  C   UNL     1       5.932  -1.147  19.662  0.00  0.00    +0.000 A 
ATOM     17  C   UNL     1       6.242  -1.651  20.920  0.00  0.00    +0.000 A 
ATOM     18  C   UNL     1       6.529  -0.399  21.818  0.00  0.00    +0.000 A 
ENDBRANCH  11  13
BRANCH   1  19
ATOM     19  C   UNL     1       8.347  -0.386  25.603  0.00  0.00    +0.000 C 
BRANCH  19  22
ATOM     20  C   UNL     1       7.353  -3.614  26.254  0.00  0.00    +0.000 A 
ATOM     21  N   UNL     1       8.093  -2.429  26.478  0.00  0.00    +0.000 NA
ATOM     22  C   UNL     1       7.552  -1.503  25.723  0.00  0.00    +0.000 A 
ATOM     23  C   UNL     1       6.193  -1.289  25.285  0.00  0.00    +0.000 A 
ATOM     24  C   UNL     1       5.359  -2.276  25.002  0.00  0.00    +0.000 A 
ATOM     25  C   UNL     1       6.258  -3.501  25.330  0.00  0.00    +0.000 A 
BRANCH  25  26
ATOM     26  N   UNL     1       6.194  -4.440  24.251  0.00  0.00    +0.000 N 
ATOM     27  C   UNL     1       5.064  -5.307  24.260  0.00  0.00    +0.000 C 
ATOM     28  C   UNL     1       5.148  -6.274  23.069  0.00  0.00    +0.000 C 
ATOM     29  O   UNL     1       5.136  -5.539  21.937  0.00  0.00    +0.000 OA
ATOM     30  C   UNL     1       6.339  -5.402  21.329  0.00  0.00    +0.000 C 
ATOM     31  C   UNL     1       7.468  -4.907  22.110  0.00  0.00    +0.000 C 
ATOM     32  C   UNL     1       7.421  -4.727  23.591  0.00  0.00    +0.000 C 
ENDBRANCH  25  26
ENDBRANCH  19  22
ENDBRANCH   1  19
TORSDOF 4
ENDMDL
MODEL 7
REMARK VINA RESULT:      -8.2      2.486      6.974
REMARK  Name = 
REMARK  4 active torsions:
REMARK  status: ('A' for Active; 'I' for Inactive)
REMARK    1  A    between atoms: C_4  and  C_5
REMARK    2  A    between atoms: C_5  and  C_8
REMARK    3  A    between atoms: C_24  and  C_26
REMARK    4  A    between atoms: C_44  and  N_45
REMARK                            x       y       z     vdW  Elec       q    Type
REMARK                         _______ _______ _______ _____ _____    ______ ____
ROOT
ATOM      1  C   UNL     1       8.410  -3.067  26.280  0.00  0.00    +0.000 C 
ATOM      2  O   UNL     1       9.330  -3.077  27.172  0.00  0.00    +0.000 OA
ATOM      3  N   UNL     1       8.178  -4.216  25.708  0.00  0.00    +0.000 N 
ATOM      4  C   UNL     1       8.269  -4.410  24.192  0.00  0.00    +0.000 C 
ATOM      5  C   UNL     1       7.129  -4.488  23.689  0.00  0.00    +0.000 A 
ATOM      6  C   UNL     1       7.233  -5.319  22.495  0.00  0.00    +0.000 A 
ATOM      7  C   UNL     1       6.203  -5.996  21.679  0.00  0.00    +0.000 A 
ATOM      8  C   UNL     1       4.941  -5.723  22.465  0.00  0.00    +0.000 A 
ATOM      9  C   UNL     1       4.702  -5.164  23.778  0.00  0.00    +0.000 A 
ATOM     10  C   UNL     1       5.933  -4.799  24.436  0.00  0.00    +0.000 A 
ATOM     11  C   UNL     1       6.243  -5.749  25.703  0.00  0.00    +0.000 C 
ATOM     12  C   UNL     1       7.535  -5.348  26.335  0.00  0.00    +0.000 C 
ENDROOT
BRANCH  11  13
ATOM     13  C   UNL     1       5.091  -5.532  26.489  0.00  0.00    +0.000 A 
ATOM     14  C   UNL     1       4.723  -6.767  27.312  0.00  0.00    +0.000 A 
ATOM     15  C   UNL     1       4.077  -6.778  28.654  0.00  0.00    +0.000 A 
ATOM     16  C   UNL     1       3.952  -5.327  29.060  0.00  0.00    +0.000 A 
ATOM     17  C   UNL     1       4.360  -4.090  28.576  0.00  0.00    +0.000 A 
ATOM     18  C   UNL     1       4.597  -4.295  27.040  0.00  0.00    +0.000 A 
ENDBRANCH  11  13
BRANCH   1  19
ATOM     19  C   UNL     1       7.727  -1.757  26.121  0.00  0.00    +0.000 C 
BRANCH  19  22
ATOM     20  C   UNL     1       6.982   0.553  23.682  0.00  0.00    +0.000 A 
ATOM     21  N   UNL     1       6.966   0.019  24.993  0.00  0.00    +0.000 NA
ATOM     22  C   UNL     1       7.849  -0.950  25.012  0.00  0.00    +0.000 A 
ATOM     23  C   UNL     1       9.094  -1.135  24.303  0.00  0.00    +0.000 A 
ATOM     24  C   UNL     1       9.287  -0.726  23.061  0.00  0.00    +0.000 A 
ATOM     25  C   UNL     1       7.915  -0.054  22.773  0.00  0.00    +0.000 A 
BRANCH  25  26
ATOM     26  N   UNL     1       7.417  -0.512  21.511  0.00  0.00    +0.000 N 
ATOM     27  C   UNL     1       6.487  -1.589  21.574  0.00  0.00    +0.000 C 
ATOM     28  C   UNL     1       6.069  -1.992  20.151  0.00  0.00    +0.000 C 
ATOM     29  O   UNL     1       5.476  -0.924  19.576  0.00  0.00    +0.000 OA
ATOM     30  C   UNL     1       6.241  -0.259  18.676  0.00  0.00    +0.000 C 
ATOM     31  C   UNL     1       7.567   0.196  19.082  0.00  0.00    +0.000 C 
ATOM     32  C   UNL     1       8.207  -0.199  20.371  0.00  0.00    +0.000 C 
ENDBRANCH  25  26
ENDBRANCH  19  22
ENDBRANCH   1  19
TORSDOF 4
ENDMDL
MODEL 8
REMARK VINA RESULT:      -8.1      2.413      5.873
REMARK  Name = 
REMARK  4 active torsions:
REMARK  status: ('A' for Active; 'I' for Inactive)
REMARK    1  A    between atoms: C_4  and  C_5
REMARK    2  A    between atoms: C_5  and  C_8
REMARK    3  A    between atoms: C_24  and  C_26
REMARK    4  A    between atoms: C_44  and  N_45
REMARK                            x       y       z     vdW  Elec       q    Type
REMARK                         _______ _______ _______ _____ _____    ______ ____
ROOT
ATOM      1  C   UNL     1       7.743  -2.372  26.057  0.00  0.00    +0.000 C 
ATOM      2  O   UNL     1       8.189  -3.182  26.945  0.00  0.00    +0.000 OA
ATOM      3  N   UNL     1       8.438  -2.320  24.955  0.00  0.00    +0.000 N 
ATOM      4  C   UNL     1       9.032  -1.012  24.422  0.00  0.00    +0.000 C 
ATOM      5  C   UNL     1       8.375  -0.596  23.446  0.00  0.00    +0.000 A 
ATOM      6  C   UNL     1       9.287   0.158  22.593  0.00  0.00    +0.000 A 
ATOM      7  C   UNL     1       9.167   0.618  21.193  0.00  0.00    +0.000 A 
ATOM      8  C   UNL     1       7.857  -0.002  20.764  0.00  0.00    +0.000 A 
ATOM      9  C   UNL     1       6.983  -0.977  21.379  0.00  0.00    +0.000 A 
ATOM     10  C   UNL     1       7.487  -1.417  22.657  0.00  0.00    +0.000 A 
ATOM     11  C   UNL     1       7.965  -2.958  22.617  0.00  0.00    +0.000 C 
ATOM     12  C   UNL     1       8.499  -3.358  23.952  0.00  0.00    +0.000 C 
ENDROOT
BRANCH  11  13
ATOM     13  C   UNL     1       6.771  -3.599  22.225  0.00  0.00    +0.000 A 
ATOM     14  C   UNL     1       7.040  -4.974  21.610  0.00  0.00    +0.000 A 
ATOM     15  C   UNL     1       6.153  -6.168  21.685  0.00  0.00    +0.000 A 
ATOM     16  C   UNL     1       4.992  -5.761  22.565  0.00  0.00    +0.000 A 
ATOM     17  C   UNL     1       4.636  -4.670  23.349  0.00  0.00    +0.000 A 
ATOM     18  C   UNL     1       5.448  -3.457  22.779  0.00  0.00    +0.000 A 
ENDBRANCH  11  13
BRANCH   1  19
ATOM     19  C   UNL     1       6.469  -1.701  26.425  0.00  0.00    +0.000 C 
BRANCH  19  22
ATOM     20  C   UNL     1       5.152   1.209  25.148  0.00  0.00    +0.000 A 
ATOM     21  N   UNL     1       5.119  -0.148  25.549  0.00  0.00    +0.000 NA
ATOM     22  C   UNL     1       6.216  -0.362  26.233  0.00  0.00    +0.000 A 
ATOM     23  C   UNL     1       7.004   0.497  27.087  0.00  0.00    +0.000 A 
ATOM     24  C   UNL     1       7.172   1.789  26.858  0.00  0.00    +0.000 A 
ATOM     25  C   UNL     1       6.298   1.960  25.583  0.00  0.00    +0.000 A 
BRANCH  25  26
ATOM     26  N   UNL     1       7.039   2.682  24.593  0.00  0.00    +0.000 N 
ATOM     27  C   UNL     1       6.490   2.657  23.279  0.00  0.00    +0.000 C 
ATOM     28  C   UNL     1       7.404   3.443  22.325  0.00  0.00    +0.000 C 
ATOM     29  O   UNL     1       7.460   4.719  22.761  0.00  0.00    +0.000 OA
ATOM     30  C   UNL     1       8.603   5.055  23.406  0.00  0.00    +0.000 C 
ATOM     31  C   UNL     1       9.042   4.235  24.530  0.00  0.00    +0.000 C 
ATOM     32  C   UNL     1       8.408   2.931  24.887  0.00  0.00    +0.000 C 
ENDBRANCH  25  26
ENDBRANCH  19  22
ENDBRANCH   1  19
TORSDOF 4
ENDMDL
MODEL 9
REMARK VINA RESULT:      -8.0      2.010      4.034
REMARK  Name = 
REMARK  4 active torsions:
REMARK  status: ('A' for Active; 'I' for Inactive)
REMARK    1  A    between atoms: C_4  and  C_5
REMARK    2  A    between atoms: C_5  and  C_8
REMARK    3  A    between atoms: C_24  and  C_26
REMARK    4  A    between atoms: C_44  and  N_45
REMARK                            x       y       z     vdW  Elec       q    Type
REMARK                         _______ _______ _______ _____ _____    ______ ____
ROOT
ATOM      1  C   UNL     1       9.917   0.838  23.625  0.00  0.00    +0.000 C 
ATOM      2  O   UNL     1      11.123   0.955  24.046  0.00  0.00    +0.000 OA
ATOM      3  N   UNL     1       9.782   0.181  22.506  0.00  0.00    +0.000 N 
ATOM      4  C   UNL     1       9.103   0.789  21.276  0.00  0.00    +0.000 C 
ATOM      5  C   UNL     1       7.960   0.310  21.123  0.00  0.00    +0.000 A 
ATOM      6  C   UNL     1       7.658   0.344  19.697  0.00  0.00    +0.000 A 
ATOM      7  C   UNL     1       6.618  -0.338  18.897  0.00  0.00    +0.000 A 
ATOM      8  C   UNL     1       5.962  -1.233  19.923  0.00  0.00    +0.000 A 
ATOM      9  C   UNL     1       6.305  -1.585  21.283  0.00  0.00    +0.000 A 
ATOM     10  C   UNL     1       7.514  -0.928  21.718  0.00  0.00    +0.000 A 
ATOM     11  C   UNL     1       8.727  -1.973  21.920  0.00  0.00    +0.000 C 
ATOM     12  C   UNL     1       9.959  -1.244  22.345  0.00  0.00    +0.000 C 
ENDROOT
BRANCH  11  13
ATOM     13  C   UNL     1       8.174  -2.843  22.884  0.00  0.00    +0.000 A 
ATOM     14  C   UNL     1       7.518  -4.064  22.237  0.00  0.00    +0.000 A 
ATOM     15  C   UNL     1       7.433  -5.434  22.814  0.00  0.00    +0.000 A 
ATOM     16  C   UNL     1       8.203  -5.380  24.114  0.00  0.00    +0.000 A 
ATOM     17  C   UNL     1       9.002  -4.467  24.793  0.00  0.00    +0.000 A 
ATOM     18  C   UNL     1       8.589  -3.057  24.248  0.00  0.00    +0.000 A 
ENDBRANCH  11  13
BRANCH   1  19
ATOM     19  C   UNL     1       8.893   1.411  24.536  0.00  0.00    +0.000 C 
BRANCH  19  22
ATOM     20  C   UNL     1       8.190  -1.036  26.850  0.00  0.00    +0.000 A 
ATOM     21  N   UNL     1       9.031  -0.164  26.119  0.00  0.00    +0.000 NA
ATOM     22  C   UNL     1       8.245   0.697  25.518  0.00  0.00    +0.000 A 
ATOM     23  C   UNL     1       6.972   1.266  25.895  0.00  0.00    +0.000 A 
ATOM     24  C   UNL     1       6.047   0.594  26.558  0.00  0.00    +0.000 A 
ATOM     25  C   UNL     1       6.782  -0.760  26.766  0.00  0.00    +0.000 A 
BRANCH  25  26
ATOM     26  N   UNL     1       5.911  -1.835  26.398  0.00  0.00    +0.000 N 
ATOM     27  C   UNL     1       5.383  -1.770  25.077  0.00  0.00    +0.000 C 
ATOM     28  C   UNL     1       4.446  -2.965  24.837  0.00  0.00    +0.000 C 
ATOM     29  O   UNL     1       5.172  -4.094  24.973  0.00  0.00    +0.000 OA
ATOM     30  C   UNL     1       4.984  -4.760  26.138  0.00  0.00    +0.000 C 
ATOM     31  C   UNL     1       5.144  -4.036  27.395  0.00  0.00    +0.000 C 
ATOM     32  C   UNL     1       5.310  -2.554  27.468  0.00  0.00    +0.000 C 
ENDBRANCH  25  26
ENDBRANCH  19  22
ENDBRANCH   1  19
TORSDOF 4
ENDMDL
