MODEL 1
REMARK VINA RESULT:      -8.9      0.000      0.000
REMARK  Name = 
REMARK  6 active torsions:
REMARK  status: ('A' for Active; 'I' for Inactive)
REMARK    1  A    between atoms: C_14  and  N_16
REMARK    2  A    between atoms: N_16  and  C_23
REMARK    3  A    between atoms: C_17  and  C_19
REMARK    4  A    between atoms: C_28  and  C_29
REMARK    5  A    between atoms: C_29  and  C_32
REMARK    6  A    between atoms: C_44  and  C_46
REMARK                            x       y       z     vdW  Elec       q    Type
REMARK                         _______ _______ _______ _____ _____    ______ ____
ROOT
ATOM      1  C   UNL     1       9.008   2.240  24.140  0.00  0.00    +0.000 A 
ATOM      2  C   UNL     1       8.121   1.181  24.717  0.00  0.00    +0.000 A 
ATOM      3  C   UNL     1       8.476  -0.161  25.125  0.00  0.00    +0.000 A 
ATOM      4  C   UNL     1       9.908  -0.526  24.615  0.00  0.00    +0.000 A 
ATOM      5  C   UNL     1      10.984   0.479  24.383  0.00  0.00    +0.000 A 
ATOM      6  C   UNL     1      10.445   1.917  24.205  0.00  0.00    +0.000 A 
ENDROOT
BRANCH   1   7
ATOM      7  N   UNL     1       8.322   2.580  23.021  0.00  0.00    +0.000 N 
ATOM      8  C   UNL     1       7.488   3.586  23.276  0.00  0.00    +0.000 C 
ATOM      9  O   UNL     1       6.755   3.550  24.267  0.00  0.00    +0.000 OA
BRANCH   7  17
ATOM     10  C   UNL     1       8.625   0.880  21.260  0.00  0.00    +0.000 C 
ATOM     11  C   UNL     1       8.203  -0.262  20.633  0.00  0.00    +0.000 C 
ATOM     12  S   UNL     1       6.802  -0.062  19.320  0.00  0.00    +0.000 S 
ATOM     13  O   UNL     1       7.403   0.234  18.146  0.00  0.00    +0.000 OA
ATOM     14  O   UNL     1       5.851  -0.988  19.619  0.00  0.00    +0.000 OA
ATOM     15  C   UNL     1       6.215   1.551  20.055  0.00  0.00    +0.000 C 
ATOM     16  C   UNL     1       6.440   1.709  21.608  0.00  0.00    +0.000 C 
ATOM     17  C   UNL     1       7.649   1.628  22.294  0.00  0.00    +0.000 C 
ENDBRANCH   7  17
BRANCH   8  18
ATOM     18  C   UNL     1       7.455   4.774  22.369  0.00  0.00    +0.000 C 
ATOM     19 CL   UNL     1       6.065   5.828  22.703  0.00  0.00    +0.000 Cl
ENDBRANCH   8  18
ENDBRANCH   1   7
BRANCH   4  20
ATOM     20  C   UNL     1       9.701  -1.768  23.678  0.00  0.00    +0.000 C 
BRANCH  20  21
ATOM     21  C   UNL     1       8.879  -2.846  24.272  0.00  0.00    +0.000 C 
ATOM     22  O   UNL     1       8.880  -3.071  25.476  0.00  0.00    +0.000 OA
ATOM     23  N   UNL     1       7.830  -3.335  23.532  0.00  0.00    +0.000 N 
ATOM     24  C   UNL     1       6.569  -2.618  23.603  0.00  0.00    +0.000 C 
ATOM     25  C   UNL     1       5.695  -3.019  22.439  0.00  0.00    +0.000 C 
ATOM     26  C   UNL     1       5.455  -4.501  22.375  0.00  0.00    +0.000 C 
ATOM     27  C   UNL     1       6.435  -5.339  23.151  0.00  0.00    +0.000 C 
ATOM     28  C   UNL     1       7.830  -4.723  23.153  0.00  0.00    +0.000 C 
BRANCH  27  29
ATOM     29  C   UNL     1       5.936  -5.818  24.373  0.00  0.00    +0.000 C 
ATOM     30  N   UNL     1       6.504  -5.389  25.659  0.00  0.00    +0.000 NA
ATOM     31  C   UNL     1       5.842  -5.989  26.711  0.00  0.00    +0.000 A 
ATOM     32  C   UNL     1       5.956  -4.923  27.761  0.00  0.00    +0.000 A 
ATOM     33  C   UNL     1       4.883  -4.203  28.475  0.00  0.00    +0.000 A 
ATOM     34  C   UNL     1       3.602  -4.752  27.900  0.00  0.00    +0.000 A 
ATOM     35  C   UNL     1       3.152  -5.768  27.028  0.00  0.00    +0.000 A 
ATOM     36  C   UNL     1       4.443  -6.364  26.414  0.00  0.00    +0.000 A 
ATOM     37  S   UNL     1       4.187  -6.102  24.660  0.00  0.00    +0.000 S 
ENDBRANCH  27  29
ENDBRANCH  20  21
ENDBRANCH   4  20
TORSDOF 6
ENDMDL
MODEL 2
REMARK VINA RESULT:      -8.8      1.423      2.426
REMARK  Name = 
REMARK  6 active torsions:
REMARK  status: ('A' for Active; 'I' for Inactive)
REMARK    1  A    between atoms: C_14  and  N_16
REMARK    2  A    between atoms: N_16  and  C_23
REMARK    3  A    between atoms: C_17  and  C_19
REMARK    4  A    between atoms: C_28  and  C_29
REMARK    5  A    between atoms: C_29  and  C_32
REMARK    6  A    between atoms: C_44  and  C_46
REMARK                            x       y       z     vdW  Elec       q    Type
REMARK                         _______ _______ _______ _____ _____    ______ ____
ROOT
ATOM      1  C   UNL     1       9.306   2.657  23.926  0.00  0.00    +0.000 A 
ATOM      2  C   UNL     1       8.457   1.724  24.730  0.00  0.00    +0.000 A 
ATOM      3  C   UNL     1       8.796   0.409  25.232  0.00  0.00    +0.000 A 
ATOM      4  C   UNL     1      10.121  -0.100  24.576  0.00  0.00    +0.000 A 
ATOM      5  C   UNL     1      11.203   0.803  24.091  0.00  0.00    +0.000 A 
ATOM      6  C   UNL     1      10.720   2.248  23.830  0.00  0.00    +0.000 A 
ENDROOT
BRANCH   1   7
ATOM      7  N   UNL     1       8.488   2.926  22.879  0.00  0.00    +0.000 N 
ATOM      8  C   UNL     1       7.622   3.884  23.202  0.00  0.00    +0.000 C 
ATOM      9  O   UNL     1       6.999   3.828  24.266  0.00  0.00    +0.000 OA
BRANCH   7  17
ATOM     10  C   UNL     1       8.754   1.120  21.220  0.00  0.00    +0.000 C 
ATOM     11  C   UNL     1       8.330  -0.068  20.687  0.00  0.00    +0.000 C 
ATOM     12  S   UNL     1       6.873   0.021  19.424  0.00  0.00    +0.000 S 
ATOM     13  O   UNL     1       7.418   0.250  18.209  0.00  0.00    +0.000 OA
ATOM     14  O   UNL     1       5.954  -0.901  19.822  0.00  0.00    +0.000 OA
ATOM     15  C   UNL     1       6.282   1.667  20.078  0.00  0.00    +0.000 C 
ATOM     16  C   UNL     1       6.567   1.931  21.607  0.00  0.00    +0.000 C 
ATOM     17  C   UNL     1       7.806   1.917  22.245  0.00  0.00    +0.000 C 
ENDBRANCH   7  17
BRANCH   8  18
ATOM     18  C   UNL     1       7.418   5.045  22.282  0.00  0.00    +0.000 C 
ATOM     19 CL   UNL     1       5.838   5.818  22.527  0.00  0.00    +0.000 Cl
ENDBRANCH   8  18
ENDBRANCH   1   7
BRANCH   4  20
ATOM     20  C   UNL     1       9.719  -1.415  23.818  0.00  0.00    +0.000 C 
BRANCH  20  21
ATOM     21  C   UNL     1       8.445  -2.012  24.273  0.00  0.00    +0.000 C 
ATOM     22  O   UNL     1       7.395  -1.837  23.665  0.00  0.00    +0.000 OA
ATOM     23  N   UNL     1       8.507  -3.069  25.148  0.00  0.00    +0.000 N 
ATOM     24  C   UNL     1       8.687  -4.396  24.583  0.00  0.00    +0.000 C 
ATOM     25  C   UNL     1       9.156  -5.343  25.661  0.00  0.00    +0.000 C 
ATOM     26  C   UNL     1       8.222  -5.394  26.837  0.00  0.00    +0.000 C 
ATOM     27  C   UNL     1       7.277  -4.228  26.952  0.00  0.00    +0.000 C 
ATOM     28  C   UNL     1       7.912  -2.934  26.451  0.00  0.00    +0.000 C 
BRANCH  27  29
ATOM     29  C   UNL     1       5.966  -4.511  26.536  0.00  0.00    +0.000 C 
ATOM     30  N   UNL     1       5.453  -4.050  25.238  0.00  0.00    +0.000 NA
ATOM     31  C   UNL     1       4.147  -4.458  25.057  0.00  0.00    +0.000 A 
ATOM     32  C   UNL     1       4.111  -4.632  23.566  0.00  0.00    +0.000 A 
ATOM     33  C   UNL     1       3.810  -5.844  22.779  0.00  0.00    +0.000 A 
ATOM     34  C   UNL     1       3.564  -6.919  23.808  0.00  0.00    +0.000 A 
ATOM     35  C   UNL     1       3.425  -7.073  25.205  0.00  0.00    +0.000 A 
ATOM     36  C   UNL     1       3.786  -5.687  25.794  0.00  0.00    +0.000 A 
ATOM     37  S   UNL     1       5.160  -6.078  26.874  0.00  0.00    +0.000 S 
ENDBRANCH  27  29
ENDBRANCH  20  21
ENDBRANCH   4  20
TORSDOF 6
ENDMDL
MODEL 3
REMARK VINA RESULT:      -8.2      3.610      9.172
REMARK  Name = 
REMARK  6 active torsions:
REMARK  status: ('A' for Active; 'I' for Inactive)
REMARK    1  A    between atoms: C_14  and  N_16
REMARK    2  A    between atoms: N_16  and  C_23
REMARK    3  A    between atoms: C_17  and  C_19
REMARK    4  A    between atoms: C_28  and  C_29
REMARK    5  A    between atoms: C_29  and  C_32
REMARK    6  A    between atoms: C_44  and  C_46
REMARK                            x       y       z     vdW  Elec       q    Type
REMARK                         _______ _______ _______ _____ _____    ______ ____
ROOT
ATOM      1  C   UNL     1       4.619  -5.525  22.733  0.00  0.00    +0.000 A 
ATOM      2  C   UNL     1       4.611  -4.106  23.208  0.00  0.00    +0.000 A 
ATOM      3  C   UNL     1       5.648  -3.107  23.066  0.00  0.00    +0.000 A 
ATOM      4  C   UNL     1       6.981  -3.769  22.585  0.00  0.00    +0.000 A 
ATOM      5  C   UNL     1       7.037  -5.008  21.759  0.00  0.00    +0.000 A 
ATOM      6  C   UNL     1       5.742  -5.849  21.834  0.00  0.00    +0.000 A 
ENDROOT
BRANCH   1   7
ATOM      7  N   UNL     1       4.299  -6.189  23.871  0.00  0.00    +0.000 N 
ATOM      8  C   UNL     1       3.006  -6.506  23.875  0.00  0.00    +0.000 C 
ATOM      9  O   UNL     1       2.157  -5.659  23.586  0.00  0.00    +0.000 OA
BRANCH   7  17
ATOM     10  C   UNL     1       6.142  -6.019  25.501  0.00  0.00    +0.000 C 
ATOM     11  C   UNL     1       6.727  -5.382  26.564  0.00  0.00    +0.000 C 
ATOM     12  S   UNL     1       6.056  -5.828  28.318  0.00  0.00    +0.000 S 
ATOM     13  O   UNL     1       6.737  -6.920  28.733  0.00  0.00    +0.000 OA
ATOM     14  O   UNL     1       5.801  -4.650  28.950  0.00  0.00    +0.000 OA
ATOM     15  C   UNL     1       4.422  -6.428  27.643  0.00  0.00    +0.000 C 
ATOM     16  C   UNL     1       3.941  -5.730  26.312  0.00  0.00    +0.000 C 
ATOM     17  C   UNL     1       4.626  -5.670  25.101  0.00  0.00    +0.000 C 
ENDBRANCH   7  17
BRANCH   8  18
ATOM     18  C   UNL     1       2.582  -7.900  24.211  0.00  0.00    +0.000 C 
ATOM     19 CL   UNL     1       1.517  -7.948  25.631  0.00  0.00    +0.000 Cl
ENDBRANCH   8  18
ENDBRANCH   1   7
BRANCH   4  20
ATOM     20  C   UNL     1       8.017  -3.469  23.725  0.00  0.00    +0.000 C 
BRANCH  20  21
ATOM     21  C   UNL     1       8.177  -2.033  24.039  0.00  0.00    +0.000 C 
ATOM     22  O   UNL     1       8.686  -1.652  25.087  0.00  0.00    +0.000 OA
ATOM     23  N   UNL     1       8.113  -1.137  22.999  0.00  0.00    +0.000 N 
ATOM     24  C   UNL     1       9.332  -0.897  22.246  0.00  0.00    +0.000 C 
ATOM     25  C   UNL     1       8.989  -0.251  20.925  0.00  0.00    +0.000 C 
ATOM     26  C   UNL     1       8.209   1.023  21.085  0.00  0.00    +0.000 C 
ATOM     27  C   UNL     1       7.538   1.196  22.422  0.00  0.00    +0.000 C 
ATOM     28  C   UNL     1       7.078  -0.138  23.000  0.00  0.00    +0.000 C 
BRANCH  27  29
ATOM     29  C   UNL     1       8.202   2.083  23.285  0.00  0.00    +0.000 C 
ATOM     30  N   UNL     1       9.666   2.207  23.284  0.00  0.00    +0.000 NA
ATOM     31  C   UNL     1      10.078   3.144  24.210  0.00  0.00    +0.000 A 
ATOM     32  C   UNL     1      11.311   3.679  23.542  0.00  0.00    +0.000 A 
ATOM     33  C   UNL     1      11.615   5.061  23.121  0.00  0.00    +0.000 A 
ATOM     34  C   UNL     1      10.384   5.853  23.485  0.00  0.00    +0.000 A 
ATOM     35  C   UNL     1       9.159   5.701  24.172  0.00  0.00    +0.000 A 
ATOM     36  C   UNL     1       9.076   4.190  24.503  0.00  0.00    +0.000 A 
ATOM     37  S   UNL     1       7.554   3.707  23.691  0.00  0.00    +0.000 S 
ENDBRANCH  27  29
ENDBRANCH  20  21
ENDBRANCH   4  20
TORSDOF 6
ENDMDL
MODEL 4
REMARK VINA RESULT:      -8.2      3.372      7.204
REMARK  Name = 
REMARK  6 active torsions:
REMARK  status: ('A' for Active; 'I' for Inactive)
REMARK    1  A    between atoms: C_14  and  N_16
REMARK    2  A    between atoms: N_16  and  C_23
REMARK    3  A    between atoms: C_17  and  C_19
REMARK    4  A    between atoms: C_28  and  C_29
REMARK    5  A    between atoms: C_29  and  C_32
REMARK    6  A    between atoms: C_44  and  C_46
REMARK                            x       y       z     vdW  Elec       q    Type
REMARK                         _______ _______ _______ _____ _____    ______ ____
ROOT
ATOM      1  C   UNL     1       9.458  -1.729  24.484  0.00  0.00    +0.000 A 
ATOM      2  C   UNL     1       9.602  -1.976  23.015  0.00  0.00    +0.000 A 
ATOM      3  C   UNL     1      10.080  -1.067  21.996  0.00  0.00    +0.000 A 
ATOM      4  C   UNL     1      10.175   0.388  22.562  0.00  0.00    +0.000 A 
ATOM      5  C   UNL     1      10.420   0.701  23.998  0.00  0.00    +0.000 A 
ATOM      6  C   UNL     1      10.082  -0.474  24.944  0.00  0.00    +0.000 A 
ENDROOT
BRANCH   1   7
ATOM      7  N   UNL     1       8.168  -2.093  24.689  0.00  0.00    +0.000 N 
ATOM      8  C   UNL     1       7.981  -2.441  25.960  0.00  0.00    +0.000 C 
ATOM      9  O   UNL     1       8.766  -3.213  26.516  0.00  0.00    +0.000 OA
BRANCH   7  17
ATOM     10  C   UNL     1       6.190  -2.482  23.267  0.00  0.00    +0.000 C 
ATOM     11  C   UNL     1       5.580  -3.169  22.252  0.00  0.00    +0.000 C 
ATOM     12  S   UNL     1       4.809  -4.880  22.703  0.00  0.00    +0.000 S 
ATOM     13  O   UNL     1       3.557  -4.641  23.152  0.00  0.00    +0.000 OA
ATOM     14  O   UNL     1       5.265  -5.769  21.779  0.00  0.00    +0.000 OA
ATOM     15  C   UNL     1       5.900  -5.079  24.206  0.00  0.00    +0.000 C 
ATOM     16  C   UNL     1       7.312  -4.381  24.117  0.00  0.00    +0.000 C 
ATOM     17  C   UNL     1       7.568  -3.032  23.886  0.00  0.00    +0.000 C 
ENDBRANCH   7  17
BRANCH   8  18
ATOM     18  C   UNL     1       6.826  -1.879  26.724  0.00  0.00    +0.000 C 
ATOM     19 CL   UNL     1       5.667  -3.138  27.201  0.00  0.00    +0.000 Cl
ENDBRANCH   8  18
ENDBRANCH   1   7
BRANCH   4  20
ATOM     20  C   UNL     1       9.199   1.234  21.671  0.00  0.00    +0.000 C 
BRANCH  20  21
ATOM     21  C   UNL     1       7.991   1.712  22.378  0.00  0.00    +0.000 C 
ATOM     22  O   UNL     1       7.324   0.972  23.092  0.00  0.00    +0.000 OA
ATOM     23  N   UNL     1       7.838   3.067  22.544  0.00  0.00    +0.000 N 
ATOM     24  C   UNL     1       8.496   3.680  23.685  0.00  0.00    +0.000 C 
ATOM     25  C   UNL     1       8.583   5.172  23.475  0.00  0.00    +0.000 C 
ATOM     26  C   UNL     1       7.242   5.806  23.238  0.00  0.00    +0.000 C 
ATOM     27  C   UNL     1       6.154   4.856  22.813  0.00  0.00    +0.000 C 
ATOM     28  C   UNL     1       6.699   3.719  21.955  0.00  0.00    +0.000 C 
BRANCH  27  29
ATOM     29  C   UNL     1       5.255   4.521  23.839  0.00  0.00    +0.000 C 
ATOM     30  N   UNL     1       4.921   3.123  24.144  0.00  0.00    +0.000 NA
ATOM     31  C   UNL     1       4.026   3.052  25.193  0.00  0.00    +0.000 A 
ATOM     32  C   UNL     1       4.434   1.753  25.825  0.00  0.00    +0.000 A 
ATOM     33  C   UNL     1       4.912   1.497  27.198  0.00  0.00    +0.000 A 
ATOM     34  C   UNL     1       4.936   2.855  27.856  0.00  0.00    +0.000 A 
ATOM     35  C   UNL     1       4.547   4.189  27.605  0.00  0.00    +0.000 A 
ATOM     36  C   UNL     1       4.090   4.197  26.125  0.00  0.00    +0.000 A 
ATOM     37  S   UNL     1       5.186   5.412  25.395  0.00  0.00    +0.000 S 
ENDBRANCH  27  29
ENDBRANCH  20  21
ENDBRANCH   4  20
TORSDOF 6
ENDMDL
MODEL 5
REMARK VINA RESULT:      -8.1      3.687      7.365
REMARK  Name = 
REMARK  6 active torsions:
REMARK  status: ('A' for Active; 'I' for Inactive)
REMARK    1  A    between atoms: C_14  and  N_16
REMARK    2  A    between atoms: N_16  and  C_23
REMARK    3  A    between atoms: C_17  and  C_19
REMARK    4  A    between atoms: C_28  and  C_29
REMARK    5  A    between atoms: C_29  and  C_32
REMARK    6  A    between atoms: C_44  and  C_46
REMARK                            x       y       z     vdW  Elec       q    Type
REMARK                         _______ _______ _______ _____ _____    ______ ____
ROOT
ATOM      1  C   UNL     1       9.290  -1.644  22.369  0.00  0.00    +0.000 A 
ATOM      2  C   UNL     1       8.363  -1.375  21.225  0.00  0.00    +0.000 A 
ATOM      3  C   UNL     1       8.188  -0.144  20.483  0.00  0.00    +0.000 A 
ATOM      4  C   UNL     1       8.901   1.041  21.215  0.00  0.00    +0.000 A 
ATOM      5  C   UNL     1      10.097   0.873  22.088  0.00  0.00    +0.000 A 
ATOM      6  C   UNL     1      10.275  -0.573  22.606  0.00  0.00    +0.000 A 
ENDROOT
BRANCH   1   7
ATOM      7  N   UNL     1       8.433  -2.150  23.290  0.00  0.00    +0.000 N 
ATOM      8  C   UNL     1       9.107  -2.651  24.324  0.00  0.00    +0.000 C 
ATOM      9  O   UNL     1      10.069  -3.399  24.135  0.00  0.00    +0.000 OA
BRANCH   7  17
ATOM     10  C   UNL     1       6.050  -2.700  23.609  0.00  0.00    +0.000 C 
ATOM     11  C   UNL     1       4.912  -3.325  23.173  0.00  0.00    +0.000 C 
ATOM     12  S   UNL     1       4.749  -5.206  23.570  0.00  0.00    +0.000 S 
ATOM     13  O   UNL     1       4.204  -5.304  24.803  0.00  0.00    +0.000 OA
ATOM     14  O   UNL     1       4.417  -5.824  22.403  0.00  0.00    +0.000 OA
ATOM     15  C   UNL     1       6.594  -5.419  23.769  0.00  0.00    +0.000 C 
ATOM     16  C   UNL     1       7.486  -4.443  22.909  0.00  0.00    +0.000 C 
ATOM     17  C   UNL     1       7.462  -3.050  22.925  0.00  0.00    +0.000 C 
ENDBRANCH   7  17
BRANCH   8  18
ATOM     18  C   UNL     1       8.709  -2.289  25.718  0.00  0.00    +0.000 C 
ATOM     19 CL   UNL     1       8.975  -0.566  26.059  0.00  0.00    +0.000 Cl
ENDBRANCH   8  18
ENDBRANCH   1   7
BRANCH   4  20
ATOM     20  C   UNL     1       7.755   2.061  21.545  0.00  0.00    +0.000 C 
BRANCH  20  21
ATOM     21  C   UNL     1       7.433   2.168  22.985  0.00  0.00    +0.000 C 
ATOM     22  O   UNL     1       7.166   1.183  23.663  0.00  0.00    +0.000 OA
ATOM     23  N   UNL     1       7.810   3.314  23.644  0.00  0.00    +0.000 N 
ATOM     24  C   UNL     1       9.169   3.376  24.154  0.00  0.00    +0.000 C 
ATOM     25  C   UNL     1       9.532   4.811  24.447  0.00  0.00    +0.000 C 
ATOM     26  C   UNL     1       8.579   5.469  25.405  0.00  0.00    +0.000 C 
ATOM     27  C   UNL     1       7.245   4.786  25.546  0.00  0.00    +0.000 C 
ATOM     28  C   UNL     1       6.796   4.144  24.238  0.00  0.00    +0.000 C 
BRANCH  27  29
ATOM     29  C   UNL     1       7.113   4.026  26.720  0.00  0.00    +0.000 C 
ATOM     30  N   UNL     1       7.030   4.661  28.043  0.00  0.00    +0.000 NA
ATOM     31  C   UNL     1       6.898   3.709  29.034  0.00  0.00    +0.000 A 
ATOM     32  C   UNL     1       6.072   4.460  30.038  0.00  0.00    +0.000 A 
ATOM     33  C   UNL     1       4.740   4.128  30.580  0.00  0.00    +0.000 A 
ATOM     34  C   UNL     1       4.347   2.851  29.879  0.00  0.00    +0.000 A 
ATOM     35  C   UNL     1       4.889   1.880  29.009  0.00  0.00    +0.000 A 
ATOM     36  C   UNL     1       6.266   2.450  28.587  0.00  0.00    +0.000 A 
ATOM     37  S   UNL     1       6.110   2.540  26.805  0.00  0.00    +0.000 S 
ENDBRANCH  27  29
ENDBRANCH  20  21
ENDBRANCH   4  20
TORSDOF 6
ENDMDL
MODEL 6
REMARK VINA RESULT:      -8.1      3.378      7.774
REMARK  Name = 
REMARK  6 active torsions:
REMARK  status: ('A' for Active; 'I' for Inactive)
REMARK    1  A    between atoms: C_14  and  N_16
REMARK    2  A    between atoms: N_16  and  C_23
REMARK    3  A    between atoms: C_17  and  C_19
REMARK    4  A    between atoms: C_28  and  C_29
REMARK    5  A    between atoms: C_29  and  C_32
REMARK    6  A    between atoms: C_44  and  C_46
REMARK                            x       y       z     vdW  Elec       q    Type
REMARK                         _______ _______ _______ _____ _____    ______ ____
ROOT
ATOM      1  C   UNL     1       3.995  -2.107  27.377  0.00  0.00    +0.000 A 
ATOM      2  C   UNL     1       5.101  -1.328  28.017  0.00  0.00    +0.000 A 
ATOM      3  C   UNL     1       5.153   0.091  28.297  0.00  0.00    +0.000 A 
ATOM      4  C   UNL     1       3.986   0.834  27.568  0.00  0.00    +0.000 A 
ATOM      5  C   UNL     1       2.679   0.198  27.238  0.00  0.00    +0.000 A 
ATOM      6  C   UNL     1       2.742  -1.346  27.217  0.00  0.00    +0.000 A 
ENDROOT
BRANCH   1   7
ATOM      7  N   UNL     1       4.662  -2.751  26.388  0.00  0.00    +0.000 N 
ATOM      8  C   UNL     1       3.923  -3.746  25.902  0.00  0.00    +0.000 C 
ATOM      9  O   UNL     1       3.365  -4.537  26.667  0.00  0.00    +0.000 OA
BRANCH   7  17
ATOM     10  C   UNL     1       6.898  -2.848  25.352  0.00  0.00    +0.000 C 
ATOM     11  C   UNL     1       8.254  -2.999  25.476  0.00  0.00    +0.000 C 
ATOM     12  S   UNL     1       8.917  -4.809  25.583  0.00  0.00    +0.000 S 
ATOM     13  O   UNL     1       9.092  -5.240  24.314  0.00  0.00    +0.000 OA
ATOM     14  O   UNL     1       9.752  -4.856  26.657  0.00  0.00    +0.000 OA
ATOM     15  C   UNL     1       7.274  -5.476  26.166  0.00  0.00    +0.000 C 
ATOM     16  C   UNL     1       6.388  -4.468  26.995  0.00  0.00    +0.000 C 
ATOM     17  C   UNL     1       5.940  -3.214  26.589  0.00  0.00    +0.000 C 
ENDBRANCH   7  17
BRANCH   8  18
ATOM     18  C   UNL     1       3.751  -3.894  24.425  0.00  0.00    +0.000 C 
ATOM     19 CL   UNL     1       4.527  -5.367  23.808  0.00  0.00    +0.000 Cl
ENDBRANCH   8  18
ENDBRANCH   1   7
BRANCH   4  20
ATOM     20  C   UNL     1       4.693   1.852  26.605  0.00  0.00    +0.000 C 
BRANCH  20  21
ATOM     21  C   UNL     1       5.582   1.224  25.603  0.00  0.00    +0.000 C 
ATOM     22  O   UNL     1       5.177   0.365  24.828  0.00  0.00    +0.000 OA
ATOM     23  N   UNL     1       6.750   1.873  25.283  0.00  0.00    +0.000 N 
ATOM     24  C   UNL     1       6.683   2.910  24.268  0.00  0.00    +0.000 C 
ATOM     25  C   UNL     1       7.913   3.781  24.355  0.00  0.00    +0.000 C 
ATOM     26  C   UNL     1       9.189   2.999  24.226  0.00  0.00    +0.000 C 
ATOM     27  C   UNL     1       9.060   1.520  24.480  0.00  0.00    +0.000 C 
ATOM     28  C   UNL     1       8.005   1.219  25.539  0.00  0.00    +0.000 C 
BRANCH  27  29
ATOM     29  C   UNL     1       9.050   0.738  23.313  0.00  0.00    +0.000 C 
ATOM     30  N   UNL     1       8.302  -0.525  23.239  0.00  0.00    +0.000 NA
ATOM     31  C   UNL     1       8.441  -1.102  21.993  0.00  0.00    +0.000 A 
ATOM     32  C   UNL     1       7.115  -1.792  21.852  0.00  0.00    +0.000 A 
ATOM     33  C   UNL     1       6.074  -1.604  20.823  0.00  0.00    +0.000 A 
ATOM     34  C   UNL     1       6.615  -0.522  19.922  0.00  0.00    +0.000 A 
ATOM     35  C   UNL     1       7.793   0.228  19.713  0.00  0.00    +0.000 A 
ATOM     36  C   UNL     1       8.713  -0.140  20.904  0.00  0.00    +0.000 A 
ATOM     37  S   UNL     1       9.004   1.454  21.668  0.00  0.00    +0.000 S 
ENDBRANCH  27  29
ENDBRANCH  20  21
ENDBRANCH   4  20
TORSDOF 6
ENDMDL
MODEL 7
REMARK VINA RESULT:      -8.1      2.524      4.324
REMARK  Name = 
REMARK  6 active torsions:
REMARK  status: ('A' for Active; 'I' for Inactive)
REMARK    1  A    between atoms: C_14  and  N_16
REMARK    2  A    between atoms: N_16  and  C_23
REMARK    3  A    between atoms: C_17  and  C_19
REMARK    4  A    between atoms: C_28  and  C_29
REMARK    5  A    between atoms: C_29  and  C_32
REMARK    6  A    between atoms: C_44  and  C_46
REMARK                            x       y       z     vdW  Elec       q    Type
REMARK                         _______ _______ _______ _____ _____    ______ ____
ROOT
ATOM      1  C   UNL     1       8.521   2.796  22.464  0.00  0.00    +0.000 A 
ATOM      2  C   UNL     1       9.602   3.001  23.478  0.00  0.00    +0.000 A 
ATOM      3  C   UNL     1      10.697   2.116  23.813  0.00  0.00    +0.000 A 
ATOM      4  C   UNL     1      10.475   0.706  23.173  0.00  0.00    +0.000 A 
ATOM      5  C   UNL     1       9.706   0.480  21.917  0.00  0.00    +0.000 A 
ATOM      6  C   UNL     1       8.747   1.643  21.572  0.00  0.00    +0.000 A 
ENDROOT
BRANCH   1   7
ATOM      7  N   UNL     1       7.411   3.012  23.212  0.00  0.00    +0.000 N 
ATOM      8  C   UNL     1       6.561   3.805  22.563  0.00  0.00    +0.000 C 
ATOM      9  O   UNL     1       6.962   4.843  22.031  0.00  0.00    +0.000 OA
BRANCH   7  17
ATOM     10  C   UNL     1       6.938   2.365  25.545  0.00  0.00    +0.000 C 
ATOM     11  C   UNL     1       7.182   2.509  26.885  0.00  0.00    +0.000 C 
ATOM     12  S   UNL     1       6.294   3.973  27.775  0.00  0.00    +0.000 S 
ATOM     13  O   UNL     1       5.076   3.524  28.152  0.00  0.00    +0.000 OA
ATOM     14  O   UNL     1       7.249   4.639  28.479  0.00  0.00    +0.000 OA
ATOM     15  C   UNL     1       6.058   4.920  26.183  0.00  0.00    +0.000 C 
ATOM     16  C   UNL     1       7.155   4.671  25.077  0.00  0.00    +0.000 C 
ATOM     17  C   UNL     1       7.514   3.451  24.509  0.00  0.00    +0.000 C 
ENDBRANCH   7  17
BRANCH   8  18
ATOM     18  C   UNL     1       5.119   3.426  22.460  0.00  0.00    +0.000 C 
ATOM     19 CL   UNL     1       4.044   4.783  22.855  0.00  0.00    +0.000 Cl
ENDBRANCH   8  18
ENDBRANCH   1   7
BRANCH   4  20
ATOM     20  C   UNL     1      10.409  -0.285  24.389  0.00  0.00    +0.000 C 
BRANCH  20  21
ATOM     21  C   UNL     1       9.466  -1.410  24.206  0.00  0.00    +0.000 C 
ATOM     22  O   UNL     1       9.845  -2.520  23.852  0.00  0.00    +0.000 OA
ATOM     23  N   UNL     1       8.231  -1.316  24.801  0.00  0.00    +0.000 N 
ATOM     24  C   UNL     1       8.125  -1.725  26.191  0.00  0.00    +0.000 C 
ATOM     25  C   UNL     1       6.856  -1.166  26.786  0.00  0.00    +0.000 C 
ATOM     26  C   UNL     1       5.627  -1.572  26.022  0.00  0.00    +0.000 C 
ATOM     27  C   UNL     1       5.879  -2.052  24.618  0.00  0.00    +0.000 C 
ATOM     28  C   UNL     1       7.054  -1.324  23.974  0.00  0.00    +0.000 C 
BRANCH  27  29
ATOM     29  C   UNL     1       5.821  -3.448  24.472  0.00  0.00    +0.000 C 
ATOM     30  N   UNL     1       5.907  -4.348  25.630  0.00  0.00    +0.000 NA
ATOM     31  C   UNL     1       5.820  -5.667  25.231  0.00  0.00    +0.000 A 
ATOM     32  C   UNL     1       5.142  -6.277  26.424  0.00  0.00    +0.000 A 
ATOM     33  C   UNL     1       3.854  -6.994  26.495  0.00  0.00    +0.000 A 
ATOM     34  C   UNL     1       3.320  -6.966  25.084  0.00  0.00    +0.000 A 
ATOM     35  C   UNL     1       3.716  -6.592  23.781  0.00  0.00    +0.000 A 
ATOM     36  C   UNL     1       5.075  -5.872  23.972  0.00  0.00    +0.000 A 
ATOM     37  S   UNL     1       4.748  -4.253  23.280  0.00  0.00    +0.000 S 
ENDBRANCH  27  29
ENDBRANCH  20  21
ENDBRANCH   4  20
TORSDOF 6
ENDMDL
MODEL 8
REMARK VINA RESULT:      -8.0      2.857      4.540
REMARK  Name = 
REMARK  6 active torsions:
REMARK  status: ('A' for Active; 'I' for Inactive)
REMARK    1  A    between atoms: C_14  and  N_16
REMARK    2  A    between atoms: N_16  and  C_23
REMARK    3  A    between atoms: C_17  and  C_19
REMARK    4  A    between atoms: C_28  and  C_29
REMARK    5  A    between atoms: C_29  and  C_32
REMARK    6  A    between atoms: C_44  and  C_46
REMARK                            x       y       z     vdW  Elec       q    Type
REMARK                         _______ _______ _______ _____ _____    ______ ____
ROOT
ATOM      1  C   UNL     1       8.485   2.144  23.388  0.00  0.00    +0.000 A 
ATOM      2  C   UNL     1       9.523   1.323  24.087  0.00  0.00    +0.000 A 
ATOM      3  C   UNL     1      10.332   0.251  23.546  0.00  0.00    +0.000 A 
ATOM      4  C   UNL     1       9.790  -0.190  22.147  0.00  0.00    +0.000 A 
ATOM      5  C   UNL     1       9.062   0.721  21.218  0.00  0.00    +0.000 A 
ATOM      6  C   UNL     1       8.457   1.956  21.926  0.00  0.00    +0.000 A 
ENDROOT
BRANCH   1   7
ATOM      7  N   UNL     1       7.428   2.003  24.225  0.00  0.00    +0.000 N 
ATOM      8  C   UNL     1       6.504   2.925  23.963  0.00  0.00    +0.000 C 
ATOM      9  O   UNL     1       6.826   4.108  23.830  0.00  0.00    +0.000 OA
BRANCH   7  17
ATOM     10  C   UNL     1       6.976   0.605  26.206  0.00  0.00    +0.000 C 
ATOM     11  C   UNL     1       7.275   0.245  27.493  0.00  0.00    +0.000 C 
ATOM     12  S   UNL     1       6.552   1.357  28.895  0.00  0.00    +0.000 S 
ATOM     13  O   UNL     1       5.312   0.893  29.165  0.00  0.00    +0.000 OA
ATOM     14  O   UNL     1       7.586   1.659  29.727  0.00  0.00    +0.000 OA
ATOM     15  C   UNL     1       6.351   2.823  27.755  0.00  0.00    +0.000 C 
ATOM     16  C   UNL     1       7.384   2.905  26.566  0.00  0.00    +0.000 C 
ATOM     17  C   UNL     1       7.612   1.943  25.585  0.00  0.00    +0.000 C 
ENDBRANCH   7  17
BRANCH   8  18
ATOM     18  C   UNL     1       5.072   2.522  23.810  0.00  0.00    +0.000 C 
ATOM     19 CL   UNL     1       3.965   3.712  24.526  0.00  0.00    +0.000 Cl
ENDBRANCH   8  18
ENDBRANCH   1   7
BRANCH   4  20
ATOM     20  C   UNL     1       9.401  -1.700  22.320  0.00  0.00    +0.000 C 
BRANCH  20  21
ATOM     21  C   UNL     1       8.400  -1.952  23.379  0.00  0.00    +0.000 C 
ATOM     22  O   UNL     1       7.231  -1.605  23.260  0.00  0.00    +0.000 OA
ATOM     23  N   UNL     1       8.688  -2.910  24.321  0.00  0.00    +0.000 N 
ATOM     24  C   UNL     1       8.378  -4.291  23.988  0.00  0.00    +0.000 C 
ATOM     25  C   UNL     1       9.132  -5.214  24.914  0.00  0.00    +0.000 C 
ATOM     26  C   UNL     1       8.845  -4.944  26.365  0.00  0.00    +0.000 C 
ATOM     27  C   UNL     1       8.255  -3.591  26.657  0.00  0.00    +0.000 C 
ATOM     28  C   UNL     1       8.785  -2.525  25.703  0.00  0.00    +0.000 C 
BRANCH  27  29
ATOM     29  C   UNL     1       6.873  -3.611  26.904  0.00  0.00    +0.000 C 
ATOM     30  N   UNL     1       5.920  -2.939  26.010  0.00  0.00    +0.000 NA
ATOM     31  C   UNL     1       4.626  -3.106  26.459  0.00  0.00    +0.000 A 
ATOM     32  C   UNL     1       3.875  -3.115  25.159  0.00  0.00    +0.000 A 
ATOM     33  C   UNL     1       3.018  -4.172  24.588  0.00  0.00    +0.000 A 
ATOM     34  C   UNL     1       3.070  -5.295  25.593  0.00  0.00    +0.000 A 
ATOM     35  C   UNL     1       3.563  -5.570  26.888  0.00  0.00    +0.000 A 
ATOM     36  C   UNL     1       4.414  -4.331  27.259  0.00  0.00    +0.000 A 
ATOM     37  S   UNL     1       6.026  -5.052  27.558  0.00  0.00    +0.000 S 
ENDBRANCH  27  29
ENDBRANCH  20  21
ENDBRANCH   4  20
TORSDOF 6
ENDMDL
MODEL 9
REMARK VINA RESULT:      -7.7      2.898      8.191
REMARK  Name = 
REMARK  6 active torsions:
REMARK  status: ('A' for Active; 'I' for Inactive)
REMARK    1  A    between atoms: C_14  and  N_16
REMARK    2  A    between atoms: N_16  and  C_23
REMARK    3  A    between atoms: C_17  and  C_19
REMARK    4  A    between atoms: C_28  and  C_29
REMARK    5  A    between atoms: C_29  and  C_32
REMARK    6  A    between atoms: C_44  and  C_46
REMARK                            x       y       z     vdW  Elec       q    Type
REMARK                         _______ _______ _______ _____ _____    ______ ____
ROOT
ATOM      1  C   UNL     1       6.591  -4.882  25.600  0.00  0.00    +0.000 A 
ATOM      2  C   UNL     1       5.389  -5.245  24.785  0.00  0.00    +0.000 A 
ATOM      3  C   UNL     1       5.330  -5.595  23.382  0.00  0.00    +0.000 A 
ATOM      4  C   UNL     1       6.687  -5.263  22.679  0.00  0.00    +0.000 A 
ATOM      5  C   UNL     1       8.002  -5.262  23.379  0.00  0.00    +0.000 A 
ATOM      6  C   UNL     1       7.874  -5.121  24.914  0.00  0.00    +0.000 A 
ENDROOT
BRANCH   1   7
ATOM      7  N   UNL     1       6.194  -3.707  26.149  0.00  0.00    +0.000 N 
ATOM      8  C   UNL     1       7.239  -2.900  26.322  0.00  0.00    +0.000 C 
ATOM      9  O   UNL     1       8.271  -3.323  26.847  0.00  0.00    +0.000 OA
BRANCH   7  17
ATOM     10  C   UNL     1       5.646  -5.024  28.161  0.00  0.00    +0.000 C 
ATOM     11  C   UNL     1       5.173  -5.080  29.445  0.00  0.00    +0.000 C 
ATOM     12  S   UNL     1       3.256  -5.126  29.662  0.00  0.00    +0.000 S 
ATOM     13  O   UNL     1       2.881  -6.422  29.579  0.00  0.00    +0.000 OA
ATOM     14  O   UNL     1       2.944  -4.171  30.579  0.00  0.00    +0.000 OA
ATOM     15  C   UNL     1       2.955  -4.362  27.985  0.00  0.00    +0.000 C 
ATOM     16  C   UNL     1       4.085  -3.389  27.470  0.00  0.00    +0.000 C 
ATOM     17  C   UNL     1       5.433  -3.689  27.292  0.00  0.00    +0.000 C 
ENDBRANCH   7  17
BRANCH   8  18
ATOM     18  C   UNL     1       7.168  -1.480  25.860  0.00  0.00    +0.000 C 
ATOM     19 CL   UNL     1       8.567  -0.532  26.406  0.00  0.00    +0.000 Cl
ENDBRANCH   8  18
ENDBRANCH   1   7
BRANCH   4  20
ATOM     20  C   UNL     1       6.322  -4.214  21.570  0.00  0.00    +0.000 C 
BRANCH  20  21
ATOM     21  C   UNL     1       6.260  -2.817  22.052  0.00  0.00    +0.000 C 
ATOM     22  O   UNL     1       5.561  -2.493  23.005  0.00  0.00    +0.000 OA
ATOM     23  N   UNL     1       7.272  -1.964  21.684  0.00  0.00    +0.000 N 
ATOM     24  C   UNL     1       8.480  -1.971  22.492  0.00  0.00    +0.000 C 
ATOM     25  C   UNL     1       9.606  -1.326  21.721  0.00  0.00    +0.000 C 
ATOM     26  C   UNL     1       9.279   0.071  21.273  0.00  0.00    +0.000 C 
ATOM     27  C   UNL     1       7.812   0.410  21.263  0.00  0.00    +0.000 C 
ATOM     28  C   UNL     1       6.955  -0.799  20.903  0.00  0.00    +0.000 C 
BRANCH  27  29
ATOM     29  C   UNL     1       7.399   1.198  22.349  0.00  0.00    +0.000 C 
ATOM     30  N   UNL     1       8.342   1.629  23.391  0.00  0.00    +0.000 NA
ATOM     31  C   UNL     1       7.701   2.396  24.343  0.00  0.00    +0.000 A 
ATOM     32  C   UNL     1       8.811   3.319  24.754  0.00  0.00    +0.000 A 
ATOM     33  C   UNL     1       8.866   4.793  24.687  0.00  0.00    +0.000 A 
ATOM     34  C   UNL     1       7.550   5.200  24.074  0.00  0.00    +0.000 A 
ATOM     35  C   UNL     1       6.314   4.638  23.685  0.00  0.00    +0.000 A 
ATOM     36  C   UNL     1       6.506   3.109  23.845  0.00  0.00    +0.000 A 
ATOM     37  S   UNL     1       6.185   2.510  22.188  0.00  0.00    +0.000 S 
ENDBRANCH  27  29
ENDBRANCH  20  21
ENDBRANCH   4  20
TORSDOF 6
ENDMDL
