MODEL 1
REMARK VINA RESULT:      -8.7      0.000      0.000
REMARK  Name = 
REMARK  5 active torsions:
REMARK  status: ('A' for Active; 'I' for Inactive)
REMARK    1  A    between atoms: C_7  and  C_8
REMARK    2  A    between atoms: C_24  and  C_26
REMARK    3  A    between atoms: C_26  and  C_29
REMARK    4  A    between atoms: C_29  and  C_31
REMARK    5  A    between atoms: C_40  and  C_42
REMARK                            x       y       z     vdW  Elec       q    Type
REMARK                         _______ _______ _______ _____ _____    ______ ____
ROOT
ATOM      1  C   UNL     1       9.284   0.043  21.326  0.00  0.00    +0.000 C 
ATOM      2  C   UNL     1       9.816   1.410  21.948  0.00  0.00    +0.000 A 
ATOM      3  C   UNL     1       8.846   2.094  21.931  0.00  0.00    +0.000 A 
ATOM      4  C   UNL     1       7.688   2.785  22.737  0.00  0.00    +0.000 A 
ATOM      5  C   UNL     1       8.229   2.465  24.096  0.00  0.00    +0.000 A 
ATOM      6  C   UNL     1       9.278   1.792  24.660  0.00  0.00    +0.000 A 
ATOM      7  C   UNL     1      10.208   1.305  23.460  0.00  0.00    +0.000 A 
ATOM      8  C   UNL     1      10.750   0.089  23.829  0.00  0.00    +0.000 C 
ATOM      9  N   UNL     1      10.325  -1.065  23.271  0.00  0.00    +0.000 N 
ATOM     10  C   UNL     1       9.392  -1.986  23.708  0.00  0.00    +0.000 C 
ATOM     11  O   UNL     1       9.939  -2.817  24.372  0.00  0.00    +0.000 OA
ATOM     12  C   UNL     1      10.080  -0.898  21.995  0.00  0.00    +0.000 C 
ENDROOT
BRANCH   1  16
ATOM     13  C   UNL     1       5.656  -1.318  19.496  0.00  0.00    +0.000 A 
ATOM     14  C   UNL     1       6.201  -1.904  20.805  0.00  0.00    +0.000 A 
ATOM     15  C   UNL     1       7.319  -1.407  21.610  0.00  0.00    +0.000 A 
ATOM     16  C   UNL     1       7.961  -0.061  21.004  0.00  0.00    +0.000 A 
ATOM     17  C   UNL     1       7.265   0.693  19.930  0.00  0.00    +0.000 A 
ATOM     18  C   UNL     1       6.493  -0.261  18.978  0.00  0.00    +0.000 A 
ENDBRANCH   1  16
BRANCH  10  19
ATOM     19  C   UNL     1       8.275  -1.097  24.321  0.00  0.00    +0.000 C 
BRANCH  19  20
ATOM     20  C   UNL     1       7.392  -1.873  25.216  0.00  0.00    +0.000 C 
ATOM     21  O   UNL     1       7.145  -1.260  26.322  0.00  0.00    +0.000 OA
BRANCH  20  22
ATOM     22  C   UNL     1       6.439  -2.936  24.919  0.00  0.00    +0.000 C 
ATOM     23  C   UNL     1       5.066  -2.611  24.455  0.00  0.00    +0.000 C 
ATOM     24  C   UNL     1       4.502  -3.838  23.686  0.00  0.00    +0.000 C 
ATOM     25  N   UNL     1       5.064  -5.046  24.284  0.00  0.00    +0.000 N 
ATOM     26  C   UNL     1       5.155  -6.194  23.595  0.00  0.00    +0.000 C 
ATOM     27  O   UNL     1       4.788  -7.254  24.127  0.00  0.00    +0.000 OA
ATOM     28  C   UNL     1       5.316  -5.019  25.714  0.00  0.00    +0.000 C 
ATOM     29  C   UNL     1       6.316  -3.931  26.082  0.00  0.00    +0.000 C 
BRANCH  26  30
ATOM     30  C   UNL     1       5.446  -6.195  22.126  0.00  0.00    +0.000 C 
ATOM     31 CL   UNL     1       7.123  -5.605  21.840  0.00  0.00    +0.000 Cl
ENDBRANCH  26  30
ENDBRANCH  20  22
ENDBRANCH  19  20
ENDBRANCH  10  19
TORSDOF 5
ENDMDL
MODEL 2
REMARK VINA RESULT:      -8.2      1.422      1.781
REMARK  Name = 
REMARK  5 active torsions:
REMARK  status: ('A' for Active; 'I' for Inactive)
REMARK    1  A    between atoms: C_7  and  C_8
REMARK    2  A    between atoms: C_24  and  C_26
REMARK    3  A    between atoms: C_26  and  C_29
REMARK    4  A    between atoms: C_29  and  C_31
REMARK    5  A    between atoms: C_40  and  C_42
REMARK                            x       y       z     vdW  Elec       q    Type
REMARK                         _______ _______ _______ _____ _____    ______ ____
ROOT
ATOM      1  C   UNL     1       9.279   0.074  21.249  0.00  0.00    +0.000 C 
ATOM      2  C   UNL     1       9.772   1.388  22.004  0.00  0.00    +0.000 A 
ATOM      3  C   UNL     1       8.782   2.040  22.056  0.00  0.00    +0.000 A 
ATOM      4  C   UNL     1       7.607   2.612  22.928  0.00  0.00    +0.000 A 
ATOM      5  C   UNL     1       8.162   2.174  24.248  0.00  0.00    +0.000 A 
ATOM      6  C   UNL     1       9.234   1.481  24.741  0.00  0.00    +0.000 A 
ATOM      7  C   UNL     1      10.173   1.145  23.498  0.00  0.00    +0.000 A 
ATOM      8  C   UNL     1      10.753  -0.086  23.743  0.00  0.00    +0.000 C 
ATOM      9  N   UNL     1      10.361  -1.190  23.073  0.00  0.00    +0.000 N 
ATOM     10  C   UNL     1       9.457  -2.179  23.416  0.00  0.00    +0.000 C 
ATOM     11  O   UNL     1      10.032  -3.055  23.993  0.00  0.00    +0.000 OA
ATOM     12  C   UNL     1      10.106  -0.904  21.820  0.00  0.00    +0.000 C 
ENDROOT
BRANCH   1  16
ATOM     13  C   UNL     1       5.661  -1.343  19.441  0.00  0.00    +0.000 A 
ATOM     14  C   UNL     1       6.192  -1.880  20.777  0.00  0.00    +0.000 A 
ATOM     15  C   UNL     1       7.306  -1.356  21.571  0.00  0.00    +0.000 A 
ATOM     16  C   UNL     1       7.958  -0.037  20.919  0.00  0.00    +0.000 A 
ATOM     17  C   UNL     1       7.275   0.677  19.810  0.00  0.00    +0.000 A 
ATOM     18  C   UNL     1       6.508  -0.310  18.889  0.00  0.00    +0.000 A 
ENDBRANCH   1  16
BRANCH  10  19
ATOM     19  C   UNL     1       8.317  -1.390  24.116  0.00  0.00    +0.000 C 
BRANCH  19  20
ATOM     20  C   UNL     1       7.619  -2.218  25.121  0.00  0.00    +0.000 C 
ATOM     21  O   UNL     1       7.689  -1.721  26.308  0.00  0.00    +0.000 OA
BRANCH  20  22
ATOM     22  C   UNL     1       6.549  -3.196  24.965  0.00  0.00    +0.000 C 
ATOM     23  C   UNL     1       6.607  -4.212  23.884  0.00  0.00    +0.000 C 
ATOM     24  C   UNL     1       5.714  -5.417  24.292  0.00  0.00    +0.000 C 
ATOM     25  N   UNL     1       4.599  -4.908  25.086  0.00  0.00    +0.000 N 
ATOM     26  C   UNL     1       3.939  -5.691  25.953  0.00  0.00    +0.000 C 
ATOM     27  O   UNL     1       2.697  -5.680  25.957  0.00  0.00    +0.000 OA
ATOM     28  C   UNL     1       4.093  -3.590  24.745  0.00  0.00    +0.000 C 
ATOM     29  C   UNL     1       5.170  -2.523  24.901  0.00  0.00    +0.000 C 
BRANCH  26  30
ATOM     30  C   UNL     1       4.647  -6.755  26.731  0.00  0.00    +0.000 C 
ATOM     31 CL   UNL     1       5.882  -6.001  27.804  0.00  0.00    +0.000 Cl
ENDBRANCH  26  30
ENDBRANCH  20  22
ENDBRANCH  19  20
ENDBRANCH  10  19
TORSDOF 5
ENDMDL
MODEL 3
REMARK VINA RESULT:      -7.8      1.765      2.278
REMARK  Name = 
REMARK  5 active torsions:
REMARK  status: ('A' for Active; 'I' for Inactive)
REMARK    1  A    between atoms: C_7  and  C_8
REMARK    2  A    between atoms: C_24  and  C_26
REMARK    3  A    between atoms: C_26  and  C_29
REMARK    4  A    between atoms: C_29  and  C_31
REMARK    5  A    between atoms: C_40  and  C_42
REMARK                            x       y       z     vdW  Elec       q    Type
REMARK                         _______ _______ _______ _____ _____    ______ ____
ROOT
ATOM      1  C   UNL     1       8.646   1.481  21.512  0.00  0.00    +0.000 C 
ATOM      2  C   UNL     1       8.787   2.450  22.769  0.00  0.00    +0.000 A 
ATOM      3  C   UNL     1       7.656   2.649  23.068  0.00  0.00    +0.000 A 
ATOM      4  C   UNL     1       6.476   2.381  24.070  0.00  0.00    +0.000 A 
ATOM      5  C   UNL     1       7.296   1.653  25.090  0.00  0.00    +0.000 A 
ATOM      6  C   UNL     1       8.583   1.223  25.267  0.00  0.00    +0.000 A 
ATOM      7  C   UNL     1       9.422   1.765  24.025  0.00  0.00    +0.000 A 
ATOM      8  C   UNL     1      10.385   0.816  23.736  0.00  0.00    +0.000 C 
ATOM      9  N   UNL     1      10.282   0.024  22.648  0.00  0.00    +0.000 N 
ATOM     10  C   UNL     1       9.784  -1.258  22.512  0.00  0.00    +0.000 C 
ATOM     11  O   UNL     1      10.671  -2.045  22.674  0.00  0.00    +0.000 OA
ATOM     12  C   UNL     1       9.800   0.695  21.632  0.00  0.00    +0.000 C 
ENDROOT
BRANCH   1  16
ATOM     13  C   UNL     1       5.313   0.413  19.038  0.00  0.00    +0.000 A 
ATOM     14  C   UNL     1       6.364  -0.602  19.506  0.00  0.00    +0.000 A 
ATOM     15  C   UNL     1       7.433  -0.395  20.486  0.00  0.00    +0.000 A 
ATOM     16  C   UNL     1       7.397   1.079  21.131  0.00  0.00    +0.000 A 
ATOM     17  C   UNL     1       6.219   1.963  20.935  0.00  0.00    +0.000 A 
ATOM     18  C   UNL     1       5.573   1.743  19.540  0.00  0.00    +0.000 A 
ENDBRANCH   1  16
BRANCH  10  19
ATOM     19  C   UNL     1       8.547  -1.261  23.452  0.00  0.00    +0.000 C 
BRANCH  19  20
ATOM     20  C   UNL     1       8.363  -2.572  24.107  0.00  0.00    +0.000 C 
ATOM     21  O   UNL     1       8.932  -2.633  25.262  0.00  0.00    +0.000 OA
BRANCH  20  22
ATOM     22  C   UNL     1       7.344  -3.596  23.910  0.00  0.00    +0.000 C 
ATOM     23  C   UNL     1       7.520  -4.956  24.479  0.00  0.00    +0.000 C 
ATOM     24  C   UNL     1       6.120  -5.613  24.629  0.00  0.00    +0.000 C 
ATOM     25  N   UNL     1       5.267  -5.114  23.553  0.00  0.00    +0.000 N 
ATOM     26  C   UNL     1       3.930  -5.110  23.662  0.00  0.00    +0.000 C 
ATOM     27  O   UNL     1       3.242  -5.530  22.718  0.00  0.00    +0.000 OA
ATOM     28  C   UNL     1       5.907  -4.828  22.281  0.00  0.00    +0.000 C 
ATOM     29  C   UNL     1       6.977  -3.754  22.427  0.00  0.00    +0.000 C 
BRANCH  26  30
ATOM     30  C   UNL     1       3.259  -4.853  24.976  0.00  0.00    +0.000 C 
ATOM     31 CL   UNL     1       3.531  -3.144  25.471  0.00  0.00    +0.000 Cl
ENDBRANCH  26  30
ENDBRANCH  20  22
ENDBRANCH  19  20
ENDBRANCH  10  19
TORSDOF 5
ENDMDL
MODEL 4
REMARK VINA RESULT:      -7.8      1.497      1.873
REMARK  Name = 
REMARK  5 active torsions:
REMARK  status: ('A' for Active; 'I' for Inactive)
REMARK    1  A    between atoms: C_7  and  C_8
REMARK    2  A    between atoms: C_24  and  C_26
REMARK    3  A    between atoms: C_26  and  C_29
REMARK    4  A    between atoms: C_29  and  C_31
REMARK    5  A    between atoms: C_40  and  C_42
REMARK                            x       y       z     vdW  Elec       q    Type
REMARK                         _______ _______ _______ _____ _____    ______ ____
ROOT
ATOM      1  C   UNL     1       9.054   0.647  21.579  0.00  0.00    +0.000 C 
ATOM      2  C   UNL     1       9.223   1.804  22.661  0.00  0.00    +0.000 A 
ATOM      3  C   UNL     1       8.111   2.193  22.798  0.00  0.00    +0.000 A 
ATOM      4  C   UNL     1       6.824   2.260  23.696  0.00  0.00    +0.000 A 
ATOM      5  C   UNL     1       7.443   1.636  24.907  0.00  0.00    +0.000 A 
ATOM      6  C   UNL     1       8.636   1.089  25.294  0.00  0.00    +0.000 A 
ATOM      7  C   UNL     1       9.646   1.287  24.077  0.00  0.00    +0.000 A 
ATOM      8  C   UNL     1      10.487   0.189  24.059  0.00  0.00    +0.000 C 
ATOM      9  N   UNL     1      10.366  -0.770  23.117  0.00  0.00    +0.000 N 
ATOM     10  C   UNL     1       9.705  -1.983  23.147  0.00  0.00    +0.000 C 
ATOM     11  O   UNL     1      10.455  -2.831  23.535  0.00  0.00    +0.000 OA
ATOM     12  C   UNL     1      10.072  -0.241  21.955  0.00  0.00    +0.000 C 
ENDROOT
BRANCH   1  16
ATOM     13  C   UNL     1       5.865  -1.251  19.435  0.00  0.00    +0.000 A 
ATOM     14  C   UNL     1       6.374  -1.756  20.792  0.00  0.00    +0.000 A 
ATOM     15  C   UNL     1       7.324  -1.096  21.692  0.00  0.00    +0.000 A 
ATOM     16  C   UNL     1       7.798   0.339  21.138  0.00  0.00    +0.000 A 
ATOM     17  C   UNL     1       7.092   0.984  20.001  0.00  0.00    +0.000 A 
ATOM     18  C   UNL     1       6.569  -0.071  18.989  0.00  0.00    +0.000 A 
ENDBRANCH   1  16
BRANCH  10  19
ATOM     19  C   UNL     1       8.405  -1.661  23.933  0.00  0.00    +0.000 C 
BRANCH  19  20
ATOM     20  C   UNL     1       8.068  -2.733  24.892  0.00  0.00    +0.000 C 
ATOM     21  O   UNL     1       8.281  -2.388  26.116  0.00  0.00    +0.000 OA
BRANCH  20  22
ATOM     22  C   UNL     1       7.172  -3.875  24.760  0.00  0.00    +0.000 C 
ATOM     23  C   UNL     1       7.261  -5.018  25.705  0.00  0.00    +0.000 C 
ATOM     24  C   UNL     1       5.895  -5.759  25.712  0.00  0.00    +0.000 C 
ATOM     25  N   UNL     1       5.310  -5.646  24.378  0.00  0.00    +0.000 N 
ATOM     26  C   UNL     1       3.988  -5.757  24.179  0.00  0.00    +0.000 C 
ATOM     27  O   UNL     1       3.570  -6.476  23.257  0.00  0.00    +0.000 OA
ATOM     28  C   UNL     1       6.230  -5.630  23.254  0.00  0.00    +0.000 C 
ATOM     29  C   UNL     1       7.186  -4.446  23.335  0.00  0.00    +0.000 C 
BRANCH  26  30
ATOM     30  C   UNL     1       3.007  -5.245  25.187  0.00  0.00    +0.000 C 
ATOM     31 CL   UNL     1       3.163  -3.456  25.330  0.00  0.00    +0.000 Cl
ENDBRANCH  26  30
ENDBRANCH  20  22
ENDBRANCH  19  20
ENDBRANCH  10  19
TORSDOF 5
ENDMDL
MODEL 5
REMARK VINA RESULT:      -7.6      1.696      2.456
REMARK  Name = 
REMARK  5 active torsions:
REMARK  status: ('A' for Active; 'I' for Inactive)
REMARK    1  A    between atoms: C_7  and  C_8
REMARK    2  A    between atoms: C_24  and  C_26
REMARK    3  A    between atoms: C_26  and  C_29
REMARK    4  A    between atoms: C_29  and  C_31
REMARK    5  A    between atoms: C_40  and  C_42
REMARK                            x       y       z     vdW  Elec       q    Type
REMARK                         _______ _______ _______ _____ _____    ______ ____
ROOT
ATOM      1  C   UNL     1       9.234   1.407  21.569  0.00  0.00    +0.000 C 
ATOM      2  C   UNL     1       8.349   2.676  21.948  0.00  0.00    +0.000 A 
ATOM      3  C   UNL     1       7.246   2.293  21.737  0.00  0.00    +0.000 A 
ATOM      4  C   UNL     1       5.868   1.813  22.319  0.00  0.00    +0.000 A 
ATOM      5  C   UNL     1       6.174   2.147  23.746  0.00  0.00    +0.000 A 
ATOM      6  C   UNL     1       7.209   2.637  24.495  0.00  0.00    +0.000 A 
ATOM      7  C   UNL     1       8.368   3.027  23.474  0.00  0.00    +0.000 A 
ATOM      8  C   UNL     1       9.573   2.776  24.104  0.00  0.00    +0.000 C 
ATOM      9  N   UNL     1      10.339   1.722  23.754  0.00  0.00    +0.000 N 
ATOM     10  C   UNL     1      10.434   0.456  24.300  0.00  0.00    +0.000 C 
ATOM     11  O   UNL     1      11.280   0.453  25.145  0.00  0.00    +0.000 OA
ATOM     12  C   UNL     1      10.311   1.542  22.456  0.00  0.00    +0.000 C 
ENDROOT
BRANCH   1  16
ATOM     13  C   UNL     1       6.122  -1.408  20.700  0.00  0.00    +0.000 A 
ATOM     14  C   UNL     1       6.672  -0.424  19.659  0.00  0.00    +0.000 A 
ATOM     15  C   UNL     1       7.841   0.450  19.785  0.00  0.00    +0.000 A 
ATOM     16  C   UNL     1       8.603   0.257  21.189  0.00  0.00    +0.000 A 
ATOM     17  C   UNL     1       8.284  -0.894  22.072  0.00  0.00    +0.000 A 
ATOM     18  C   UNL     1       6.783  -1.280  21.979  0.00  0.00    +0.000 A 
ENDBRANCH   1  16
BRANCH  10  19
ATOM     19  C   UNL     1       8.961   0.113  24.658  0.00  0.00    +0.000 C 
BRANCH  19  20
ATOM     20  C   UNL     1       8.872  -1.114  25.476  0.00  0.00    +0.000 C 
ATOM     21  O   UNL     1       9.032  -0.883  26.734  0.00  0.00    +0.000 OA
BRANCH  20  22
ATOM     22  C   UNL     1       8.229  -2.393  25.200  0.00  0.00    +0.000 C 
ATOM     23  C   UNL     1       7.467  -3.100  26.260  0.00  0.00    +0.000 C 
ATOM     24  C   UNL     1       6.452  -4.061  25.581  0.00  0.00    +0.000 C 
ATOM     25  N   UNL     1       7.041  -4.534  24.331  0.00  0.00    +0.000 N 
ATOM     26  C   UNL     1       6.280  -4.978  23.319  0.00  0.00    +0.000 C 
ATOM     27  O   UNL     1       6.583  -6.038  22.749  0.00  0.00    +0.000 OA
ATOM     28  C   UNL     1       8.482  -4.711  24.306  0.00  0.00    +0.000 C 
ATOM     29  C   UNL     1       9.208  -3.399  24.578  0.00  0.00    +0.000 C 
BRANCH  26  30
ATOM     30  C   UNL     1       4.943  -4.368  23.030  0.00  0.00    +0.000 C 
ATOM     31 CL   UNL     1       3.664  -5.632  23.140  0.00  0.00    +0.000 Cl
ENDBRANCH  26  30
ENDBRANCH  20  22
ENDBRANCH  19  20
ENDBRANCH  10  19
TORSDOF 5
ENDMDL
MODEL 6
REMARK VINA RESULT:      -7.6      2.068      3.790
REMARK  Name = 
REMARK  5 active torsions:
REMARK  status: ('A' for Active; 'I' for Inactive)
REMARK    1  A    between atoms: C_7  and  C_8
REMARK    2  A    between atoms: C_24  and  C_26
REMARK    3  A    between atoms: C_26  and  C_29
REMARK    4  A    between atoms: C_29  and  C_31
REMARK    5  A    between atoms: C_40  and  C_42
REMARK                            x       y       z     vdW  Elec       q    Type
REMARK                         _______ _______ _______ _____ _____    ______ ____
ROOT
ATOM      1  C   UNL     1       8.254   1.869  21.837  0.00  0.00    +0.000 C 
ATOM      2  C   UNL     1       9.778   1.422  21.961  0.00  0.00    +0.000 A 
ATOM      3  C   UNL     1      10.011   1.620  23.108  0.00  0.00    +0.000 A 
ATOM      4  C   UNL     1      10.264   1.022  24.539  0.00  0.00    +0.000 A 
ATOM      5  C   UNL     1      10.336  -0.409  24.102  0.00  0.00    +0.000 A 
ATOM      6  C   UNL     1      10.205  -1.149  22.959  0.00  0.00    +0.000 A 
ATOM      7  C   UNL     1      10.004  -0.115  21.764  0.00  0.00    +0.000 A 
ATOM      8  C   UNL     1       9.153  -0.706  20.848  0.00  0.00    +0.000 C 
ATOM      9  N   UNL     1       7.873  -0.298  20.718  0.00  0.00    +0.000 N 
ATOM     10  C   UNL     1       6.709  -0.795  21.273  0.00  0.00    +0.000 C 
ATOM     11  O   UNL     1       6.243  -1.618  20.540  0.00  0.00    +0.000 OA
ATOM     12  C   UNL     1       7.789   1.004  20.836  0.00  0.00    +0.000 C 
ENDROOT
BRANCH   1  16
ATOM     13  C   UNL     1       7.471   2.895  25.924  0.00  0.00    +0.000 A 
ATOM     14  C   UNL     1       7.977   3.910  24.891  0.00  0.00    +0.000 A 
ATOM     15  C   UNL     1       8.108   3.723  23.443  0.00  0.00    +0.000 A 
ATOM     16  C   UNL     1       7.595   2.275  22.963  0.00  0.00    +0.000 A 
ATOM     17  C   UNL     1       6.820   1.403  23.881  0.00  0.00    +0.000 A 
ATOM     18  C   UNL     1       7.280   1.581  25.354  0.00  0.00    +0.000 A 
ENDBRANCH   1  16
BRANCH  10  19
ATOM     19  C   UNL     1       7.137  -1.176  22.716  0.00  0.00    +0.000 C 
BRANCH  19  20
ATOM     20  C   UNL     1       6.880  -2.602  23.002  0.00  0.00    +0.000 C 
ATOM     21  O   UNL     1       7.519  -3.390  22.207  0.00  0.00    +0.000 OA
BRANCH  20  22
ATOM     22  C   UNL     1       6.424  -3.257  24.222  0.00  0.00    +0.000 C 
ATOM     23  C   UNL     1       5.263  -2.721  24.978  0.00  0.00    +0.000 C 
ATOM     24  C   UNL     1       4.658  -3.870  25.832  0.00  0.00    +0.000 C 
ATOM     25  N   UNL     1       5.744  -4.763  26.226  0.00  0.00    +0.000 N 
ATOM     26  C   UNL     1       5.516  -6.045  26.549  0.00  0.00    +0.000 C 
ATOM     27  O   UNL     1       6.039  -6.517  27.572  0.00  0.00    +0.000 OA
ATOM     28  C   UNL     1       7.042  -4.158  26.467  0.00  0.00    +0.000 C 
ATOM     29  C   UNL     1       7.574  -3.467  25.218  0.00  0.00    +0.000 C 
BRANCH  26  30
ATOM     30  C   UNL     1       4.455  -6.842  25.857  0.00  0.00    +0.000 C 
ATOM     31 CL   UNL     1       4.791  -6.891  24.088  0.00  0.00    +0.000 Cl
ENDBRANCH  26  30
ENDBRANCH  20  22
ENDBRANCH  19  20
ENDBRANCH  10  19
TORSDOF 5
ENDMDL
MODEL 7
REMARK VINA RESULT:      -7.5      2.048      2.360
REMARK  Name = 
REMARK  5 active torsions:
REMARK  status: ('A' for Active; 'I' for Inactive)
REMARK    1  A    between atoms: C_7  and  C_8
REMARK    2  A    between atoms: C_24  and  C_26
REMARK    3  A    between atoms: C_26  and  C_29
REMARK    4  A    between atoms: C_29  and  C_31
REMARK    5  A    between atoms: C_40  and  C_42
REMARK                            x       y       z     vdW  Elec       q    Type
REMARK                         _______ _______ _______ _____ _____    ______ ____
ROOT
ATOM      1  C   UNL     1       8.623   1.320  21.398  0.00  0.00    +0.000 C 
ATOM      2  C   UNL     1       8.787   2.376  22.580  0.00  0.00    +0.000 A 
ATOM      3  C   UNL     1       7.661   2.644  22.843  0.00  0.00    +0.000 A 
ATOM      4  C   UNL     1       6.456   2.502  23.840  0.00  0.00    +0.000 A 
ATOM      5  C   UNL     1       7.229   1.822  24.927  0.00  0.00    +0.000 A 
ATOM      6  C   UNL     1       8.493   1.354  25.160  0.00  0.00    +0.000 A 
ATOM      7  C   UNL     1       9.373   1.764  23.896  0.00  0.00    +0.000 A 
ATOM      8  C   UNL     1      10.300   0.757  23.697  0.00  0.00    +0.000 C 
ATOM      9  N   UNL     1      10.179  -0.112  22.671  0.00  0.00    +0.000 N 
ATOM     10  C   UNL     1       9.629  -1.379  22.623  0.00  0.00    +0.000 C 
ATOM     11  O   UNL     1      10.479  -2.187  22.860  0.00  0.00    +0.000 OA
ATOM     12  C   UNL     1       9.741   0.499  21.598  0.00  0.00    +0.000 C 
ENDROOT
BRANCH   1  16
ATOM     13  C   UNL     1       5.270   0.259  18.949  0.00  0.00    +0.000 A 
ATOM     14  C   UNL     1       6.288  -0.769  19.461  0.00  0.00    +0.000 A 
ATOM     15  C   UNL     1       7.358  -0.556  20.439  0.00  0.00    +0.000 A 
ATOM     16  C   UNL     1       7.364   0.942  21.026  0.00  0.00    +0.000 A 
ATOM     17  C   UNL     1       6.215   1.854  20.789  0.00  0.00    +0.000 A 
ATOM     18  C   UNL     1       5.569   1.599  19.400  0.00  0.00    +0.000 A 
ENDBRANCH   1  16
BRANCH  10  19
ATOM     19  C   UNL     1       8.379  -1.258  23.538  0.00  0.00    +0.000 C 
BRANCH  19  20
ATOM     20  C   UNL     1       7.645  -2.537  23.629  0.00  0.00    +0.000 C 
ATOM     21  O   UNL     1       7.707  -3.223  22.540  0.00  0.00    +0.000 OA
BRANCH  20  22
ATOM     22  C   UNL     1       7.267  -3.332  24.792  0.00  0.00    +0.000 C 
ATOM     23  C   UNL     1       7.191  -2.710  26.139  0.00  0.00    +0.000 C 
ATOM     24  C   UNL     1       6.247  -3.569  27.026  0.00  0.00    +0.000 C 
ATOM     25  N   UNL     1       6.371  -4.962  26.605  0.00  0.00    +0.000 N 
ATOM     26  C   UNL     1       5.394  -5.853  26.829  0.00  0.00    +0.000 C 
ATOM     27  O   UNL     1       5.681  -6.967  27.295  0.00  0.00    +0.000 OA
ATOM     28  C   UNL     1       7.676  -5.396  26.136  0.00  0.00    +0.000 C 
ATOM     29  C   UNL     1       8.118  -4.605  24.912  0.00  0.00    +0.000 C 
BRANCH  26  30
ATOM     30  C   UNL     1       3.952  -5.452  26.772  0.00  0.00    +0.000 C 
ATOM     31 CL   UNL     1       3.545  -4.888  25.111  0.00  0.00    +0.000 Cl
ENDBRANCH  26  30
ENDBRANCH  20  22
ENDBRANCH  19  20
ENDBRANCH  10  19
TORSDOF 5
ENDMDL
MODEL 8
REMARK VINA RESULT:      -7.5      2.288      3.642
REMARK  Name = 
REMARK  5 active torsions:
REMARK  status: ('A' for Active; 'I' for Inactive)
REMARK    1  A    between atoms: C_7  and  C_8
REMARK    2  A    between atoms: C_24  and  C_26
REMARK    3  A    between atoms: C_26  and  C_29
REMARK    4  A    between atoms: C_29  and  C_31
REMARK    5  A    between atoms: C_40  and  C_42
REMARK                            x       y       z     vdW  Elec       q    Type
REMARK                         _______ _______ _______ _____ _____    ______ ____
ROOT
ATOM      1  C   UNL     1       8.357   1.560  21.359  0.00  0.00    +0.000 C 
ATOM      2  C   UNL     1       9.874   1.205  21.692  0.00  0.00    +0.000 A 
ATOM      3  C   UNL     1      10.092   1.877  22.646  0.00  0.00    +0.000 A 
ATOM      4  C   UNL     1      10.317   1.951  24.199  0.00  0.00    +0.000 A 
ATOM      5  C   UNL     1      10.380   0.472  24.421  0.00  0.00    +0.000 A 
ATOM      6  C   UNL     1      10.258  -0.688  23.706  0.00  0.00    +0.000 A 
ATOM      7  C   UNL     1      10.087  -0.267  22.178  0.00  0.00    +0.000 A 
ATOM      8  C   UNL     1       9.244  -1.193  21.590  0.00  0.00    +0.000 C 
ATOM      9  N   UNL     1       7.971  -0.877  21.274  0.00  0.00    +0.000 N 
ATOM     10  C   UNL     1       6.793  -1.083  21.967  0.00  0.00    +0.000 C 
ATOM     11  O   UNL     1       6.330  -2.140  21.651  0.00  0.00    +0.000 OA
ATOM     12  C   UNL     1       7.898   0.350  20.820  0.00  0.00    +0.000 C 
ENDROOT
BRANCH   1  16
ATOM     13  C   UNL     1       5.791   4.717  22.706  0.00  0.00    +0.000 A 
ATOM     14  C   UNL     1       5.299   3.282  22.478  0.00  0.00    +0.000 A 
ATOM     15  C   UNL     1       6.108   2.094  22.195  0.00  0.00    +0.000 A 
ATOM     16  C   UNL     1       7.685   2.413  22.189  0.00  0.00    +0.000 A 
ATOM     17  C   UNL     1       8.199   3.706  22.709  0.00  0.00    +0.000 A 
ATOM     18  C   UNL     1       7.203   4.864  22.432  0.00  0.00    +0.000 A 
ENDBRANCH   1  16
BRANCH  10  19
ATOM     19  C   UNL     1       7.195  -0.807  23.442  0.00  0.00    +0.000 C 
BRANCH  19  20
ATOM     20  C   UNL     1       6.359  -1.576  24.387  0.00  0.00    +0.000 C 
ATOM     21  O   UNL     1       5.205  -1.036  24.580  0.00  0.00    +0.000 OA
BRANCH  20  22
ATOM     22  C   UNL     1       6.412  -2.981  24.773  0.00  0.00    +0.000 C 
ATOM     23  C   UNL     1       7.610  -3.803  24.466  0.00  0.00    +0.000 C 
ATOM     24  C   UNL     1       7.649  -5.005  25.451  0.00  0.00    +0.000 C 
ATOM     25  N   UNL     1       6.272  -5.376  25.768  0.00  0.00    +0.000 N 
ATOM     26  C   UNL     1       5.964  -6.029  26.899  0.00  0.00    +0.000 C 
ATOM     27  O   UNL     1       5.205  -7.010  26.846  0.00  0.00    +0.000 OA
ATOM     28  C   UNL     1       5.284  -5.208  24.717  0.00  0.00    +0.000 C 
ATOM     29  C   UNL     1       5.178  -3.752  24.281  0.00  0.00    +0.000 C 
BRANCH  26  30
ATOM     30  C   UNL     1       6.705  -5.766  28.173  0.00  0.00    +0.000 C 
ATOM     31 CL   UNL     1       5.629  -6.096  29.579  0.00  0.00    +0.000 Cl
ENDBRANCH  26  30
ENDBRANCH  20  22
ENDBRANCH  19  20
ENDBRANCH  10  19
TORSDOF 5
ENDMDL
MODEL 9
REMARK VINA RESULT:      -7.5      2.386      4.155
REMARK  Name = 
REMARK  5 active torsions:
REMARK  status: ('A' for Active; 'I' for Inactive)
REMARK    1  A    between atoms: C_7  and  C_8
REMARK    2  A    between atoms: C_24  and  C_26
REMARK    3  A    between atoms: C_26  and  C_29
REMARK    4  A    between atoms: C_29  and  C_31
REMARK    5  A    between atoms: C_40  and  C_42
REMARK                            x       y       z     vdW  Elec       q    Type
REMARK                         _______ _______ _______ _____ _____    ______ ____
ROOT
ATOM      1  C   UNL     1       8.711   1.762  22.094  0.00  0.00    +0.000 C 
ATOM      2  C   UNL     1      10.051   0.958  22.406  0.00  0.00    +0.000 A 
ATOM      3  C   UNL     1      10.069   0.940  23.593  0.00  0.00    +0.000 A 
ATOM      4  C   UNL     1       9.885   0.112  24.915  0.00  0.00    +0.000 A 
ATOM      5  C   UNL     1       9.757  -1.223  24.250  0.00  0.00    +0.000 A 
ATOM      6  C   UNL     1       9.725  -1.752  22.988  0.00  0.00    +0.000 A 
ATOM      7  C   UNL     1       9.998  -0.547  21.980  0.00  0.00    +0.000 A 
ATOM      8  C   UNL     1       9.260  -0.794  20.837  0.00  0.00    +0.000 C 
ATOM      9  N   UNL     1       8.147  -0.084  20.556  0.00  0.00    +0.000 N 
ATOM     10  C   UNL     1       6.815  -0.365  20.797  0.00  0.00    +0.000 C 
ATOM     11  O   UNL     1       6.360  -0.950  19.858  0.00  0.00    +0.000 OA
ATOM     12  C   UNL     1       8.305   1.173  20.889  0.00  0.00    +0.000 C 
ENDROOT
BRANCH   1  16
ATOM     13  C   UNL     1       7.329   2.437  26.094  0.00  0.00    +0.000 A 
ATOM     14  C   UNL     1       8.194   3.447  25.329  0.00  0.00    +0.000 A 
ATOM     15  C   UNL     1       8.572   3.408  23.914  0.00  0.00    +0.000 A 
ATOM     16  C   UNL     1       7.924   2.156  23.139  0.00  0.00    +0.000 A 
ATOM     17  C   UNL     1       6.845   1.351  23.769  0.00  0.00    +0.000 A 
ATOM     18  C   UNL     1       7.031   1.262  25.308  0.00  0.00    +0.000 A 
ENDBRANCH   1  16
BRANCH  10  19
ATOM     19  C   UNL     1       6.840  -1.027  22.202  0.00  0.00    +0.000 C 
BRANCH  19  20
ATOM     20  C   UNL     1       6.165  -2.341  22.197  0.00  0.00    +0.000 C 
ATOM     21  O   UNL     1       5.609  -2.608  21.065  0.00  0.00    +0.000 OA
BRANCH  20  22
ATOM     22  C   UNL     1       6.379  -3.519  23.028  0.00  0.00    +0.000 C 
ATOM     23  C   UNL     1       7.380  -4.546  22.640  0.00  0.00    +0.000 C 
ATOM     24  C   UNL     1       7.806  -5.326  23.915  0.00  0.00    +0.000 C 
ATOM     25  N   UNL     1       6.659  -5.381  24.818  0.00  0.00    +0.000 N 
ATOM     26  C   UNL     1       6.814  -5.556  26.140  0.00  0.00    +0.000 C 
ATOM     27  O   UNL     1       6.104  -6.386  26.730  0.00  0.00    +0.000 OA
ATOM     28  C   UNL     1       5.343  -5.460  24.210  0.00  0.00    +0.000 C 
ATOM     29  C   UNL     1       5.061  -4.245  23.336  0.00  0.00    +0.000 C 
BRANCH  26  30
ATOM     30  C   UNL     1       7.982  -4.966  26.868  0.00  0.00    +0.000 C 
ATOM     31 CL   UNL     1       8.004  -3.181  26.633  0.00  0.00    +0.000 Cl
ENDBRANCH  26  30
ENDBRANCH  20  22
ENDBRANCH  19  20
ENDBRANCH  10  19
TORSDOF 5
ENDMDL
