MODEL 1
REMARK VINA RESULT:      -8.6      0.000      0.000
REMARK  Name = 
REMARK  7 active torsions:
REMARK  status: ('A' for Active; 'I' for Inactive)
REMARK    1  A    between atoms: C_8  and  C_10
REMARK    2  A    between atoms: N_12  and  C_14
REMARK    3  A    between atoms: C_19  and  C_20
REMARK    4  A    between atoms: C_20  and  C_22
REMARK    5  A    between atoms: C_29  and  C_30
REMARK    6  A    between atoms: C_30  and  N_33
REMARK    7  A    between atoms: C_41  and  C_43
REMARK                            x       y       z     vdW  Elec       q    Type
REMARK                         _______ _______ _______ _____ _____    ______ ____
ROOT
ATOM      1  C   UNL     1       8.343   2.433  25.156  0.00  0.00    +0.000 C 
ATOM      2  O   UNL     1       8.254   3.632  25.592  0.00  0.00    +0.000 OA
ENDROOT
BRANCH   1   6
ATOM      3  C   UNL     1       9.887   1.006  21.895  0.00  0.00    +0.000 A 
ATOM      4  C   UNL     1       9.819   2.485  22.156  0.00  0.00    +0.000 A 
ATOM      5  C   UNL     1       9.802   3.201  23.447  0.00  0.00    +0.000 A 
ATOM      6  C   UNL     1       9.662   2.152  24.577  0.00  0.00    +0.000 A 
ATOM      7  C   UNL     1      10.208   0.772  24.538  0.00  0.00    +0.000 A 
ATOM      8  C   UNL     1      10.341   0.244  23.070  0.00  0.00    +0.000 A 
BRANCH   3  11
ATOM      9  C   UNL     1       8.445  -0.125  20.498  0.00  0.00    +0.000 C 
ATOM     10  O   UNL     1       8.794  -1.277  20.802  0.00  0.00    +0.000 OA
ATOM     11  N   UNL     1       8.551   0.818  21.434  0.00  0.00    +0.000 N 
ATOM     12  H   UNL     1       8.107   0.437  22.234  0.00  0.00    +0.000 HD
BRANCH   9  18
ATOM     13  H   UNL     1       3.432   1.823  19.342  0.00  0.00    +0.000 HD
ATOM     14  N   UNL     1       4.227   1.153  19.354  0.00  0.00    +0.000 NA
ATOM     15  C   UNL     1       5.381   1.541  19.117  0.00  0.00    +0.000 C 
ATOM     16  C   UNL     1       6.061   0.768  17.927  0.00  0.00    +0.000 C 
ATOM     17  O   UNL     1       7.220   0.171  18.450  0.00  0.00    +0.000 OA
ATOM     18  C   UNL     1       7.057   0.047  19.846  0.00  0.00    +0.000 C 
ATOM     19  C   UNL     1       6.379   1.268  20.340  0.00  0.00    +0.000 C 
ENDBRANCH   9  18
ENDBRANCH   3  11
ENDBRANCH   1   6
BRANCH   1  20
ATOM     20  C   UNL     1       7.512   1.521  25.705  0.00  0.00    +0.000 A 
ATOM     21  C   UNL     1       6.589   1.243  24.526  0.00  0.00    +0.000 A 
ATOM     22  C   UNL     1       6.239  -0.064  23.940  0.00  0.00    +0.000 A 
ATOM     23  C   UNL     1       7.012  -1.069  24.751  0.00  0.00    +0.000 A 
ATOM     24  C   UNL     1       7.715  -1.105  26.009  0.00  0.00    +0.000 A 
ATOM     25  C   UNL     1       7.742   0.326  26.523  0.00  0.00    +0.000 A 
BRANCH  24  26
ATOM     26  C   UNL     1       6.876  -2.131  26.847  0.00  0.00    +0.000 C 
BRANCH  26  27
ATOM     27  N   UNL     1       7.141  -3.397  26.459  0.00  0.00    +0.000 NA
ATOM     28  C   UNL     1       8.444  -3.730  26.116  0.00  0.00    +0.000 C 
ATOM     29  C   UNL     1       8.577  -4.260  24.689  0.00  0.00    +0.000 C 
ATOM     30  N   UNL     1       7.277  -4.667  24.193  0.00  0.00    +0.000 N 
ATOM     31  C   UNL     1       7.074  -4.722  22.854  0.00  0.00    +0.000 C 
ATOM     32  O   UNL     1       7.370  -3.740  22.164  0.00  0.00    +0.000 OA
ATOM     33  C   UNL     1       6.315  -5.246  25.098  0.00  0.00    +0.000 C 
ATOM     34  C   UNL     1       6.267  -4.461  26.415  0.00  0.00    +0.000 C 
BRANCH  31  35
ATOM     35  C   UNL     1       7.017  -6.072  22.196  0.00  0.00    +0.000 C 
ATOM     36 CL   UNL     1       6.174  -5.963  20.633  0.00  0.00    +0.000 Cl
ENDBRANCH  31  35
ENDBRANCH  26  27
ENDBRANCH  24  26
ENDBRANCH   1  20
TORSDOF 7
ENDMDL
MODEL 2
REMARK VINA RESULT:      -8.3      3.434      8.360
REMARK  Name = 
REMARK  7 active torsions:
REMARK  status: ('A' for Active; 'I' for Inactive)
REMARK    1  A    between atoms: C_8  and  C_10
REMARK    2  A    between atoms: N_12  and  C_14
REMARK    3  A    between atoms: C_19  and  C_20
REMARK    4  A    between atoms: C_20  and  C_22
REMARK    5  A    between atoms: C_29  and  C_30
REMARK    6  A    between atoms: C_30  and  N_33
REMARK    7  A    between atoms: C_41  and  C_43
REMARK                            x       y       z     vdW  Elec       q    Type
REMARK                         _______ _______ _______ _____ _____    ______ ____
ROOT
ATOM      1  C   UNL     1       3.695  -4.740  23.841  0.00  0.00    +0.000 C 
ATOM      2  O   UNL     1       3.121  -5.023  22.734  0.00  0.00    +0.000 OA
ENDROOT
BRANCH   1   6
ATOM      3  C   UNL     1       4.577  -6.433  27.220  0.00  0.00    +0.000 A 
ATOM      4  C   UNL     1       4.117  -5.002  27.148  0.00  0.00    +0.000 A 
ATOM      5  C   UNL     1       3.252  -4.354  26.143  0.00  0.00    +0.000 A 
ATOM      6  C   UNL     1       3.020  -5.360  24.988  0.00  0.00    +0.000 A 
ATOM      7  C   UNL     1       2.952  -6.836  25.137  0.00  0.00    +0.000 A 
ATOM      8  C   UNL     1       3.771  -7.330  26.376  0.00  0.00    +0.000 A 
BRANCH   3  11
ATOM      9  C   UNL     1       6.548  -5.320  27.656  0.00  0.00    +0.000 C 
ATOM     10  O   UNL     1       6.600  -5.552  28.874  0.00  0.00    +0.000 OA
ATOM     11  N   UNL     1       5.947  -6.222  26.881  0.00  0.00    +0.000 N 
ATOM     12  H   UNL     1       6.358  -7.089  27.131  0.00  0.00    +0.000 HD
BRANCH   9  18
ATOM     13  H   UNL     1      10.678  -5.197  24.025  0.00  0.00    +0.000 HD
ATOM     14  N   UNL     1      10.172  -5.021  24.916  0.00  0.00    +0.000 NA
ATOM     15  C   UNL     1       8.999  -4.618  24.905  0.00  0.00    +0.000 C 
ATOM     16  C   UNL     1       8.800  -3.274  25.698  0.00  0.00    +0.000 C 
ATOM     17  O   UNL     1       7.861  -3.542  26.708  0.00  0.00    +0.000 OA
ATOM     18  C   UNL     1       7.864  -4.932  26.951  0.00  0.00    +0.000 C 
ATOM     19  C   UNL     1       8.001  -5.625  25.649  0.00  0.00    +0.000 C 
ENDBRANCH   9  18
ENDBRANCH   3  11
ENDBRANCH   1   6
BRANCH   1  20
ATOM     20  C   UNL     1       5.001  -4.402  23.784  0.00  0.00    +0.000 A 
ATOM     21  C   UNL     1       5.538  -5.522  22.903  0.00  0.00    +0.000 A 
ATOM     22  C   UNL     1       6.343  -5.399  21.673  0.00  0.00    +0.000 A 
ATOM     23  C   UNL     1       6.501  -3.916  21.464  0.00  0.00    +0.000 A 
ATOM     24  C   UNL     1       6.330  -2.710  22.235  0.00  0.00    +0.000 A 
ATOM     25  C   UNL     1       5.694  -3.132  23.551  0.00  0.00    +0.000 A 
BRANCH  24  26
ATOM     26  C   UNL     1       7.788  -2.139  22.316  0.00  0.00    +0.000 C 
BRANCH  26  27
ATOM     27  N   UNL     1       7.805  -0.824  22.008  0.00  0.00    +0.000 NA
ATOM     28  C   UNL     1       8.731  -0.370  21.079  0.00  0.00    +0.000 C 
ATOM     29  C   UNL     1       9.666   0.706  21.633  0.00  0.00    +0.000 C 
ATOM     30  N   UNL     1       9.101   1.272  22.842  0.00  0.00    +0.000 N 
ATOM     31  C   UNL     1       9.926   1.876  23.730  0.00  0.00    +0.000 C 
ATOM     32  O   UNL     1      10.931   1.271  24.118  0.00  0.00    +0.000 OA
ATOM     33  C   UNL     1       7.671   1.417  22.963  0.00  0.00    +0.000 C 
ATOM     34  C   UNL     1       6.952   0.156  22.466  0.00  0.00    +0.000 C 
BRANCH  31  35
ATOM     35  C   UNL     1       9.916   3.378  23.808  0.00  0.00    +0.000 C 
ATOM     36 CL   UNL     1      11.529   4.027  23.430  0.00  0.00    +0.000 Cl
ENDBRANCH  31  35
ENDBRANCH  26  27
ENDBRANCH  24  26
ENDBRANCH   1  20
TORSDOF 7
ENDMDL
MODEL 3
REMARK VINA RESULT:      -7.9      3.469      8.025
REMARK  Name = 
REMARK  7 active torsions:
REMARK  status: ('A' for Active; 'I' for Inactive)
REMARK    1  A    between atoms: C_8  and  C_10
REMARK    2  A    between atoms: N_12  and  C_14
REMARK    3  A    between atoms: C_19  and  C_20
REMARK    4  A    between atoms: C_20  and  C_22
REMARK    5  A    between atoms: C_29  and  C_30
REMARK    6  A    between atoms: C_30  and  N_33
REMARK    7  A    between atoms: C_41  and  C_43
REMARK                            x       y       z     vdW  Elec       q    Type
REMARK                         _______ _______ _______ _____ _____    ______ ____
ROOT
ATOM      1  C   UNL     1       8.381  -4.732  24.557  0.00  0.00    +0.000 C 
ATOM      2  O   UNL     1       9.334  -5.582  24.593  0.00  0.00    +0.000 OA
ENDROOT
BRANCH   1   6
ATOM      3  C   UNL     1       5.637  -3.704  27.102  0.00  0.00    +0.000 A 
ATOM      4  C   UNL     1       6.554  -4.868  27.356  0.00  0.00    +0.000 A 
ATOM      5  C   UNL     1       7.927  -5.094  26.861  0.00  0.00    +0.000 A 
ATOM      6  C   UNL     1       8.250  -3.994  25.820  0.00  0.00    +0.000 A 
ATOM      7  C   UNL     1       7.727  -2.605  25.850  0.00  0.00    +0.000 A 
ATOM      8  C   UNL     1       6.349  -2.522  26.590  0.00  0.00    +0.000 A 
BRANCH   3  11
ATOM      9  C   UNL     1       3.676  -4.899  26.906  0.00  0.00    +0.000 C 
ATOM     10  O   UNL     1       2.952  -4.133  27.562  0.00  0.00    +0.000 OA
ATOM     11  N   UNL     1       4.704  -4.363  26.248  0.00  0.00    +0.000 N 
ATOM     12  H   UNL     1       4.317  -3.605  25.740  0.00  0.00    +0.000 HD
BRANCH   9  18
ATOM     13  H   UNL     1       2.877  -8.867  23.180  0.00  0.00    +0.000 HD
ATOM     14  N   UNL     1       2.658  -8.037  23.768  0.00  0.00    +0.000 NA
ATOM     15  C   UNL     1       2.937  -8.029  24.976  0.00  0.00    +0.000 C 
ATOM     16  C   UNL     1       1.691  -7.751  25.896  0.00  0.00    +0.000 C 
ATOM     17  O   UNL     1       1.990  -6.592  26.633  0.00  0.00    +0.000 OA
ATOM     18  C   UNL     1       2.979  -5.870  25.930  0.00  0.00    +0.000 C 
ATOM     19  C   UNL     1       3.942  -6.843  25.363  0.00  0.00    +0.000 C 
ENDBRANCH   9  18
ENDBRANCH   3  11
ENDBRANCH   1   6
BRANCH   1  20
ATOM     20  C   UNL     1       8.008  -4.282  23.340  0.00  0.00    +0.000 A 
ATOM     21  C   UNL     1       6.602  -4.861  23.250  0.00  0.00    +0.000 A 
ATOM     22  C   UNL     1       5.348  -4.147  22.943  0.00  0.00    +0.000 A 
ATOM     23  C   UNL     1       5.759  -2.711  22.756  0.00  0.00    +0.000 A 
ATOM     24  C   UNL     1       6.978  -1.974  22.540  0.00  0.00    +0.000 A 
ATOM     25  C   UNL     1       8.113  -2.976  22.683  0.00  0.00    +0.000 A 
BRANCH  24  26
ATOM     26  C   UNL     1       6.766  -1.359  21.114  0.00  0.00    +0.000 C 
BRANCH  26  27
ATOM     27  N   UNL     1       7.360  -0.150  21.020  0.00  0.00    +0.000 NA
ATOM     28  C   UNL     1       8.713  -0.095  20.714  0.00  0.00    +0.000 C 
ATOM     29  C   UNL     1       9.544   0.622  21.778  0.00  0.00    +0.000 C 
ATOM     30  N   UNL     1       8.677   1.414  22.628  0.00  0.00    +0.000 N 
ATOM     31  C   UNL     1       9.102   1.744  23.872  0.00  0.00    +0.000 C 
ATOM     32  O   UNL     1       9.525   0.852  24.615  0.00  0.00    +0.000 OA
ATOM     33  C   UNL     1       7.510   2.049  22.066  0.00  0.00    +0.000 C 
ATOM     34  C   UNL     1       6.765   1.087  21.132  0.00  0.00    +0.000 C 
BRANCH  31  35
ATOM     35  C   UNL     1       9.544   3.159  24.123  0.00  0.00    +0.000 C 
ATOM     36 CL   UNL     1      11.124   3.457  23.360  0.00  0.00    +0.000 Cl
ENDBRANCH  31  35
ENDBRANCH  26  27
ENDBRANCH  24  26
ENDBRANCH   1  20
TORSDOF 7
ENDMDL
MODEL 4
REMARK VINA RESULT:      -7.9      1.249      1.614
REMARK  Name = 
REMARK  7 active torsions:
REMARK  status: ('A' for Active; 'I' for Inactive)
REMARK    1  A    between atoms: C_8  and  C_10
REMARK    2  A    between atoms: N_12  and  C_14
REMARK    3  A    between atoms: C_19  and  C_20
REMARK    4  A    between atoms: C_20  and  C_22
REMARK    5  A    between atoms: C_29  and  C_30
REMARK    6  A    between atoms: C_30  and  N_33
REMARK    7  A    between atoms: C_41  and  C_43
REMARK                            x       y       z     vdW  Elec       q    Type
REMARK                         _______ _______ _______ _____ _____    ______ ____
ROOT
ATOM      1  C   UNL     1       8.542   0.605  25.336  0.00  0.00    +0.000 C 
ATOM      2  O   UNL     1       8.204   1.833  25.446  0.00  0.00    +0.000 OA
ENDROOT
BRANCH   1   6
ATOM      3  C   UNL     1       9.766   0.391  21.659  0.00  0.00    +0.000 A 
ATOM      4  C   UNL     1       9.887   1.658  22.461  0.00  0.00    +0.000 A 
ATOM      5  C   UNL     1      10.011   1.824  23.923  0.00  0.00    +0.000 A 
ATOM      6  C   UNL     1       9.793   0.441  24.584  0.00  0.00    +0.000 A 
ATOM      7  C   UNL     1      10.166  -0.865  23.985  0.00  0.00    +0.000 A 
ATOM      8  C   UNL     1      10.173  -0.801  22.420  0.00  0.00    +0.000 A 
BRANCH   3  11
ATOM      9  C   UNL     1       7.876  -0.603  20.793  0.00  0.00    +0.000 C 
ATOM     10  O   UNL     1       7.856  -1.594  21.541  0.00  0.00    +0.000 OA
ATOM     11  N   UNL     1       8.398   0.524  21.276  0.00  0.00    +0.000 N 
ATOM     12  H   UNL     1       7.951   0.660  22.150  0.00  0.00    +0.000 HD
BRANCH   9  18
ATOM     13  H   UNL     1       3.492   2.286  19.152  0.00  0.00    +0.000 HD
ATOM     14  N   UNL     1       4.089   1.452  19.320  0.00  0.00    +0.000 NA
ATOM     15  C   UNL     1       5.296   1.472  19.032  0.00  0.00    +0.000 C 
ATOM     16  C   UNL     1       5.715   0.323  18.043  0.00  0.00    +0.000 C 
ATOM     17  O   UNL     1       6.700  -0.431  18.703  0.00  0.00    +0.000 OA
ATOM     18  C   UNL     1       6.557  -0.219  20.091  0.00  0.00    +0.000 C 
ATOM     19  C   UNL     1       6.231   1.210  20.305  0.00  0.00    +0.000 C 
ENDBRANCH   9  18
ENDBRANCH   3  11
ENDBRANCH   1   6
BRANCH   1  20
ATOM     20  C   UNL     1       8.068  -0.245  26.272  0.00  0.00    +0.000 A 
ATOM     21  C   UNL     1       7.317   0.725  27.173  0.00  0.00    +0.000 A 
ATOM     22  C   UNL     1       5.916   0.638  27.627  0.00  0.00    +0.000 A 
ATOM     23  C   UNL     1       5.381  -0.614  26.986  0.00  0.00    +0.000 A 
ATOM     24  C   UNL     1       5.912  -1.787  26.338  0.00  0.00    +0.000 A 
ATOM     25  C   UNL     1       7.408  -1.551  26.190  0.00  0.00    +0.000 A 
BRANCH  24  26
ATOM     26  C   UNL     1       5.481  -2.944  27.304  0.00  0.00    +0.000 C 
BRANCH  26  27
ATOM     27  N   UNL     1       5.521  -4.137  26.672  0.00  0.00    +0.000 NA
ATOM     28  C   UNL     1       6.520  -5.039  27.013  0.00  0.00    +0.000 C 
ATOM     29  C   UNL     1       7.404  -5.439  25.832  0.00  0.00    +0.000 C 
ATOM     30  N   UNL     1       6.741  -5.104  24.587  0.00  0.00    +0.000 N 
ATOM     31  C   UNL     1       7.490  -4.935  23.471  0.00  0.00    +0.000 C 
ATOM     32  O   UNL     1       8.461  -4.172  23.513  0.00  0.00    +0.000 OA
ATOM     33  C   UNL     1       5.306  -5.208  24.490  0.00  0.00    +0.000 C 
ATOM     34  C   UNL     1       4.632  -4.620  25.737  0.00  0.00    +0.000 C 
BRANCH  31  35
ATOM     35  C   UNL     1       7.471  -6.017  22.427  0.00  0.00    +0.000 C 
ATOM     36 CL   UNL     1       6.458  -5.528  21.048  0.00  0.00    +0.000 Cl
ENDBRANCH  31  35
ENDBRANCH  26  27
ENDBRANCH  24  26
ENDBRANCH   1  20
TORSDOF 7
ENDMDL
MODEL 5
REMARK VINA RESULT:      -7.5      2.380      3.503
REMARK  Name = 
REMARK  7 active torsions:
REMARK  status: ('A' for Active; 'I' for Inactive)
REMARK    1  A    between atoms: C_8  and  C_10
REMARK    2  A    between atoms: N_12  and  C_14
REMARK    3  A    between atoms: C_19  and  C_20
REMARK    4  A    between atoms: C_20  and  C_22
REMARK    5  A    between atoms: C_29  and  C_30
REMARK    6  A    between atoms: C_30  and  N_33
REMARK    7  A    between atoms: C_41  and  C_43
REMARK                            x       y       z     vdW  Elec       q    Type
REMARK                         _______ _______ _______ _____ _____    ______ ____
ROOT
ATOM      1  C   UNL     1       9.003   1.164  24.555  0.00  0.00    +0.000 C 
ATOM      2  O   UNL     1      10.217   1.004  24.920  0.00  0.00    +0.000 OA
ENDROOT
BRANCH   1   6
ATOM      3  C   UNL     1       7.017   3.949  22.722  0.00  0.00    +0.000 A 
ATOM      4  C   UNL     1       6.374   3.074  23.762  0.00  0.00    +0.000 A 
ATOM      5  C   UNL     1       6.996   2.385  24.910  0.00  0.00    +0.000 A 
ATOM      6  C   UNL     1       8.533   2.536  24.787  0.00  0.00    +0.000 A 
ATOM      7  C   UNL     1       9.235   3.702  24.193  0.00  0.00    +0.000 A 
ATOM      8  C   UNL     1       8.346   4.432  23.131  0.00  0.00    +0.000 A 
BRANCH   3  11
ATOM      9  C   UNL     1       5.759   2.412  21.554  0.00  0.00    +0.000 C 
ATOM     10  O   UNL     1       4.732   3.099  21.433  0.00  0.00    +0.000 OA
ATOM     11  N   UNL     1       6.926   3.052  21.617  0.00  0.00    +0.000 N 
ATOM     12  H   UNL     1       6.919   3.674  20.845  0.00  0.00    +0.000 HD
BRANCH   9  18
ATOM     13  H   UNL     1       5.339  -0.754  17.075  0.00  0.00    +0.000 HD
ATOM     14  N   UNL     1       5.556  -0.500  18.059  0.00  0.00    +0.000 NA
ATOM     15  C   UNL     1       6.157   0.553  18.321  0.00  0.00    +0.000 C 
ATOM     16  C   UNL     1       7.475   0.324  19.149  0.00  0.00    +0.000 C 
ATOM     17  O   UNL     1       7.325   1.046  20.345  0.00  0.00    +0.000 OA
ATOM     18  C   UNL     1       5.945   1.239  20.570  0.00  0.00    +0.000 C 
ATOM     19  C   UNL     1       5.303   1.524  19.266  0.00  0.00    +0.000 C 
ENDBRANCH   9  18
ENDBRANCH   3  11
ENDBRANCH   1   6
BRANCH   1  20
ATOM     20  C   UNL     1       8.529   0.317  23.616  0.00  0.00    +0.000 A 
ATOM     21  C   UNL     1       9.691   0.318  22.632  0.00  0.00    +0.000 A 
ATOM     22  C   UNL     1      10.411  -0.846  22.081  0.00  0.00    +0.000 A 
ATOM     23  C   UNL     1       9.756  -2.041  22.722  0.00  0.00    +0.000 A 
ATOM     24  C   UNL     1       8.543  -2.328  23.444  0.00  0.00    +0.000 A 
ATOM     25  C   UNL     1       7.867  -0.988  23.692  0.00  0.00    +0.000 A 
BRANCH  24  26
ATOM     26  C   UNL     1       7.795  -3.320  22.488  0.00  0.00    +0.000 C 
BRANCH  26  27
ATOM     27  N   UNL     1       7.470  -4.459  23.137  0.00  0.00    +0.000 NA
ATOM     28  C   UNL     1       7.303  -5.623  22.398  0.00  0.00    +0.000 C 
ATOM     29  C   UNL     1       5.916  -6.244  22.554  0.00  0.00    +0.000 C 
ATOM     30  N   UNL     1       5.266  -5.705  23.733  0.00  0.00    +0.000 N 
ATOM     31  C   UNL     1       3.914  -5.744  23.812  0.00  0.00    +0.000 C 
ATOM     32  O   UNL     1       3.248  -5.304  22.869  0.00  0.00    +0.000 OA
ATOM     33  C   UNL     1       6.052  -5.378  24.897  0.00  0.00    +0.000 C 
ATOM     34  C   UNL     1       7.336  -4.640  24.496  0.00  0.00    +0.000 C 
BRANCH  31  35
ATOM     35  C   UNL     1       3.281  -6.753  24.730  0.00  0.00    +0.000 C 
ATOM     36 CL   UNL     1       2.760  -5.971  26.241  0.00  0.00    +0.000 Cl
ENDBRANCH  31  35
ENDBRANCH  26  27
ENDBRANCH  24  26
ENDBRANCH   1  20
TORSDOF 7
ENDMDL
MODEL 6
REMARK VINA RESULT:      -7.3      2.704      3.889
REMARK  Name = 
REMARK  7 active torsions:
REMARK  status: ('A' for Active; 'I' for Inactive)
REMARK    1  A    between atoms: C_8  and  C_10
REMARK    2  A    between atoms: N_12  and  C_14
REMARK    3  A    between atoms: C_19  and  C_20
REMARK    4  A    between atoms: C_20  and  C_22
REMARK    5  A    between atoms: C_29  and  C_30
REMARK    6  A    between atoms: C_30  and  N_33
REMARK    7  A    between atoms: C_41  and  C_43
REMARK                            x       y       z     vdW  Elec       q    Type
REMARK                         _______ _______ _______ _____ _____    ______ ____
ROOT
ATOM      1  C   UNL     1       9.402   1.440  24.434  0.00  0.00    +0.000 C 
ATOM      2  O   UNL     1      10.665   1.556  24.277  0.00  0.00    +0.000 OA
ENDROOT
BRANCH   1   6
ATOM      3  C   UNL     1       6.937   3.892  22.708  0.00  0.00    +0.000 A 
ATOM      4  C   UNL     1       6.487   2.947  23.789  0.00  0.00    +0.000 A 
ATOM      5  C   UNL     1       7.266   2.369  24.902  0.00  0.00    +0.000 A 
ATOM      6  C   UNL     1       8.756   2.735  24.687  0.00  0.00    +0.000 A 
ATOM      7  C   UNL     1       9.250   3.980  24.047  0.00  0.00    +0.000 A 
ATOM      8  C   UNL     1       8.205   4.563  23.036  0.00  0.00    +0.000 A 
BRANCH   3  11
ATOM      9  C   UNL     1       5.747   2.340  21.490  0.00  0.00    +0.000 C 
ATOM     10  O   UNL     1       4.733   3.030  21.293  0.00  0.00    +0.000 OA
ATOM     11  N   UNL     1       6.911   2.976  21.615  0.00  0.00    +0.000 N 
ATOM     12  H   UNL     1       6.956   3.585  20.834  0.00  0.00    +0.000 HD
BRANCH   9  18
ATOM     13  H   UNL     1       5.445  -0.989  17.120  0.00  0.00    +0.000 HD
ATOM     14  N   UNL     1       5.663  -0.690  18.092  0.00  0.00    +0.000 NA
ATOM     15  C   UNL     1       6.202   0.406  18.308  0.00  0.00    +0.000 C 
ATOM     16  C   UNL     1       7.546   0.285  19.117  0.00  0.00    +0.000 C 
ATOM     17  O   UNL     1       7.374   1.035  20.293  0.00  0.00    +0.000 OA
ATOM     18  C   UNL     1       5.988   1.149  20.539  0.00  0.00    +0.000 C 
ATOM     19  C   UNL     1       5.307   1.353  19.240  0.00  0.00    +0.000 C 
ENDBRANCH   9  18
ENDBRANCH   3  11
ENDBRANCH   1   6
BRANCH   1  20
ATOM     20  C   UNL     1       8.812   0.361  23.877  0.00  0.00    +0.000 A 
ATOM     21  C   UNL     1       9.669   0.191  22.629  0.00  0.00    +0.000 A 
ATOM     22  C   UNL     1      10.363  -1.026  22.168  0.00  0.00    +0.000 A 
ATOM     23  C   UNL     1      10.054  -2.065  23.213  0.00  0.00    +0.000 A 
ATOM     24  C   UNL     1       9.117  -2.239  24.293  0.00  0.00    +0.000 A 
ATOM     25  C   UNL     1       8.364  -0.924  24.421  0.00  0.00    +0.000 A 
BRANCH  24  26
ATOM     26  C   UNL     1       8.278  -3.480  23.829  0.00  0.00    +0.000 C 
BRANCH  26  27
ATOM     27  N   UNL     1       7.265  -3.723  24.689  0.00  0.00    +0.000 NA
ATOM     28  C   UNL     1       5.991  -3.927  24.177  0.00  0.00    +0.000 C 
ATOM     29  C   UNL     1       4.960  -2.932  24.708  0.00  0.00    +0.000 C 
ATOM     30  N   UNL     1       5.466  -2.292  25.906  0.00  0.00    +0.000 N 
ATOM     31  C   UNL     1       4.959  -1.089  26.271  0.00  0.00    +0.000 C 
ATOM     32  O   UNL     1       4.917  -0.180  25.434  0.00  0.00    +0.000 OA
ATOM     33  C   UNL     1       6.295  -3.038  26.821  0.00  0.00    +0.000 C 
ATOM     34  C   UNL     1       7.342  -3.860  26.058  0.00  0.00    +0.000 C 
BRANCH  31  35
ATOM     35  C   UNL     1       4.011  -1.037  27.437  0.00  0.00    +0.000 C 
ATOM     36 CL   UNL     1       2.842   0.288  27.224  0.00  0.00    +0.000 Cl
ENDBRANCH  31  35
ENDBRANCH  26  27
ENDBRANCH  24  26
ENDBRANCH   1  20
TORSDOF 7
ENDMDL
MODEL 7
REMARK VINA RESULT:      -7.3      2.955      7.415
REMARK  Name = 
REMARK  7 active torsions:
REMARK  status: ('A' for Active; 'I' for Inactive)
REMARK    1  A    between atoms: C_8  and  C_10
REMARK    2  A    between atoms: N_12  and  C_14
REMARK    3  A    between atoms: C_19  and  C_20
REMARK    4  A    between atoms: C_20  and  C_22
REMARK    5  A    between atoms: C_29  and  C_30
REMARK    6  A    between atoms: C_30  and  N_33
REMARK    7  A    between atoms: C_41  and  C_43
REMARK                            x       y       z     vdW  Elec       q    Type
REMARK                         _______ _______ _______ _____ _____    ______ ____
ROOT
ATOM      1  C   UNL     1       6.190  -5.233  23.437  0.00  0.00    +0.000 C 
ATOM      2  O   UNL     1       7.003  -6.036  22.865  0.00  0.00    +0.000 OA
ENDROOT
BRANCH   1   6
ATOM      3  C   UNL     1       3.189  -4.877  25.873  0.00  0.00    +0.000 A 
ATOM      4  C   UNL     1       3.142  -4.327  24.474  0.00  0.00    +0.000 A 
ATOM      5  C   UNL     1       3.863  -4.786  23.270  0.00  0.00    +0.000 A 
ATOM      6  C   UNL     1       4.890  -5.861  23.705  0.00  0.00    +0.000 A 
ATOM      7  C   UNL     1       4.711  -6.813  24.831  0.00  0.00    +0.000 A 
ATOM      8  C   UNL     1       3.754  -6.235  25.928  0.00  0.00    +0.000 A 
BRANCH   3  11
ATOM      9  C   UNL     1       3.155  -2.744  26.743  0.00  0.00    +0.000 C 
ATOM     10  O   UNL     1       2.189  -2.896  27.508  0.00  0.00    +0.000 OA
ATOM     11  N   UNL     1       3.911  -3.811  26.486  0.00  0.00    +0.000 N 
ATOM     12  H   UNL     1       4.128  -4.192  27.375  0.00  0.00    +0.000 HD
BRANCH   9  18
ATOM     13  H   UNL     1       7.756   0.084  27.788  0.00  0.00    +0.000 HD
ATOM     14  N   UNL     1       6.737  -0.109  27.723  0.00  0.00    +0.000 NA
ATOM     15  C   UNL     1       6.258  -0.638  26.708  0.00  0.00    +0.000 C 
ATOM     16  C   UNL     1       5.115   0.217  26.048  0.00  0.00    +0.000 C 
ATOM     17  O   UNL     1       3.965  -0.591  26.042  0.00  0.00    +0.000 OA
ATOM     18  C   UNL     1       4.118  -1.576  27.041  0.00  0.00    +0.000 C 
ATOM     19  C   UNL     1       5.529  -2.027  27.030  0.00  0.00    +0.000 C 
ENDBRANCH   9  18
ENDBRANCH   3  11
ENDBRANCH   1   6
BRANCH   1  20
ATOM     20  C   UNL     1       6.729  -4.211  24.135  0.00  0.00    +0.000 A 
ATOM     21  C   UNL     1       7.499  -4.979  25.202  0.00  0.00    +0.000 A 
ATOM     22  C   UNL     1       8.921  -4.841  25.566  0.00  0.00    +0.000 A 
ATOM     23  C   UNL     1       9.456  -3.785  24.636  0.00  0.00    +0.000 A 
ATOM     24  C   UNL     1       8.924  -2.771  23.762  0.00  0.00    +0.000 A 
ATOM     25  C   UNL     1       7.418  -2.981  23.732  0.00  0.00    +0.000 A 
BRANCH  24  26
ATOM     26  C   UNL     1       9.430  -1.442  24.421  0.00  0.00    +0.000 C 
BRANCH  26  27
ATOM     27  N   UNL     1       9.257  -0.395  23.585  0.00  0.00    +0.000 NA
ATOM     28  C   UNL     1       8.180   0.455  23.794  0.00  0.00    +0.000 C 
ATOM     29  C   UNL     1       7.238   0.544  22.594  0.00  0.00    +0.000 C 
ATOM     30  N   UNL     1       7.907   0.050  21.406  0.00  0.00    +0.000 N 
ATOM     31  C   UNL     1       7.158  -0.393  20.368  0.00  0.00    +0.000 C 
ATOM     32  O   UNL     1       6.269  -1.223  20.584  0.00  0.00    +0.000 OA
ATOM     33  C   UNL     1       9.322   0.272  21.239  0.00  0.00    +0.000 C 
ATOM     34  C   UNL     1      10.075  -0.009  22.546  0.00  0.00    +0.000 C 
BRANCH  31  35
ATOM     35  C   UNL     1       7.048   0.476  19.145  0.00  0.00    +0.000 C 
ATOM     36 CL   UNL     1       5.373   1.041  18.937  0.00  0.00    +0.000 Cl
ENDBRANCH  31  35
ENDBRANCH  26  27
ENDBRANCH  24  26
ENDBRANCH   1  20
TORSDOF 7
ENDMDL
MODEL 8
REMARK VINA RESULT:      -7.3      2.600      6.747
REMARK  Name = 
REMARK  7 active torsions:
REMARK  status: ('A' for Active; 'I' for Inactive)
REMARK    1  A    between atoms: C_8  and  C_10
REMARK    2  A    between atoms: N_12  and  C_14
REMARK    3  A    between atoms: C_19  and  C_20
REMARK    4  A    between atoms: C_20  and  C_22
REMARK    5  A    between atoms: C_29  and  C_30
REMARK    6  A    between atoms: C_30  and  N_33
REMARK    7  A    between atoms: C_41  and  C_43
REMARK                            x       y       z     vdW  Elec       q    Type
REMARK                         _______ _______ _______ _____ _____    ______ ____
ROOT
ATOM      1  C   UNL     1       7.202  -4.571  27.064  0.00  0.00    +0.000 C 
ATOM      2  O   UNL     1       7.457  -5.689  27.628  0.00  0.00    +0.000 OA
ENDROOT
BRANCH   1   6
ATOM      3  C   UNL     1       3.738  -3.496  25.684  0.00  0.00    +0.000 A 
ATOM      4  C   UNL     1       3.930  -4.799  26.412  0.00  0.00    +0.000 A 
ATOM      5  C   UNL     1       4.930  -5.150  27.441  0.00  0.00    +0.000 A 
ATOM      6  C   UNL     1       5.944  -3.984  27.542  0.00  0.00    +0.000 A 
ATOM      7  C   UNL     1       5.629  -2.550  27.319  0.00  0.00    +0.000 A 
ATOM      8  C   UNL     1       4.411  -2.370  26.351  0.00  0.00    +0.000 A 
BRANCH   3  11
ATOM      9  C   UNL     1       3.563  -4.977  23.927  0.00  0.00    +0.000 C 
ATOM     10  O   UNL     1       2.337  -4.880  23.754  0.00  0.00    +0.000 OA
ATOM     11  N   UNL     1       4.205  -3.909  24.402  0.00  0.00    +0.000 N 
ATOM     12  H   UNL     1       3.915  -3.158  23.824  0.00  0.00    +0.000 HD
BRANCH   9  18
ATOM     13  H   UNL     1       6.802  -5.164  19.485  0.00  0.00    +0.000 HD
ATOM     14  N   UNL     1       6.134  -5.502  20.206  0.00  0.00    +0.000 NA
ATOM     15  C   UNL     1       6.326  -5.259  21.407  0.00  0.00    +0.000 C 
ATOM     16  C   UNL     1       6.383  -6.554  22.299  0.00  0.00    +0.000 C 
ATOM     17  O   UNL     1       5.361  -6.425  23.255  0.00  0.00    +0.000 OA
ATOM     18  C   UNL     1       4.404  -5.518  22.752  0.00  0.00    +0.000 C 
ATOM     19  C   UNL     1       5.125  -4.425  22.060  0.00  0.00    +0.000 C 
ENDBRANCH   9  18
ENDBRANCH   3  11
ENDBRANCH   1   6
BRANCH   1  20
ATOM     20  C   UNL     1       8.253  -3.884  26.566  0.00  0.00    +0.000 A 
ATOM     21  C   UNL     1       8.469  -4.623  25.252  0.00  0.00    +0.000 A 
ATOM     22  C   UNL     1       8.558  -4.050  23.896  0.00  0.00    +0.000 A 
ATOM     23  C   UNL     1       8.367  -2.569  24.091  0.00  0.00    +0.000 A 
ATOM     24  C   UNL     1       8.402  -1.628  25.182  0.00  0.00    +0.000 A 
ATOM     25  C   UNL     1       8.546  -2.453  26.452  0.00  0.00    +0.000 A 
BRANCH  24  26
ATOM     26  C   UNL     1       9.613  -0.706  24.808  0.00  0.00    +0.000 C 
BRANCH  26  27
ATOM     27  N   UNL     1       9.249   0.216  23.891  0.00  0.00    +0.000 NA
ATOM     28  C   UNL     1       8.010   0.830  24.019  0.00  0.00    +0.000 C 
ATOM     29  C   UNL     1       7.108   0.629  22.802  0.00  0.00    +0.000 C 
ATOM     30  N   UNL     1       7.901   0.206  21.665  0.00  0.00    +0.000 N 
ATOM     31  C   UNL     1       7.295  -0.461  20.654  0.00  0.00    +0.000 C 
ATOM     32  O   UNL     1       6.596  -1.444  20.921  0.00  0.00    +0.000 OA
ATOM     33  C   UNL     1       9.242   0.711  21.501  0.00  0.00    +0.000 C 
ATOM     34  C   UNL     1       9.998   0.692  22.837  0.00  0.00    +0.000 C 
BRANCH  31  35
ATOM     35  C   UNL     1       7.040   0.274  19.366  0.00  0.00    +0.000 C 
ATOM     36 CL   UNL     1       5.293   0.503  19.120  0.00  0.00    +0.000 Cl
ENDBRANCH  31  35
ENDBRANCH  26  27
ENDBRANCH  24  26
ENDBRANCH   1  20
TORSDOF 7
ENDMDL
MODEL 9
REMARK VINA RESULT:      -7.3      2.636      3.956
REMARK  Name = 
REMARK  7 active torsions:
REMARK  status: ('A' for Active; 'I' for Inactive)
REMARK    1  A    between atoms: C_8  and  C_10
REMARK    2  A    between atoms: N_12  and  C_14
REMARK    3  A    between atoms: C_19  and  C_20
REMARK    4  A    between atoms: C_20  and  C_22
REMARK    5  A    between atoms: C_29  and  C_30
REMARK    6  A    between atoms: C_30  and  N_33
REMARK    7  A    between atoms: C_41  and  C_43
REMARK                            x       y       z     vdW  Elec       q    Type
REMARK                         _______ _______ _______ _____ _____    ______ ____
ROOT
ATOM      1  C   UNL     1       9.423  -1.266  23.909  0.00  0.00    +0.000 C 
ATOM      2  O   UNL     1      10.610  -0.797  23.975  0.00  0.00    +0.000 OA
ENDROOT
BRANCH   1   6
ATOM      3  C   UNL     1       7.091  -0.487  20.906  0.00  0.00    +0.000 A 
ATOM      4  C   UNL     1       8.542  -0.093  20.903  0.00  0.00    +0.000 A 
ATOM      5  C   UNL     1       9.677  -0.719  21.611  0.00  0.00    +0.000 A 
ATOM      6  C   UNL     1       9.109  -1.792  22.574  0.00  0.00    +0.000 A 
ATOM      7  C   UNL     1       7.889  -2.602  22.333  0.00  0.00    +0.000 A 
ATOM      8  C   UNL     1       6.877  -1.858  21.397  0.00  0.00    +0.000 A 
BRANCH   3  11
ATOM      9  C   UNL     1       6.480   1.733  20.982  0.00  0.00    +0.000 C 
ATOM     10  O   UNL     1       5.732   1.731  19.991  0.00  0.00    +0.000 OA
ATOM     11  N   UNL     1       6.586   0.601  21.677  0.00  0.00    +0.000 N 
ATOM     12  H   UNL     1       5.653   0.318  21.850  0.00  0.00    +0.000 HD
BRANCH   9  18
ATOM     13  H   UNL     1       5.605   4.394  25.717  0.00  0.00    +0.000 HD
ATOM     14  N   UNL     1       5.689   4.256  24.690  0.00  0.00    +0.000 NA
ATOM     15  C   UNL     1       6.648   3.627  24.216  0.00  0.00    +0.000 C 
ATOM     16  C   UNL     1       7.465   4.453  23.156  0.00  0.00    +0.000 C 
ATOM     17  O   UNL     1       7.418   3.721  21.957  0.00  0.00    +0.000 OA
ATOM     18  C   UNL     1       6.293   2.871  22.007  0.00  0.00    +0.000 C 
ATOM     19  C   UNL     1       6.181   2.339  23.385  0.00  0.00    +0.000 C 
ENDBRANCH   9  18
ENDBRANCH   3  11
ENDBRANCH   1   6
BRANCH   1  20
ATOM     20  C   UNL     1       8.861  -1.672  25.068  0.00  0.00    +0.000 A 
ATOM     21  C   UNL     1       7.738  -0.652  25.203  0.00  0.00    +0.000 A 
ATOM     22  C   UNL     1       6.302  -0.911  25.419  0.00  0.00    +0.000 A 
ATOM     23  C   UNL     1       6.183  -2.411  25.457  0.00  0.00    +0.000 A 
ATOM     24  C   UNL     1       7.061  -3.543  25.606  0.00  0.00    +0.000 A 
ATOM     25  C   UNL     1       8.478  -2.989  25.583  0.00  0.00    +0.000 A 
BRANCH  24  26
ATOM     26  C   UNL     1       6.583  -4.179  26.957  0.00  0.00    +0.000 C 
BRANCH  26  27
ATOM     27  N   UNL     1       5.468  -4.918  26.771  0.00  0.00    +0.000 NA
ATOM     28  C   UNL     1       5.590  -6.172  26.188  0.00  0.00    +0.000 C 
ATOM     29  C   UNL     1       4.776  -6.324  24.904  0.00  0.00    +0.000 C 
ATOM     30  N   UNL     1       3.771  -5.282  24.832  0.00  0.00    +0.000 N 
ATOM     31  C   UNL     1       3.267  -4.939  23.622  0.00  0.00    +0.000 C 
ATOM     32  O   UNL     1       4.049  -4.673  22.703  0.00  0.00    +0.000 OA
ATOM     33  C   UNL     1       3.142  -4.811  26.041  0.00  0.00    +0.000 C 
ATOM     34  C   UNL     1       4.182  -4.606  27.151  0.00  0.00    +0.000 C 
BRANCH  31  35
ATOM     35  C   UNL     1       1.876  -5.392  23.274  0.00  0.00    +0.000 C 
ATOM     36 CL   UNL     1       1.899  -7.078  22.708  0.00  0.00    +0.000 Cl
ENDBRANCH  31  35
ENDBRANCH  26  27
ENDBRANCH  24  26
ENDBRANCH   1  20
TORSDOF 7
ENDMDL
