MODEL 1
REMARK VINA RESULT:      -9.5      0.000      0.000
REMARK  Name = 
REMARK  2 active torsions:
REMARK  status: ('A' for Active; 'I' for Inactive)
REMARK    1  A    between atoms: C_7  and  C_8
REMARK    2  A    between atoms: C_24  and  C_26
REMARK                            x       y       z     vdW  Elec       q    Type
REMARK                         _______ _______ _______ _____ _____    ______ ____
ROOT
ATOM      1  C   UNL     1       8.506  -0.193  21.273  0.00  0.00    +0.000 C 
ATOM      2  C   UNL     1       8.585   1.000  22.040  0.00  0.00    +0.000 A 
ATOM      3  C   UNL     1       9.961   1.498  21.964  0.00  0.00    +0.000 A 
ATOM      4  C   UNL     1      10.528   2.455  22.946  0.00  0.00    +0.000 A 
ATOM      5  C   UNL     1       9.529   2.467  24.094  0.00  0.00    +0.000 A 
ATOM      6  C   UNL     1       8.285   1.869  24.424  0.00  0.00    +0.000 A 
ATOM      7  C   UNL     1       8.299   0.480  23.551  0.00  0.00    +0.000 A 
ATOM      8  C   UNL     1       8.474  -0.633  24.333  0.00  0.00    +0.000 C 
ATOM      9  N   UNL     1       8.351  -1.619  23.366  0.00  0.00    +0.000 N 
ATOM     10  C   UNL     1       8.417  -2.855  23.505  0.00  0.00    +0.000 C 
ATOM     11  O   UNL     1       9.532  -2.822  24.519  0.00  0.00    +0.000 OA
ATOM     12  C   UNL     1       8.817  -1.353  22.097  0.00  0.00    +0.000 C 
ENDROOT
BRANCH  10  13
ATOM     13  C   UNL     1       7.857  -3.878  23.925  0.00  0.00    +0.000 A 
ATOM     14  C   UNL     1       8.899  -4.551  24.786  0.00  0.00    +0.000 A 
ATOM     15  C   UNL     1       8.695  -5.022  26.164  0.00  0.00    +0.000 A 
ATOM     16  C   UNL     1       7.193  -4.999  26.382  0.00  0.00    +0.000 A 
ATOM     17  C   UNL     1       6.094  -4.682  25.662  0.00  0.00    +0.000 A 
ATOM     18  C   UNL     1       5.555  -6.004  25.495  0.00  0.00    +0.000 A 
ATOM     19  C   UNL     1       4.729  -6.852  24.783  0.00  0.00    +0.000 A 
ATOM     20  C   UNL     1       5.083  -6.208  23.428  0.00  0.00    +0.000 A 
ATOM     21  C   UNL     1       6.029  -5.350  23.186  0.00  0.00    +0.000 A 
ATOM     22  C   UNL     1       6.551  -4.395  24.159  0.00  0.00    +0.000 A 
ENDBRANCH  10  13
BRANCH   1  26
ATOM     23  C   UNL     1       5.797   0.115  18.250  0.00  0.00    +0.000 A 
ATOM     24  C   UNL     1       6.020   1.324  19.110  0.00  0.00    +0.000 A 
ATOM     25  C   UNL     1       6.592   1.324  20.508  0.00  0.00    +0.000 A 
ATOM     26  C   UNL     1       7.064  -0.107  20.854  0.00  0.00    +0.000 A 
ATOM     27  C   UNL     1       6.200  -1.249  20.480  0.00  0.00    +0.000 A 
ATOM     28  C   UNL     1       5.769  -1.165  19.012  0.00  0.00    +0.000 A 
ENDBRANCH   1  26
TORSDOF 2
ENDMDL
MODEL 2
REMARK VINA RESULT:      -8.9      1.636      4.005
REMARK  Name = 
REMARK  2 active torsions:
REMARK  status: ('A' for Active; 'I' for Inactive)
REMARK    1  A    between atoms: C_7  and  C_8
REMARK    2  A    between atoms: C_24  and  C_26
REMARK                            x       y       z     vdW  Elec       q    Type
REMARK                         _______ _______ _______ _____ _____    ______ ____
ROOT
ATOM      1  C   UNL     1       6.768   1.352  22.554  0.00  0.00    +0.000 C 
ATOM      2  C   UNL     1       6.986   1.380  21.151  0.00  0.00    +0.000 A 
ATOM      3  C   UNL     1       5.737   1.788  20.504  0.00  0.00    +0.000 A 
ATOM      4  C   UNL     1       5.448   1.531  19.072  0.00  0.00    +0.000 A 
ATOM      5  C   UNL     1       6.510   0.532  18.637  0.00  0.00    +0.000 A 
ATOM      6  C   UNL     1       7.630  -0.136  19.197  0.00  0.00    +0.000 A 
ATOM      7  C   UNL     1       7.273  -0.179  20.798  0.00  0.00    +0.000 A 
ATOM      8  C   UNL     1       6.937  -1.436  21.230  0.00  0.00    +0.000 C 
ATOM      9  N   UNL     1       6.787  -1.185  22.586  0.00  0.00    +0.000 N 
ATOM     10  C   UNL     1       6.485  -1.981  23.494  0.00  0.00    +0.000 C 
ATOM     11  O   UNL     1       5.478  -2.749  22.677  0.00  0.00    +0.000 OA
ATOM     12  C   UNL     1       6.293   0.041  22.973  0.00  0.00    +0.000 C 
ENDROOT
BRANCH  10  13
ATOM     13  C   UNL     1       6.858  -2.925  24.206  0.00  0.00    +0.000 A 
ATOM     14  C   UNL     1       8.225  -3.281  23.674  0.00  0.00    +0.000 A 
ATOM     15  C   UNL     1       9.444  -3.434  24.483  0.00  0.00    +0.000 A 
ATOM     16  C   UNL     1       8.970  -3.498  25.923  0.00  0.00    +0.000 A 
ATOM     17  C   UNL     1       7.787  -3.459  26.577  0.00  0.00    +0.000 A 
ATOM     18  C   UNL     1       7.737  -4.828  27.015  0.00  0.00    +0.000 A 
ATOM     19  C   UNL     1       6.971  -5.890  27.456  0.00  0.00    +0.000 A 
ATOM     20  C   UNL     1       5.796  -5.550  26.520  0.00  0.00    +0.000 A 
ATOM     21  C   UNL     1       5.786  -4.689  25.545  0.00  0.00    +0.000 A 
ATOM     22  C   UNL     1       6.617  -3.491  25.490  0.00  0.00    +0.000 A 
ENDBRANCH  10  13
BRANCH   1  26
ATOM     23  C   UNL     1      10.494   0.013  23.501  0.00  0.00    +0.000 A 
ATOM     24  C   UNL     1       9.606   0.452  24.627  0.00  0.00    +0.000 A 
ATOM     25  C   UNL     1       8.419   1.378  24.510  0.00  0.00    +0.000 A 
ATOM     26  C   UNL     1       8.163   1.675  23.015  0.00  0.00    +0.000 A 
ATOM     27  C   UNL     1       9.323   1.953  22.138  0.00  0.00    +0.000 A 
ATOM     28  C   UNL     1      10.410   0.885  22.296  0.00  0.00    +0.000 A 
ENDBRANCH   1  26
TORSDOF 2
ENDMDL
MODEL 3
REMARK VINA RESULT:      -8.8      2.084      6.791
REMARK  Name = 
REMARK  2 active torsions:
REMARK  status: ('A' for Active; 'I' for Inactive)
REMARK    1  A    between atoms: C_7  and  C_8
REMARK    2  A    between atoms: C_24  and  C_26
REMARK                            x       y       z     vdW  Elec       q    Type
REMARK                         _______ _______ _______ _____ _____    ______ ____
ROOT
ATOM      1  C   UNL     1       4.728  -3.335  24.761  0.00  0.00    +0.000 C 
ATOM      2  C   UNL     1       5.028  -4.450  25.589  0.00  0.00    +0.000 A 
ATOM      3  C   UNL     1       4.292  -4.293  26.846  0.00  0.00    +0.000 A 
ATOM      4  C   UNL     1       4.663  -5.008  28.092  0.00  0.00    +0.000 A 
ATOM      5  C   UNL     1       6.050  -5.570  27.817  0.00  0.00    +0.000 A 
ATOM      6  C   UNL     1       6.987  -5.606  26.752  0.00  0.00    +0.000 A 
ATOM      7  C   UNL     1       6.614  -4.265  25.884  0.00  0.00    +0.000 A 
ATOM      8  C   UNL     1       7.553  -3.274  26.013  0.00  0.00    +0.000 C 
ATOM      9  N   UNL     1       7.033  -2.343  25.127  0.00  0.00    +0.000 N 
ATOM     10  C   UNL     1       7.485  -1.222  24.826  0.00  0.00    +0.000 C 
ATOM     11  O   UNL     1       7.939  -0.875  26.221  0.00  0.00    +0.000 OA
ATOM     12  C   UNL     1       5.664  -2.248  25.005  0.00  0.00    +0.000 C 
ENDROOT
BRANCH  10  13
ATOM     13  C   UNL     1       8.362  -0.591  24.217  0.00  0.00    +0.000 A 
ATOM     14  C   UNL     1       9.215  -1.657  23.575  0.00  0.00    +0.000 A 
ATOM     15  C   UNL     1       9.602  -1.703  22.157  0.00  0.00    +0.000 A 
ATOM     16  C   UNL     1       9.266  -0.331  21.600  0.00  0.00    +0.000 A 
ATOM     17  C   UNL     1       8.745   0.825  22.068  0.00  0.00    +0.000 A 
ATOM     18  C   UNL     1       9.932   1.635  22.012  0.00  0.00    +0.000 A 
ATOM     19  C   UNL     1      10.607   2.757  22.453  0.00  0.00    +0.000 A 
ATOM     20  C   UNL     1      10.080   2.620  23.895  0.00  0.00    +0.000 A 
ATOM     21  C   UNL     1       9.441   1.612  24.409  0.00  0.00    +0.000 A 
ATOM     22  C   UNL     1       8.593   0.696  23.653  0.00  0.00    +0.000 A 
ENDBRANCH  10  13
BRANCH   1  26
ATOM     23  C   UNL     1       7.157  -5.246  22.112  0.00  0.00    +0.000 A 
ATOM     24  C   UNL     1       6.770  -3.830  21.803  0.00  0.00    +0.000 A 
ATOM     25  C   UNL     1       5.569  -3.100  22.355  0.00  0.00    +0.000 A 
ATOM     26  C   UNL     1       4.886  -3.992  23.417  0.00  0.00    +0.000 A 
ATOM     27  C   UNL     1       4.725  -5.436  23.133  0.00  0.00    +0.000 A 
ATOM     28  C   UNL     1       6.044  -6.064  22.669  0.00  0.00    +0.000 A 
ENDBRANCH   1  26
TORSDOF 2
ENDMDL
MODEL 4
REMARK VINA RESULT:      -8.7      1.968      7.291
REMARK  Name = 
REMARK  2 active torsions:
REMARK  status: ('A' for Active; 'I' for Inactive)
REMARK    1  A    between atoms: C_7  and  C_8
REMARK    2  A    between atoms: C_24  and  C_26
REMARK                            x       y       z     vdW  Elec       q    Type
REMARK                         _______ _______ _______ _____ _____    ______ ____
ROOT
ATOM      1  C   UNL     1       8.602  -3.653  24.218  0.00  0.00    +0.000 C 
ATOM      2  C   UNL     1       7.380  -4.312  23.916  0.00  0.00    +0.000 A 
ATOM      3  C   UNL     1       7.666  -5.382  22.956  0.00  0.00    +0.000 A 
ATOM      4  C   UNL     1       6.623  -5.998  22.100  0.00  0.00    +0.000 A 
ATOM      5  C   UNL     1       5.424  -5.069  22.223  0.00  0.00    +0.000 A 
ATOM      6  C   UNL     1       5.070  -3.880  22.913  0.00  0.00    +0.000 A 
ATOM      7  C   UNL     1       6.519  -3.156  23.169  0.00  0.00    +0.000 A 
ATOM      8  C   UNL     1       6.703  -2.049  22.380  0.00  0.00    +0.000 C 
ATOM      9  N   UNL     1       7.925  -1.613  22.870  0.00  0.00    +0.000 N 
ATOM     10  C   UNL     1       8.592  -0.621  22.521  0.00  0.00    +0.000 C 
ATOM     11  O   UNL     1       8.290  -0.760  21.050  0.00  0.00    +0.000 OA
ATOM     12  C   UNL     1       8.837  -2.557  23.289  0.00  0.00    +0.000 C 
ENDROOT
BRANCH  10  13
ATOM     13  C   UNL     1       8.693   0.614  22.541  0.00  0.00    +0.000 A 
ATOM     14  C   UNL     1       7.716   1.089  21.492  0.00  0.00    +0.000 A 
ATOM     15  C   UNL     1       6.686   2.121  21.688  0.00  0.00    +0.000 A 
ATOM     16  C   UNL     1       7.042   2.807  22.994  0.00  0.00    +0.000 A 
ATOM     17  C   UNL     1       8.008   2.702  23.934  0.00  0.00    +0.000 A 
ATOM     18  C   UNL     1       8.702   3.933  23.668  0.00  0.00    +0.000 A 
ATOM     19  C   UNL     1       9.865   4.671  23.781  0.00  0.00    +0.000 A 
ATOM     20  C   UNL     1      10.773   3.446  23.555  0.00  0.00    +0.000 A 
ATOM     21  C   UNL     1      10.414   2.259  23.162  0.00  0.00    +0.000 A 
ATOM     22  C   UNL     1       9.103   1.666  23.408  0.00  0.00    +0.000 A 
ENDBRANCH  10  13
BRANCH   1  26
ATOM     23  C   UNL     1       6.241  -1.460  26.707  0.00  0.00    +0.000 A 
ATOM     24  C   UNL     1       7.631  -0.960  26.448  0.00  0.00    +0.000 A 
ATOM     25  C   UNL     1       8.796  -1.791  25.964  0.00  0.00    +0.000 A 
ATOM     26  C   UNL     1       8.288  -3.211  25.621  0.00  0.00    +0.000 A 
ATOM     27  C   UNL     1       7.331  -3.864  26.543  0.00  0.00    +0.000 A 
ATOM     28  C   UNL     1       6.157  -2.938  26.876  0.00  0.00    +0.000 A 
ENDBRANCH   1  26
TORSDOF 2
ENDMDL
MODEL 5
REMARK VINA RESULT:      -8.5      1.389      1.760
REMARK  Name = 
REMARK  2 active torsions:
REMARK  status: ('A' for Active; 'I' for Inactive)
REMARK    1  A    between atoms: C_7  and  C_8
REMARK    2  A    between atoms: C_24  and  C_26
REMARK                            x       y       z     vdW  Elec       q    Type
REMARK                         _______ _______ _______ _____ _____    ______ ____
ROOT
ATOM      1  C   UNL     1       8.588   0.072  21.559  0.00  0.00    +0.000 C 
ATOM      2  C   UNL     1       8.651   1.389  22.085  0.00  0.00    +0.000 A 
ATOM      3  C   UNL     1      10.029   1.869  21.945  0.00  0.00    +0.000 A 
ATOM      4  C   UNL     1      10.574   2.998  22.738  0.00  0.00    +0.000 A 
ATOM      5  C   UNL     1       9.552   3.224  23.842  0.00  0.00    +0.000 A 
ATOM      6  C   UNL     1       8.301   2.695  24.254  0.00  0.00    +0.000 A 
ATOM      7  C   UNL     1       8.334   1.166  23.662  0.00  0.00    +0.000 A 
ATOM      8  C   UNL     1       8.492   0.222  24.645  0.00  0.00    +0.000 C 
ATOM      9  N   UNL     1       8.390  -0.930  23.881  0.00  0.00    +0.000 N 
ATOM     10  C   UNL     1       8.453  -2.116  24.255  0.00  0.00    +0.000 C 
ATOM     11  O   UNL     1       9.546  -1.887  25.267  0.00  0.00    +0.000 OA
ATOM     12  C   UNL     1       8.881  -0.909  22.594  0.00  0.00    +0.000 C 
ENDROOT
BRANCH  10  13
ATOM     13  C   UNL     1       7.884  -3.044  24.850  0.00  0.00    +0.000 A 
ATOM     14  C   UNL     1       8.011  -4.224  23.917  0.00  0.00    +0.000 A 
ATOM     15  C   UNL     1       8.508  -5.557  24.289  0.00  0.00    +0.000 A 
ATOM     16  C   UNL     1       8.526  -5.575  25.807  0.00  0.00    +0.000 A 
ATOM     17  C   UNL     1       8.211  -4.725  26.809  0.00  0.00    +0.000 A 
ATOM     18  C   UNL     1       7.042  -5.399  27.305  0.00  0.00    +0.000 A 
ATOM     19  C   UNL     1       5.863  -5.328  28.023  0.00  0.00    +0.000 A 
ATOM     20  C   UNL     1       5.528  -3.915  27.508  0.00  0.00    +0.000 A 
ATOM     21  C   UNL     1       6.119  -3.263  26.550  0.00  0.00    +0.000 A 
ATOM     22  C   UNL     1       7.517  -3.437  26.168  0.00  0.00    +0.000 A 
ENDBRANCH  10  13
BRANCH   1  26
ATOM     23  C   UNL     1       5.946  -0.092  18.466  0.00  0.00    +0.000 A 
ATOM     24  C   UNL     1       6.129   1.227  19.155  0.00  0.00    +0.000 A 
ATOM     25  C   UNL     1       6.667   1.431  20.551  0.00  0.00    +0.000 A 
ATOM     26  C   UNL     1       7.155   0.071  21.101  0.00  0.00    +0.000 A 
ATOM     27  C   UNL     1       6.320  -1.129  20.870  0.00  0.00    +0.000 A 
ATOM     28  C   UNL     1       5.922  -1.256  19.396  0.00  0.00    +0.000 A 
ENDBRANCH   1  26
TORSDOF 2
ENDMDL
MODEL 6
REMARK VINA RESULT:      -8.5      2.028      3.143
REMARK  Name = 
REMARK  2 active torsions:
REMARK  status: ('A' for Active; 'I' for Inactive)
REMARK    1  A    between atoms: C_7  and  C_8
REMARK    2  A    between atoms: C_24  and  C_26
REMARK                            x       y       z     vdW  Elec       q    Type
REMARK                         _______ _______ _______ _____ _____    ______ ____
ROOT
ATOM      1  C   UNL     1       9.387   1.258  24.616  0.00  0.00    +0.000 C 
ATOM      2  C   UNL     1       8.484   2.260  24.169  0.00  0.00    +0.000 A 
ATOM      3  C   UNL     1       8.400   3.291  25.206  0.00  0.00    +0.000 A 
ATOM      4  C   UNL     1       7.275   4.255  25.296  0.00  0.00    +0.000 A 
ATOM      5  C   UNL     1       6.211   3.693  24.366  0.00  0.00    +0.000 A 
ATOM      6  C   UNL     1       6.045   2.592  23.486  0.00  0.00    +0.000 A 
ATOM      7  C   UNL     1       7.068   1.468  24.102  0.00  0.00    +0.000 A 
ATOM      8  C   UNL     1       6.409   0.434  24.717  0.00  0.00    +0.000 C 
ATOM      9  N   UNL     1       7.490  -0.372  25.041  0.00  0.00    +0.000 N 
ATOM     10  C   UNL     1       7.489  -1.473  25.621  0.00  0.00    +0.000 C 
ATOM     11  O   UNL     1       6.399  -1.117  26.599  0.00  0.00    +0.000 OA
ATOM     12  C   UNL     1       8.682   0.234  25.373  0.00  0.00    +0.000 C 
ENDROOT
BRANCH  10  13
ATOM     13  C   UNL     1       7.232  -2.684  25.539  0.00  0.00    +0.000 A 
ATOM     14  C   UNL     1       8.584  -3.348  25.428  0.00  0.00    +0.000 A 
ATOM     15  C   UNL     1       9.053  -4.474  26.251  0.00  0.00    +0.000 A 
ATOM     16  C   UNL     1       7.815  -5.010  26.948  0.00  0.00    +0.000 A 
ATOM     17  C   UNL     1       6.495  -4.722  26.978  0.00  0.00    +0.000 A 
ATOM     18  C   UNL     1       6.005  -5.882  26.282  0.00  0.00    +0.000 A 
ATOM     19  C   UNL     1       4.988  -6.469  25.554  0.00  0.00    +0.000 A 
ATOM     20  C   UNL     1       4.654  -5.169  24.797  0.00  0.00    +0.000 A 
ATOM     21  C   UNL     1       5.343  -4.066  24.782  0.00  0.00    +0.000 A 
ATOM     22  C   UNL     1       6.203  -3.610  25.869  0.00  0.00    +0.000 A 
ENDBRANCH  10  13
BRANCH   1  26
ATOM     23  C   UNL     1       8.720  -0.864  21.207  0.00  0.00    +0.000 A 
ATOM     24  C   UNL     1       9.677  -1.440  22.208  0.00  0.00    +0.000 A 
ATOM     25  C   UNL     1      10.413  -0.667  23.277  0.00  0.00    +0.000 A 
ATOM     26  C   UNL     1       9.899   0.791  23.281  0.00  0.00    +0.000 A 
ATOM     27  C   UNL     1       9.685   1.472  21.984  0.00  0.00    +0.000 A 
ATOM     28  C   UNL     1       8.849   0.610  21.032  0.00  0.00    +0.000 A 
ENDBRANCH   1  26
TORSDOF 2
ENDMDL
MODEL 7
REMARK VINA RESULT:      -8.5      2.273      7.251
REMARK  Name = 
REMARK  2 active torsions:
REMARK  status: ('A' for Active; 'I' for Inactive)
REMARK    1  A    between atoms: C_7  and  C_8
REMARK    2  A    between atoms: C_24  and  C_26
REMARK                            x       y       z     vdW  Elec       q    Type
REMARK                         _______ _______ _______ _____ _____    ______ ____
ROOT
ATOM      1  C   UNL     1       5.211  -4.148  24.275  0.00  0.00    +0.000 C 
ATOM      2  C   UNL     1       4.504  -4.083  25.505  0.00  0.00    +0.000 A 
ATOM      3  C   UNL     1       3.082  -3.894  25.204  0.00  0.00    +0.000 A 
ATOM      4  C   UNL     1       2.110  -3.369  26.194  0.00  0.00    +0.000 A 
ATOM      5  C   UNL     1       2.969  -2.812  27.320  0.00  0.00    +0.000 A 
ATOM      6  C   UNL     1       4.345  -2.703  27.650  0.00  0.00    +0.000 A 
ATOM      7  C   UNL     1       5.080  -2.725  26.184  0.00  0.00    +0.000 A 
ATOM      8  C   UNL     1       5.582  -1.500  25.826  0.00  0.00    +0.000 C 
ATOM      9  N   UNL     1       6.202  -1.841  24.633  0.00  0.00    +0.000 N 
ATOM     10  C   UNL     1       6.841  -1.109  23.855  0.00  0.00    +0.000 C 
ATOM     11  O   UNL     1       5.932   0.084  24.004  0.00  0.00    +0.000 OA
ATOM     12  C   UNL     1       5.627  -2.819  23.852  0.00  0.00    +0.000 C 
ENDROOT
BRANCH  10  13
ATOM     13  C   UNL     1       7.891  -0.478  23.657  0.00  0.00    +0.000 A 
ATOM     14  C   UNL     1       8.906  -1.538  23.305  0.00  0.00    +0.000 A 
ATOM     15  C   UNL     1       9.791  -1.517  22.130  0.00  0.00    +0.000 A 
ATOM     16  C   UNL     1       9.706  -0.104  21.583  0.00  0.00    +0.000 A 
ATOM     17  C   UNL     1       9.065   1.043  21.902  0.00  0.00    +0.000 A 
ATOM     18  C   UNL     1      10.200   1.808  22.344  0.00  0.00    +0.000 A 
ATOM     19  C   UNL     1      10.680   2.876  23.078  0.00  0.00    +0.000 A 
ATOM     20  C   UNL     1       9.653   2.677  24.210  0.00  0.00    +0.000 A 
ATOM     21  C   UNL     1       8.854   1.667  24.382  0.00  0.00    +0.000 A 
ATOM     22  C   UNL     1       8.334   0.829  23.306  0.00  0.00    +0.000 A 
ENDBRANCH  10  13
BRANCH   1  26
ATOM     23  C   UNL     1       8.853  -4.493  26.061  0.00  0.00    +0.000 A 
ATOM     24  C   UNL     1       8.794  -4.636  24.569  0.00  0.00    +0.000 A 
ATOM     25  C   UNL     1       7.570  -4.998  23.761  0.00  0.00    +0.000 A 
ATOM     26  C   UNL     1       6.344  -5.039  24.703  0.00  0.00    +0.000 A 
ATOM     27  C   UNL     1       6.490  -5.681  26.029  0.00  0.00    +0.000 A 
ATOM     28  C   UNL     1       7.722  -5.153  26.772  0.00  0.00    +0.000 A 
ENDBRANCH   1  26
TORSDOF 2
ENDMDL
MODEL 8
REMARK VINA RESULT:      -8.4      1.967      3.323
REMARK  Name = 
REMARK  2 active torsions:
REMARK  status: ('A' for Active; 'I' for Inactive)
REMARK    1  A    between atoms: C_7  and  C_8
REMARK    2  A    between atoms: C_24  and  C_26
REMARK                            x       y       z     vdW  Elec       q    Type
REMARK                         _______ _______ _______ _____ _____    ______ ____
ROOT
ATOM      1  C   UNL     1       9.067   1.199  24.879  0.00  0.00    +0.000 C 
ATOM      2  C   UNL     1       8.085   2.185  24.595  0.00  0.00    +0.000 A 
ATOM      3  C   UNL     1       7.796   2.911  25.834  0.00  0.00    +0.000 A 
ATOM      4  C   UNL     1       6.558   3.703  26.036  0.00  0.00    +0.000 A 
ATOM      5  C   UNL     1       5.644   3.289  24.893  0.00  0.00    +0.000 A 
ATOM      6  C   UNL     1       5.682   2.432  23.762  0.00  0.00    +0.000 A 
ATOM      7  C   UNL     1       6.785   1.298  24.193  0.00  0.00    +0.000 A 
ATOM      8  C   UNL     1       6.213   0.083  24.471  0.00  0.00    +0.000 C 
ATOM      9  N   UNL     1       7.357  -0.667  24.702  0.00  0.00    +0.000 N 
ATOM     10  C   UNL     1       7.447  -1.873  24.998  0.00  0.00    +0.000 C 
ATOM     11  O   UNL     1       6.250  -1.883  25.914  0.00  0.00    +0.000 OA
ATOM     12  C   UNL     1       8.437  -0.047  25.291  0.00  0.00    +0.000 C 
ENDROOT
BRANCH  10  13
ATOM     13  C   UNL     1       7.348  -3.044  24.601  0.00  0.00    +0.000 A 
ATOM     14  C   UNL     1       7.836  -3.876  25.762  0.00  0.00    +0.000 A 
ATOM     15  C   UNL     1       7.124  -5.019  26.354  0.00  0.00    +0.000 A 
ATOM     16  C   UNL     1       6.026  -5.369  25.365  0.00  0.00    +0.000 A 
ATOM     17  C   UNL     1       5.594  -4.916  24.167  0.00  0.00    +0.000 A 
ATOM     18  C   UNL     1       6.003  -6.031  23.355  0.00  0.00    +0.000 A 
ATOM     19  C   UNL     1       6.317  -6.514  22.099  0.00  0.00    +0.000 A 
ATOM     20  C   UNL     1       7.024  -5.212  21.675  0.00  0.00    +0.000 A 
ATOM     21  C   UNL     1       7.346  -4.206  22.433  0.00  0.00    +0.000 A 
ATOM     22  C   UNL     1       6.633  -3.820  23.646  0.00  0.00    +0.000 A 
ENDBRANCH  10  13
BRANCH   1  26
ATOM     23  C   UNL     1       8.955  -0.114  21.027  0.00  0.00    +0.000 A 
ATOM     24  C   UNL     1       9.917  -0.785  21.963  0.00  0.00    +0.000 A 
ATOM     25  C   UNL     1      10.455  -0.202  23.248  0.00  0.00    +0.000 A 
ATOM     26  C   UNL     1       9.732   1.135  23.532  0.00  0.00    +0.000 A 
ATOM     27  C   UNL     1       9.508   2.073  22.408  0.00  0.00    +0.000 A 
ATOM     28  C   UNL     1       8.876   1.363  21.207  0.00  0.00    +0.000 A 
ENDBRANCH   1  26
TORSDOF 2
ENDMDL
MODEL 9
REMARK VINA RESULT:      -8.4      2.421      3.971
REMARK  Name = 
REMARK  2 active torsions:
REMARK  status: ('A' for Active; 'I' for Inactive)
REMARK    1  A    between atoms: C_7  and  C_8
REMARK    2  A    between atoms: C_24  and  C_26
REMARK                            x       y       z     vdW  Elec       q    Type
REMARK                         _______ _______ _______ _____ _____    ______ ____
ROOT
ATOM      1  C   UNL     1       8.816   1.811  25.189  0.00  0.00    +0.000 C 
ATOM      2  C   UNL     1       8.354   3.000  24.563  0.00  0.00    +0.000 A 
ATOM      3  C   UNL     1       7.877   3.909  25.609  0.00  0.00    +0.000 A 
ATOM      4  C   UNL     1       6.956   5.039  25.336  0.00  0.00    +0.000 A 
ATOM      5  C   UNL     1       6.433   4.781  23.931  0.00  0.00    +0.000 A 
ATOM      6  C   UNL     1       6.610   3.831  22.892  0.00  0.00    +0.000 A 
ATOM      7  C   UNL     1       7.081   2.483  23.699  0.00  0.00    +0.000 A 
ATOM      8  C   UNL     1       6.105   1.520  23.734  0.00  0.00    +0.000 C 
ATOM      9  N   UNL     1       6.801   0.505  24.373  0.00  0.00    +0.000 N 
ATOM     10  C   UNL     1       6.405  -0.637  24.673  0.00  0.00    +0.000 C 
ATOM     11  O   UNL     1       5.018  -0.204  25.074  0.00  0.00    +0.000 OA
ATOM     12  C   UNL     1       7.732   0.850  25.328  0.00  0.00    +0.000 C 
ENDROOT
BRANCH  10  13
ATOM     13  C   UNL     1       6.101  -1.767  24.262  0.00  0.00    +0.000 A 
ATOM     14  C   UNL     1       6.608  -1.798  22.840  0.00  0.00    +0.000 A 
ATOM     15  C   UNL     1       7.452  -2.853  22.257  0.00  0.00    +0.000 A 
ATOM     16  C   UNL     1       7.402  -4.004  23.244  0.00  0.00    +0.000 A 
ATOM     17  C   UNL     1       6.807  -4.265  24.430  0.00  0.00    +0.000 A 
ATOM     18  C   UNL     1       5.861  -5.252  23.984  0.00  0.00    +0.000 A 
ATOM     19  C   UNL     1       4.679  -5.931  24.213  0.00  0.00    +0.000 A 
ATOM     20  C   UNL     1       3.975  -4.692  24.800  0.00  0.00    +0.000 A 
ATOM     21  C   UNL     1       4.396  -3.462  24.782  0.00  0.00    +0.000 A 
ATOM     22  C   UNL     1       5.801  -3.068  24.755  0.00  0.00    +0.000 A 
ENDBRANCH  10  13
BRANCH   1  26
ATOM     23  C   UNL     1       9.731  -0.094  21.710  0.00  0.00    +0.000 A 
ATOM     24  C   UNL     1      10.154  -0.747  22.992  0.00  0.00    +0.000 A 
ATOM     25  C   UNL     1      10.339  -0.054  24.321  0.00  0.00    +0.000 A 
ATOM     26  C   UNL     1       9.866   1.412  24.189  0.00  0.00    +0.000 A 
ATOM     27  C   UNL     1      10.241   2.172  22.975  0.00  0.00    +0.000 A 
ATOM     28  C   UNL     1       9.914   1.385  21.702  0.00  0.00    +0.000 A 
ENDBRANCH   1  26
TORSDOF 2
ENDMDL
