MODEL 1
REMARK VINA RESULT:      -8.6      0.000      0.000
REMARK  Name = 
REMARK  5 active torsions:
REMARK  status: ('A' for Active; 'I' for Inactive)
REMARK    1  A    between atoms: N_5  and  N_6
REMARK    2  A    between atoms: N_5  and  C_39
REMARK    3  A    between atoms: C_14  and  C_16
REMARK    4  A    between atoms: C_16  and  C_19
REMARK    5  A    between atoms: N_47  and  C_48
REMARK                            x       y       z     vdW  Elec       q    Type
REMARK                         _______ _______ _______ _____ _____    ______ ____
ROOT
ATOM      1  N   UNL     1       8.830   0.004  23.989  0.00  0.00    +0.000 NA
ATOM      2  C   UNL     1       8.217  -0.504  25.167  0.00  0.00    +0.000 C 
ATOM      3  C   UNL     1       8.789  -1.891  25.471  0.00  0.00    +0.000 C 
ATOM      4  N   UNL     1       8.965  -2.614  24.201  0.00  0.00    +0.000 N 
ATOM      5  C   UNL     1       8.993  -3.982  24.288  0.00  0.00    +0.000 C 
ATOM      6  O   UNL     1      10.027  -4.493  24.711  0.00  0.00    +0.000 OA
ATOM      7  C   UNL     1       9.940  -2.041  23.260  0.00  0.00    +0.000 C 
ATOM      8  C   UNL     1      10.052  -0.545  23.467  0.00  0.00    +0.000 C 
ENDROOT
BRANCH   1  12
ATOM      9  C   UNL     1       6.675  -1.536  21.774  0.00  0.00    +0.000 A 
ATOM     10  N   UNL     1       7.061  -0.637  22.783  0.00  0.00    +0.000 NA
ATOM     11  C   UNL     1       7.382   0.570  22.418  0.00  0.00    +0.000 A 
ATOM     12  N   UNL     1       8.299   0.957  23.318  0.00  0.00    +0.000 N 
ATOM     13  C   UNL     1       8.198   2.219  23.991  0.00  0.00    +0.000 C 
ATOM     14  C   UNL     1       7.309   1.286  21.094  0.00  0.00    +0.000 A 
ATOM     15  C   UNL     1       6.174   2.291  20.895  0.00  0.00    +0.000 C 
ATOM     16  N   UNL     1       5.284   1.613  20.028  0.00  0.00    +0.000 NA
ATOM     17  N   UNL     1       5.876   0.558  19.346  0.00  0.00    +0.000 N 
ATOM     18  C   UNL     1       6.059   1.054  17.966  0.00  0.00    +0.000 C 
ATOM     19  C   UNL     1       6.966   0.147  20.036  0.00  0.00    +0.000 A 
ATOM     20  N   UNL     1       6.882  -1.015  20.634  0.00  0.00    +0.000 NA
ENDBRANCH   1  12
BRANCH   5  21
ATOM     21  C   UNL     1       7.705  -4.720  24.211  0.00  0.00    +0.000 C 
BRANCH  21  22
ATOM     22  C   UNL     1       6.991  -4.438  22.895  0.00  0.00    +0.000 C 
ATOM     23  C   UNL     1       7.163  -5.797  22.084  0.00  0.00    +0.000 C 
ATOM     24  N   UNL     1       6.054  -6.637  22.376  0.00  0.00    +0.000 N 
ATOM     25  H   UNL     1       5.820  -7.043  21.534  0.00  0.00    +0.000 HD
ATOM     26  C   UNL     1       4.936  -5.911  22.769  0.00  0.00    +0.000 A 
ATOM     27  N   UNL     1       4.474  -6.750  23.918  0.00  0.00    +0.000 NA
ATOM     28  C   UNL     1       4.631  -6.135  25.016  0.00  0.00    +0.000 A 
ATOM     29  C   UNL     1       4.521  -4.734  25.260  0.00  0.00    +0.000 A 
ATOM     30  C   UNL     1       5.041  -3.703  24.374  0.00  0.00    +0.000 A 
ATOM     31  C   UNL     1       5.427  -4.603  23.228  0.00  0.00    +0.000 A 
ENDBRANCH  21  22
ENDBRANCH   5  21
TORSDOF 3
ENDMDL
MODEL 2
REMARK VINA RESULT:      -8.0      2.546      7.935
REMARK  Name = 
REMARK  5 active torsions:
REMARK  status: ('A' for Active; 'I' for Inactive)
REMARK    1  A    between atoms: N_5  and  N_6
REMARK    2  A    between atoms: N_5  and  C_39
REMARK    3  A    between atoms: C_14  and  C_16
REMARK    4  A    between atoms: C_16  and  C_19
REMARK    5  A    between atoms: N_47  and  C_48
REMARK                            x       y       z     vdW  Elec       q    Type
REMARK                         _______ _______ _______ _____ _____    ______ ____
ROOT
ATOM      1  N   UNL     1       7.818  -2.693  24.185  0.00  0.00    +0.000 NA
ATOM      2  C   UNL     1       6.868  -1.969  23.412  0.00  0.00    +0.000 C 
ATOM      3  C   UNL     1       7.611  -1.071  22.419  0.00  0.00    +0.000 C 
ATOM      4  N   UNL     1       8.794  -0.510  23.090  0.00  0.00    +0.000 N 
ATOM      5  C   UNL     1       9.290   0.653  22.558  0.00  0.00    +0.000 C 
ATOM      6  O   UNL     1       9.937   0.560  21.517  0.00  0.00    +0.000 OA
ATOM      7  C   UNL     1       9.820  -1.477  23.509  0.00  0.00    +0.000 C 
ATOM      8  C   UNL     1       9.190  -2.827  23.777  0.00  0.00    +0.000 C 
ENDROOT
BRANCH   1  12
ATOM      9  C   UNL     1       6.112  -5.578  23.353  0.00  0.00    +0.000 A 
ATOM     10  N   UNL     1       7.097  -4.799  23.985  0.00  0.00    +0.000 NA
ATOM     11  C   UNL     1       6.857  -4.404  25.201  0.00  0.00    +0.000 A 
ATOM     12  N   UNL     1       7.498  -3.229  25.302  0.00  0.00    +0.000 N 
ATOM     13  C   UNL     1       8.369  -2.947  26.406  0.00  0.00    +0.000 C 
ATOM     14  C   UNL     1       5.749  -4.717  26.173  0.00  0.00    +0.000 A 
ATOM     15  C   UNL     1       6.058  -5.693  27.309  0.00  0.00    +0.000 C 
ATOM     16  N   UNL     1       5.392  -6.878  26.915  0.00  0.00    +0.000 NA
ATOM     17  N   UNL     1       4.404  -6.664  25.964  0.00  0.00    +0.000 N 
ATOM     18  C   UNL     1       3.132  -6.784  26.707  0.00  0.00    +0.000 C 
ATOM     19  C   UNL     1       4.666  -5.506  25.313  0.00  0.00    +0.000 A 
ATOM     20  N   UNL     1       5.064  -5.606  24.068  0.00  0.00    +0.000 NA
ENDBRANCH   1  12
BRANCH   5  21
ATOM     21  C   UNL     1       8.741   1.943  23.051  0.00  0.00    +0.000 C 
BRANCH  21  22
ATOM     22  C   UNL     1       9.573   2.487  24.206  0.00  0.00    +0.000 C 
ATOM     23  C   UNL     1      10.774   3.234  23.474  0.00  0.00    +0.000 C 
ATOM     24  N   UNL     1      10.395   4.587  23.258  0.00  0.00    +0.000 N 
ATOM     25  H   UNL     1      11.186   5.102  23.451  0.00  0.00    +0.000 HD
ATOM     26  C   UNL     1       9.435   5.015  24.169  0.00  0.00    +0.000 A 
ATOM     27  N   UNL     1       8.520   5.759  23.250  0.00  0.00    +0.000 NA
ATOM     28  C   UNL     1       7.411   5.156  23.134  0.00  0.00    +0.000 A 
ATOM     29  C   UNL     1       6.720   4.394  24.122  0.00  0.00    +0.000 A 
ATOM     30  C   UNL     1       7.363   3.463  25.038  0.00  0.00    +0.000 A 
ATOM     31  C   UNL     1       8.790   3.803  24.696  0.00  0.00    +0.000 A 
ENDBRANCH  21  22
ENDBRANCH   5  21
TORSDOF 3
ENDMDL
MODEL 3
REMARK VINA RESULT:      -8.0      2.706      8.194
REMARK  Name = 
REMARK  5 active torsions:
REMARK  status: ('A' for Active; 'I' for Inactive)
REMARK    1  A    between atoms: N_5  and  N_6
REMARK    2  A    between atoms: N_5  and  C_39
REMARK    3  A    between atoms: C_14  and  C_16
REMARK    4  A    between atoms: C_16  and  C_19
REMARK    5  A    between atoms: N_47  and  C_48
REMARK                            x       y       z     vdW  Elec       q    Type
REMARK                         _______ _______ _______ _____ _____    ______ ____
ROOT
ATOM      1  N   UNL     1       6.859  -3.834  24.745  0.00  0.00    +0.000 NA
ATOM      2  C   UNL     1       5.684  -3.129  24.365  0.00  0.00    +0.000 C 
ATOM      3  C   UNL     1       5.940  -2.407  23.040  0.00  0.00    +0.000 C 
ATOM      4  N   UNL     1       7.309  -1.869  23.056  0.00  0.00    +0.000 N 
ATOM      5  C   UNL     1       7.550  -0.815  22.212  0.00  0.00    +0.000 C 
ATOM      6  O   UNL     1       7.676  -1.073  21.018  0.00  0.00    +0.000 OA
ATOM      7  C   UNL     1       8.394  -2.861  23.119  0.00  0.00    +0.000 C 
ATOM      8  C   UNL     1       7.914  -4.119  23.811  0.00  0.00    +0.000 C 
ENDROOT
BRANCH   1  12
ATOM      9  C   UNL     1       4.735  -6.520  25.187  0.00  0.00    +0.000 A 
ATOM     10  N   UNL     1       5.959  -5.831  25.194  0.00  0.00    +0.000 NA
ATOM     11  C   UNL     1       6.338  -5.296  26.319  0.00  0.00    +0.000 A 
ATOM     12  N   UNL     1       7.047  -4.217  25.953  0.00  0.00    +0.000 N 
ATOM     13  C   UNL     1       8.347  -3.958  26.499  0.00  0.00    +0.000 C 
ATOM     14  C   UNL     1       5.778  -5.363  27.716  0.00  0.00    +0.000 A 
ATOM     15  C   UNL     1       6.495  -6.264  28.723  0.00  0.00    +0.000 C 
ATOM     16  N   UNL     1       5.629  -7.377  28.843  0.00  0.00    +0.000 NA
ATOM     17  N   UNL     1       4.335  -7.116  28.412  0.00  0.00    +0.000 N 
ATOM     18  C   UNL     1       3.541  -6.991  29.652  0.00  0.00    +0.000 C 
ATOM     19  C   UNL     1       4.362  -6.070  27.553  0.00  0.00    +0.000 A 
ATOM     20  N   UNL     1       4.133  -6.338  26.290  0.00  0.00    +0.000 NA
ENDBRANCH   1  12
BRANCH   5  21
ATOM     21  C   UNL     1       7.299   0.561  22.715  0.00  0.00    +0.000 C 
BRANCH  21  22
ATOM     22  C   UNL     1       7.374   1.580  21.585  0.00  0.00    +0.000 C 
ATOM     23  C   UNL     1       6.114   2.517  21.849  0.00  0.00    +0.000 C 
ATOM     24  N   UNL     1       6.519   3.588  22.690  0.00  0.00    +0.000 N 
ATOM     25  H   UNL     1       6.076   4.366  22.335  0.00  0.00    +0.000 HD
ATOM     26  C   UNL     1       7.881   3.849  22.588  0.00  0.00    +0.000 A 
ATOM     27  N   UNL     1       8.219   4.035  24.032  0.00  0.00    +0.000 NA
ATOM     28  C   UNL     1       8.948   3.086  24.450  0.00  0.00    +0.000 A 
ATOM     29  C   UNL     1       9.941   2.360  23.728  0.00  0.00    +0.000 A 
ATOM     30  C   UNL     1       9.790   1.910  22.352  0.00  0.00    +0.000 A 
ATOM     31  C   UNL     1       8.501   2.629  22.048  0.00  0.00    +0.000 A 
ENDBRANCH  21  22
ENDBRANCH   5  21
TORSDOF 3
ENDMDL
MODEL 4
REMARK VINA RESULT:      -7.9      1.732      2.913
REMARK  Name = 
REMARK  5 active torsions:
REMARK  status: ('A' for Active; 'I' for Inactive)
REMARK    1  A    between atoms: N_5  and  N_6
REMARK    2  A    between atoms: N_5  and  C_39
REMARK    3  A    between atoms: C_14  and  C_16
REMARK    4  A    between atoms: C_16  and  C_19
REMARK    5  A    between atoms: N_47  and  C_48
REMARK                            x       y       z     vdW  Elec       q    Type
REMARK                         _______ _______ _______ _____ _____    ______ ____
ROOT
ATOM      1  N   UNL     1       8.616  -0.127  23.594  0.00  0.00    +0.000 NA
ATOM      2  C   UNL     1       7.866  -0.618  24.698  0.00  0.00    +0.000 C 
ATOM      3  C   UNL     1       8.511  -1.910  25.207  0.00  0.00    +0.000 C 
ATOM      4  N   UNL     1       8.968  -2.693  24.048  0.00  0.00    +0.000 N 
ATOM      5  C   UNL     1       9.115  -4.041  24.255  0.00  0.00    +0.000 C 
ATOM      6  O   UNL     1      10.108  -4.405  24.880  0.00  0.00    +0.000 OA
ATOM      7  C   UNL     1      10.027  -2.082  23.230  0.00  0.00    +0.000 C 
ATOM      8  C   UNL     1       9.956  -0.573  23.323  0.00  0.00    +0.000 C 
ENDROOT
BRANCH   1  12
ATOM      9  C   UNL     1       8.471   2.863  25.316  0.00  0.00    +0.000 A 
ATOM     10  N   UNL     1       8.810   1.999  24.261  0.00  0.00    +0.000 NA
ATOM     11  C   UNL     1       8.013   1.968  23.232  0.00  0.00    +0.000 A 
ATOM     12  N   UNL     1       8.115   0.714  22.768  0.00  0.00    +0.000 N 
ATOM     13  C   UNL     1       8.355   0.449  21.380  0.00  0.00    +0.000 C 
ATOM     14  C   UNL     1       6.810   2.792  22.853  0.00  0.00    +0.000 A 
ATOM     15  C   UNL     1       6.997   3.867  21.781  0.00  0.00    +0.000 C 
ATOM     16  N   UNL     1       6.987   5.074  22.521  0.00  0.00    +0.000 NA
ATOM     17  N   UNL     1       6.414   4.943  23.779  0.00  0.00    +0.000 N 
ATOM     18  C   UNL     1       5.087   5.583  23.659  0.00  0.00    +0.000 C 
ATOM     19  C   UNL     1       6.475   3.645  24.155  0.00  0.00    +0.000 A 
ATOM     20  N   UNL     1       7.314   3.347  25.117  0.00  0.00    +0.000 NA
ENDBRANCH   1  12
BRANCH   5  21
ATOM     21  C   UNL     1       7.936  -4.920  24.036  0.00  0.00    +0.000 C 
BRANCH  21  22
ATOM     22  C   UNL     1       7.150  -4.484  22.805  0.00  0.00    +0.000 C 
ATOM     23  C   UNL     1       7.167  -5.780  21.880  0.00  0.00    +0.000 C 
ATOM     24  N   UNL     1       6.026  -6.568  22.191  0.00  0.00    +0.000 N 
ATOM     25  H   UNL     1       5.703  -6.887  21.341  0.00  0.00    +0.000 HD
ATOM     26  C   UNL     1       4.993  -5.807  22.726  0.00  0.00    +0.000 A 
ATOM     27  N   UNL     1       4.557  -6.707  23.838  0.00  0.00    +0.000 NA
ATOM     28  C   UNL     1       4.837  -6.197  24.965  0.00  0.00    +0.000 A 
ATOM     29  C   UNL     1       4.843  -4.818  25.326  0.00  0.00    +0.000 A 
ATOM     30  C   UNL     1       5.369  -3.752  24.485  0.00  0.00    +0.000 A 
ATOM     31  C   UNL     1       5.607  -4.576  23.246  0.00  0.00    +0.000 A 
ENDBRANCH  21  22
ENDBRANCH   5  21
TORSDOF 3
ENDMDL
MODEL 5
REMARK VINA RESULT:      -7.9      1.761      2.531
REMARK  Name = 
REMARK  5 active torsions:
REMARK  status: ('A' for Active; 'I' for Inactive)
REMARK    1  A    between atoms: N_5  and  N_6
REMARK    2  A    between atoms: N_5  and  C_39
REMARK    3  A    between atoms: C_14  and  C_16
REMARK    4  A    between atoms: C_16  and  C_19
REMARK    5  A    between atoms: N_47  and  C_48
REMARK                            x       y       z     vdW  Elec       q    Type
REMARK                         _______ _______ _______ _____ _____    ______ ____
ROOT
ATOM      1  N   UNL     1       9.158  -1.456  24.664  0.00  0.00    +0.000 NA
ATOM      2  C   UNL     1       8.538  -1.417  25.944  0.00  0.00    +0.000 C 
ATOM      3  C   UNL     1       8.380  -2.847  26.468  0.00  0.00    +0.000 C 
ATOM      4  N   UNL     1       8.000  -3.718  25.344  0.00  0.00    +0.000 N 
ATOM      5  C   UNL     1       7.356  -4.882  25.679  0.00  0.00    +0.000 C 
ATOM      6  O   UNL     1       8.046  -5.790  26.137  0.00  0.00    +0.000 OA
ATOM      7  C   UNL     1       8.994  -3.857  24.268  0.00  0.00    +0.000 C 
ATOM      8  C   UNL     1       9.861  -2.618  24.193  0.00  0.00    +0.000 C 
ENDROOT
BRANCH   1  12
ATOM      9  C   UNL     1       6.315  -2.019  22.786  0.00  0.00    +0.000 A 
ATOM     10  N   UNL     1       7.186  -1.300  23.623  0.00  0.00    +0.000 NA
ATOM     11  C   UNL     1       8.009  -0.467  23.056  0.00  0.00    +0.000 A 
ATOM     12  N   UNL     1       9.085  -0.465  23.858  0.00  0.00    +0.000 N 
ATOM     13  C   UNL     1       9.672   0.761  24.315  0.00  0.00    +0.000 C 
ATOM     14  C   UNL     1       8.156   0.009  21.634  0.00  0.00    +0.000 A 
ATOM     15  C   UNL     1       7.631   1.405  21.297  0.00  0.00    +0.000 C 
ATOM     16  N   UNL     1       6.441   1.143  20.575  0.00  0.00    +0.000 NA
ATOM     17  N   UNL     1       6.380  -0.147  20.065  0.00  0.00    +0.000 N 
ATOM     18  C   UNL     1       6.638   0.007  18.617  0.00  0.00    +0.000 C 
ATOM     19  C   UNL     1       7.202  -0.944  20.787  0.00  0.00    +0.000 A 
ATOM     20  N   UNL     1       6.631  -1.824  21.571  0.00  0.00    +0.000 NA
ENDBRANCH   1  12
BRANCH   5  21
ATOM     21  C   UNL     1       5.875  -4.858  25.800  0.00  0.00    +0.000 C 
BRANCH  21  22
ATOM     22  C   UNL     1       5.332  -6.235  26.158  0.00  0.00    +0.000 C 
ATOM     23  C   UNL     1       4.245  -5.923  27.279  0.00  0.00    +0.000 C 
ATOM     24  N   UNL     1       2.991  -5.717  26.643  0.00  0.00    +0.000 N 
ATOM     25  H   UNL     1       2.348  -6.159  27.209  0.00  0.00    +0.000 HD
ATOM     26  C   UNL     1       2.916  -6.360  25.412  0.00  0.00    +0.000 A 
ATOM     27  N   UNL     1       2.266  -5.286  24.599  0.00  0.00    +0.000 NA
ATOM     28  C   UNL     1       3.074  -4.823  23.737  0.00  0.00    +0.000 A 
ATOM     29  C   UNL     1       4.100  -5.521  23.034  0.00  0.00    +0.000 A 
ATOM     30  C   UNL     1       4.988  -6.502  23.640  0.00  0.00    +0.000 A 
ATOM     31  C   UNL     1       4.301  -6.594  24.977  0.00  0.00    +0.000 A 
ENDBRANCH  21  22
ENDBRANCH   5  21
TORSDOF 3
ENDMDL
MODEL 6
REMARK VINA RESULT:      -7.9      2.098      7.377
REMARK  Name = 
REMARK  5 active torsions:
REMARK  status: ('A' for Active; 'I' for Inactive)
REMARK    1  A    between atoms: N_5  and  N_6
REMARK    2  A    between atoms: N_5  and  C_39
REMARK    3  A    between atoms: C_14  and  C_16
REMARK    4  A    between atoms: C_16  and  C_19
REMARK    5  A    between atoms: N_47  and  C_48
REMARK                            x       y       z     vdW  Elec       q    Type
REMARK                         _______ _______ _______ _____ _____    ______ ____
ROOT
ATOM      1  N   UNL     1       7.637  -3.354  23.851  0.00  0.00    +0.000 NA
ATOM      2  C   UNL     1       7.030  -2.590  22.816  0.00  0.00    +0.000 C 
ATOM      3  C   UNL     1       8.043  -1.572  22.285  0.00  0.00    +0.000 C 
ATOM      4  N   UNL     1       8.812  -1.041  23.422  0.00  0.00    +0.000 N 
ATOM      5  C   UNL     1       9.396   0.186  23.230  0.00  0.00    +0.000 C 
ATOM      6  O   UNL     1      10.412   0.219  22.540  0.00  0.00    +0.000 OA
ATOM      7  C   UNL     1       9.649  -2.009  24.147  0.00  0.00    +0.000 C 
ATOM      8  C   UNL     1       9.063  -3.400  24.029  0.00  0.00    +0.000 C 
ENDROOT
BRANCH   1  12
ATOM      9  C   UNL     1       6.002  -5.764  21.995  0.00  0.00    +0.000 A 
ATOM     10  N   UNL     1       6.811  -5.262  23.028  0.00  0.00    +0.000 NA
ATOM     11  C   UNL     1       6.244  -5.038  24.178  0.00  0.00    +0.000 A 
ATOM     12  N   UNL     1       6.934  -4.010  24.696  0.00  0.00    +0.000 N 
ATOM     13  C   UNL     1       7.439  -4.052  26.037  0.00  0.00    +0.000 C 
ATOM     14  C   UNL     1       4.863  -5.331  24.704  0.00  0.00    +0.000 A 
ATOM     15  C   UNL     1       4.705  -6.516  25.659  0.00  0.00    +0.000 C 
ATOM     16  N   UNL     1       4.083  -7.502  24.857  0.00  0.00    +0.000 NA
ATOM     17  N   UNL     1       3.466  -6.984  23.726  0.00  0.00    +0.000 N 
ATOM     18  C   UNL     1       2.020  -7.026  24.030  0.00  0.00    +0.000 C 
ATOM     19  C   UNL     1       4.031  -5.791  23.427  0.00  0.00    +0.000 A 
ATOM     20  N   UNL     1       4.785  -5.746  22.356  0.00  0.00    +0.000 NA
ENDBRANCH   1  12
BRANCH   5  21
ATOM     21  C   UNL     1       8.603   1.401  23.554  0.00  0.00    +0.000 C 
BRANCH  21  22
ATOM     22  C   UNL     1       8.607   2.384  22.390  0.00  0.00    +0.000 C 
ATOM     23  C   UNL     1       7.199   2.133  21.692  0.00  0.00    +0.000 C 
ATOM     24  N   UNL     1       6.245   3.007  22.280  0.00  0.00    +0.000 N 
ATOM     25  H   UNL     1       5.706   3.320  21.545  0.00  0.00    +0.000 HD
ATOM     26  C   UNL     1       6.837   4.142  22.823  0.00  0.00    +0.000 A 
ATOM     27  N   UNL     1       6.089   4.232  24.115  0.00  0.00    +0.000 NA
ATOM     28  C   UNL     1       6.853   3.982  25.096  0.00  0.00    +0.000 A 
ATOM     29  C   UNL     1       8.241   4.285  25.225  0.00  0.00    +0.000 A 
ATOM     30  C   UNL     1       9.219   4.123  24.160  0.00  0.00    +0.000 A 
ATOM     31  C   UNL     1       8.252   3.807  23.049  0.00  0.00    +0.000 A 
ENDBRANCH  21  22
ENDBRANCH   5  21
TORSDOF 3
ENDMDL
MODEL 7
REMARK VINA RESULT:      -7.6      2.510      6.991
REMARK  Name = 
REMARK  5 active torsions:
REMARK  status: ('A' for Active; 'I' for Inactive)
REMARK    1  A    between atoms: N_5  and  N_6
REMARK    2  A    between atoms: N_5  and  C_39
REMARK    3  A    between atoms: C_14  and  C_16
REMARK    4  A    between atoms: C_16  and  C_19
REMARK    5  A    between atoms: N_47  and  C_48
REMARK                            x       y       z     vdW  Elec       q    Type
REMARK                         _______ _______ _______ _____ _____    ______ ____
ROOT
ATOM      1  N   UNL     1       6.324  -5.282  24.439  0.00  0.00    +0.000 NA
ATOM      2  C   UNL     1       6.484  -5.011  23.052  0.00  0.00    +0.000 C 
ATOM      3  C   UNL     1       7.882  -4.435  22.812  0.00  0.00    +0.000 C 
ATOM      4  N   UNL     1       8.209  -3.523  23.919  0.00  0.00    +0.000 N 
ATOM      5  C   UNL     1       9.159  -2.571  23.651  0.00  0.00    +0.000 C 
ATOM      6  O   UNL     1      10.330  -2.942  23.625  0.00  0.00    +0.000 OA
ATOM      7  C   UNL     1       8.316  -4.135  25.253  0.00  0.00    +0.000 C 
ATOM      8  C   UNL     1       7.446  -5.372  25.333  0.00  0.00    +0.000 C 
ENDROOT
BRANCH   1  12
ATOM      9  C   UNL     1       5.205  -2.073  25.049  0.00  0.00    +0.000 A 
ATOM     10  N   UNL     1       5.154  -3.379  24.534  0.00  0.00    +0.000 NA
ATOM     11  C   UNL     1       4.525  -4.276  25.237  0.00  0.00    +0.000 A 
ATOM     12  N   UNL     1       5.164  -5.423  24.961  0.00  0.00    +0.000 N 
ATOM     13  C   UNL     1       4.444  -6.605  24.583  0.00  0.00    +0.000 C 
ATOM     14  C   UNL     1       3.692  -4.185  26.489  0.00  0.00    +0.000 A 
ATOM     15  C   UNL     1       2.172  -4.268  26.335  0.00  0.00    +0.000 C 
ATOM     16  N   UNL     1       1.749  -2.933  26.537  0.00  0.00    +0.000 NA
ATOM     17  N   UNL     1       2.691  -2.149  27.191  0.00  0.00    +0.000 N 
ATOM     18  C   UNL     1       2.170  -2.000  28.566  0.00  0.00    +0.000 C 
ATOM     19  C   UNL     1       3.915  -2.701  27.019  0.00  0.00    +0.000 A 
ATOM     20  N   UNL     1       4.745  -2.061  26.232  0.00  0.00    +0.000 NA
ENDBRANCH   1  12
BRANCH   5  21
ATOM     21  C   UNL     1       8.714  -1.273  23.079  0.00  0.00    +0.000 C 
BRANCH  21  22
ATOM     22  C   UNL     1       9.712  -0.757  22.050  0.00  0.00    +0.000 C 
ATOM     23  C   UNL     1       8.790  -0.338  20.821  0.00  0.00    +0.000 C 
ATOM     24  N   UNL     1       8.422   1.025  20.981  0.00  0.00    +0.000 N 
ATOM     25  H   UNL     1       8.477   1.404  20.097  0.00  0.00    +0.000 HD
ATOM     26  C   UNL     1       9.339   1.729  21.753  0.00  0.00    +0.000 A 
ATOM     27  N   UNL     1       8.404   2.514  22.616  0.00  0.00    +0.000 NA
ATOM     28  C   UNL     1       8.463   2.117  23.819  0.00  0.00    +0.000 A 
ATOM     29  C   UNL     1       9.599   1.620  24.524  0.00  0.00    +0.000 A 
ATOM     30  C   UNL     1      10.578   0.703  23.960  0.00  0.00    +0.000 A 
ATOM     31  C   UNL     1      10.079   0.730  22.538  0.00  0.00    +0.000 A 
ENDBRANCH  21  22
ENDBRANCH   5  21
TORSDOF 3
ENDMDL
MODEL 8
REMARK VINA RESULT:      -7.5      2.320      3.803
REMARK  Name = 
REMARK  5 active torsions:
REMARK  status: ('A' for Active; 'I' for Inactive)
REMARK    1  A    between atoms: N_5  and  N_6
REMARK    2  A    between atoms: N_5  and  C_39
REMARK    3  A    between atoms: C_14  and  C_16
REMARK    4  A    between atoms: C_16  and  C_19
REMARK    5  A    between atoms: N_47  and  C_48
REMARK                            x       y       z     vdW  Elec       q    Type
REMARK                         _______ _______ _______ _____ _____    ______ ____
ROOT
ATOM      1  N   UNL     1       7.936  -0.869  23.517  0.00  0.00    +0.000 NA
ATOM      2  C   UNL     1       8.785  -1.654  24.345  0.00  0.00    +0.000 C 
ATOM      3  C   UNL     1       8.773  -3.101  23.846  0.00  0.00    +0.000 C 
ATOM      4  N   UNL     1       7.402  -3.443  23.434  0.00  0.00    +0.000 N 
ATOM      5  C   UNL     1       7.093  -4.779  23.427  0.00  0.00    +0.000 C 
ATOM      6  O   UNL     1       7.529  -5.448  22.494  0.00  0.00    +0.000 OA
ATOM      7  C   UNL     1       6.859  -2.684  22.296  0.00  0.00    +0.000 C 
ATOM      8  C   UNL     1       7.507  -1.318  22.221  0.00  0.00    +0.000 C 
ENDROOT
BRANCH   1  12
ATOM      9  C   UNL     1       9.942   1.486  21.982  0.00  0.00    +0.000 A 
ATOM     10  N   UNL     1       8.739   0.859  22.347  0.00  0.00    +0.000 NA
ATOM     11  C   UNL     1       8.107   1.331  23.382  0.00  0.00    +0.000 A 
ATOM     12  N   UNL     1       7.485   0.264  23.908  0.00  0.00    +0.000 N 
ATOM     13  C   UNL     1       6.092   0.304  24.243  0.00  0.00    +0.000 C 
ATOM     14  C   UNL     1       8.336   2.543  24.247  0.00  0.00    +0.000 A 
ATOM     15  C   UNL     1       7.422   3.750  24.031  0.00  0.00    +0.000 C 
ATOM     16  N   UNL     1       8.254   4.674  23.355  0.00  0.00    +0.000 NA
ATOM     17  N   UNL     1       9.608   4.403  23.497  0.00  0.00    +0.000 N 
ATOM     18  C   UNL     1      10.098   5.416  24.455  0.00  0.00    +0.000 C 
ATOM     19  C   UNL     1       9.763   3.094  23.805  0.00  0.00    +0.000 A 
ATOM     20  N   UNL     1      10.275   2.326  22.875  0.00  0.00    +0.000 NA
ENDBRANCH   1  12
BRANCH   5  21
ATOM     21  C   UNL     1       6.573  -5.388  24.680  0.00  0.00    +0.000 C 
BRANCH  21  22
ATOM     22  C   UNL     1       5.053  -5.304  24.740  0.00  0.00    +0.000 C 
ATOM     23  C   UNL     1       4.594  -6.821  24.587  0.00  0.00    +0.000 C 
ATOM     24  N   UNL     1       4.501  -7.394  25.884  0.00  0.00    +0.000 N 
ATOM     25  H   UNL     1       3.707  -7.939  25.860  0.00  0.00    +0.000 HD
ATOM     26  C   UNL     1       4.274  -6.437  26.866  0.00  0.00    +0.000 A 
ATOM     27  N   UNL     1       5.222  -6.915  27.919  0.00  0.00    +0.000 NA
ATOM     28  C   UNL     1       6.183  -6.100  28.062  0.00  0.00    +0.000 A 
ATOM     29  C   UNL     1       6.156  -4.681  27.930  0.00  0.00    +0.000 A 
ATOM     30  C   UNL     1       5.440  -3.967  26.883  0.00  0.00    +0.000 A 
ATOM     31  C   UNL     1       4.708  -5.149  26.303  0.00  0.00    +0.000 A 
ENDBRANCH  21  22
ENDBRANCH   5  21
TORSDOF 3
ENDMDL
MODEL 9
REMARK VINA RESULT:      -7.4      2.591      7.585
REMARK  Name = 
REMARK  5 active torsions:
REMARK  status: ('A' for Active; 'I' for Inactive)
REMARK    1  A    between atoms: N_5  and  N_6
REMARK    2  A    between atoms: N_5  and  C_39
REMARK    3  A    between atoms: C_14  and  C_16
REMARK    4  A    between atoms: C_16  and  C_19
REMARK    5  A    between atoms: N_47  and  C_48
REMARK                            x       y       z     vdW  Elec       q    Type
REMARK                         _______ _______ _______ _____ _____    ______ ____
ROOT
ATOM      1  N   UNL     1       6.294  -4.447  23.529  0.00  0.00    +0.000 NA
ATOM      2  C   UNL     1       6.126  -3.215  22.838  0.00  0.00    +0.000 C 
ATOM      3  C   UNL     1       7.500  -2.684  22.422  0.00  0.00    +0.000 C 
ATOM      4  N   UNL     1       8.455  -2.948  23.510  0.00  0.00    +0.000 N 
ATOM      5  C   UNL     1       9.567  -2.146  23.541  0.00  0.00    +0.000 C 
ATOM      6  O   UNL     1      10.451  -2.385  22.722  0.00  0.00    +0.000 OA
ATOM      7  C   UNL     1       8.714  -4.364  23.815  0.00  0.00    +0.000 C 
ATOM      8  C   UNL     1       7.511  -5.207  23.449  0.00  0.00    +0.000 C 
ENDROOT
BRANCH   1  12
ATOM      9  C   UNL     1       7.041  -3.291  26.696  0.00  0.00    +0.000 A 
ATOM     10  N   UNL     1       6.246  -3.511  25.559  0.00  0.00    +0.000 NA
ATOM     11  C   UNL     1       5.455  -4.544  25.571  0.00  0.00    +0.000 A 
ATOM     12  N   UNL     1       5.374  -4.918  24.285  0.00  0.00    +0.000 N 
ATOM     13  C   UNL     1       4.108  -5.162  23.657  0.00  0.00    +0.000 C 
ATOM     14  C   UNL     1       5.098  -5.539  26.646  0.00  0.00    +0.000 A 
ATOM     15  C   UNL     1       3.741  -5.383  27.333  0.00  0.00    +0.000 C 
ATOM     16  N   UNL     1       4.075  -4.859  28.605  0.00  0.00    +0.000 NA
ATOM     17  N   UNL     1       5.403  -5.064  28.953  0.00  0.00    +0.000 N 
ATOM     18  C   UNL     1       5.369  -6.148  29.956  0.00  0.00    +0.000 C 
ATOM     19  C   UNL     1       6.128  -5.249  27.825  0.00  0.00    +0.000 A 
ATOM     20  N   UNL     1       6.946  -4.283  27.483  0.00  0.00    +0.000 NA
ENDBRANCH   1  12
BRANCH   5  21
ATOM     21  C   UNL     1       9.490  -0.865  24.290  0.00  0.00    +0.000 C 
BRANCH  21  22
ATOM     22  C   UNL     1       8.094  -0.262  24.204  0.00  0.00    +0.000 C 
ATOM     23  C   UNL     1       7.897   0.416  25.631  0.00  0.00    +0.000 C 
ATOM     24  N   UNL     1       8.358   1.759  25.557  0.00  0.00    +0.000 N 
ATOM     25  H   UNL     1       7.717   2.271  26.062  0.00  0.00    +0.000 HD
ATOM     26  C   UNL     1       8.307   2.260  24.262  0.00  0.00    +0.000 A 
ATOM     27  N   UNL     1       9.628   2.959  24.202  0.00  0.00    +0.000 NA
ATOM     28  C   UNL     1      10.414   2.369  23.401  0.00  0.00    +0.000 A 
ATOM     29  C   UNL     1      10.084   1.684  22.195  0.00  0.00    +0.000 A 
ATOM     30  C   UNL     1       8.936   0.803  22.039  0.00  0.00    +0.000 A 
ATOM     31  C   UNL     1       8.280   1.096  23.363  0.00  0.00    +0.000 A 
ENDBRANCH  21  22
ENDBRANCH   5  21
TORSDOF 3
ENDMDL
