MODEL 1
REMARK VINA RESULT:      -8.7      0.000      0.000
REMARK  Name = 
REMARK  5 active torsions:
REMARK  status: ('A' for Active; 'I' for Inactive)
REMARK    1  A    between atoms: C_5  and  C_6
REMARK    2  A    between atoms: C_16  and  C_18
REMARK    3  A    between atoms: C_18  and  C_21
REMARK    4  A    between atoms: C_26  and  C_27
REMARK    5  A    between atoms: C_37  and  C_39
REMARK                            x       y       z     vdW  Elec       q    Type
REMARK                         _______ _______ _______ _____ _____    ______ ____
ROOT
ATOM      1  C   UNL     1       8.913  -2.345  24.866  0.00  0.00    +0.000 C 
ENDROOT
BRANCH   1   7
ATOM      2  C   UNL     1       7.749   1.184  22.001  0.00  0.00    +0.000 C 
ATOM      3  O   UNL     1       9.108   1.702  21.830  0.00  0.00    +0.000 OA
ATOM      4  C   UNL     1      10.065   0.773  22.190  0.00  0.00    +0.000 C 
ATOM      5  C   UNL     1       9.990   0.801  23.715  0.00  0.00    +0.000 C 
ATOM      6  N   UNL     1       8.809  -0.040  23.957  0.00  0.00    +0.000 N 
ATOM      7  C   UNL     1       8.782  -0.820  25.007  0.00  0.00    +0.000 C 
ATOM      8  O   UNL     1       8.980  -0.288  26.124  0.00  0.00    +0.000 OA
ATOM      9  C   UNL     1       7.597   0.400  23.224  0.00  0.00    +0.000 C 
BRANCH   2  12
ATOM     10  C   UNL     1       6.823  -0.245  18.610  0.00  0.00    +0.000 A 
ATOM     11  C   UNL     1       7.732   0.218  19.731  0.00  0.00    +0.000 A 
ATOM     12  C   UNL     1       7.321   1.125  20.772  0.00  0.00    +0.000 A 
ATOM     13  C   UNL     1       6.020   1.739  20.437  0.00  0.00    +0.000 A 
ATOM     14  C   UNL     1       5.142   1.654  19.357  0.00  0.00    +0.000 A 
ATOM     15  C   UNL     1       5.684   0.631  18.361  0.00  0.00    +0.000 A 
ATOM     16  F   UNL     1       5.817   1.252  17.159  0.00  0.00    +0.000 F 
ENDBRANCH   2  12
ENDBRANCH   1   7
BRANCH   1  17
ATOM     17  C   UNL     1       8.511  -2.936  26.163  0.00  0.00    +0.000 A 
ATOM     18  C   UNL     1       7.051  -2.585  26.383  0.00  0.00    +0.000 A 
ATOM     19  C   UNL     1       6.037  -3.495  26.875  0.00  0.00    +0.000 A 
ATOM     20  C   UNL     1       6.453  -5.019  26.595  0.00  0.00    +0.000 A 
ATOM     21  C   UNL     1       7.844  -5.432  26.684  0.00  0.00    +0.000 A 
ATOM     22  C   UNL     1       8.909  -4.258  26.639  0.00  0.00    +0.000 A 
BRANCH  20  23
ATOM     23  C   UNL     1       5.560  -5.293  25.330  0.00  0.00    +0.000 C 
ATOM     24  O   UNL     1       6.478  -5.558  24.311  0.00  0.00    +0.000 OA
ATOM     25  C   UNL     1       5.877  -5.428  23.092  0.00  0.00    +0.000 C 
ATOM     26  C   UNL     1       4.456  -5.856  23.053  0.00  0.00    +0.000 C 
ATOM     27  N   UNL     1       4.002  -6.611  24.193  0.00  0.00    +0.000 N 
ATOM     28  C   UNL     1       2.748  -7.126  24.160  0.00  0.00    +0.000 C 
ATOM     29  O   UNL     1       2.631  -8.338  23.950  0.00  0.00    +0.000 OA
ATOM     30  C   UNL     1       4.690  -6.511  25.483  0.00  0.00    +0.000 C 
BRANCH  28  31
ATOM     31  C   UNL     1       1.642  -6.196  23.736  0.00  0.00    +0.000 C 
ATOM     32 CL   UNL     1       1.594  -4.754  24.766  0.00  0.00    +0.000 Cl
ENDBRANCH  28  31
ENDBRANCH  20  23
ENDBRANCH   1  17
TORSDOF 5
ENDMDL
MODEL 2
REMARK VINA RESULT:      -8.4      2.874      7.830
REMARK  Name = 
REMARK  5 active torsions:
REMARK  status: ('A' for Active; 'I' for Inactive)
REMARK    1  A    between atoms: C_5  and  C_6
REMARK    2  A    between atoms: C_16  and  C_18
REMARK    3  A    between atoms: C_18  and  C_21
REMARK    4  A    between atoms: C_26  and  C_27
REMARK    5  A    between atoms: C_37  and  C_39
REMARK                            x       y       z     vdW  Elec       q    Type
REMARK                         _______ _______ _______ _____ _____    ______ ____
ROOT
ATOM      1  C   UNL     1       7.856  -2.173  25.736  0.00  0.00    +0.000 C 
ENDROOT
BRANCH   1   7
ATOM      2  C   UNL     1       5.608  -6.266  25.273  0.00  0.00    +0.000 C 
ATOM      3  O   UNL     1       5.086  -6.314  26.640  0.00  0.00    +0.000 OA
ATOM      4  C   UNL     1       5.117  -5.074  27.250  0.00  0.00    +0.000 C 
ATOM      5  C   UNL     1       6.601  -4.903  27.568  0.00  0.00    +0.000 C 
ATOM      6  N   UNL     1       7.125  -4.484  26.259  0.00  0.00    +0.000 N 
ATOM      7  C   UNL     1       8.101  -3.615  26.209  0.00  0.00    +0.000 C 
ATOM      8  O   UNL     1       9.142  -3.880  26.855  0.00  0.00    +0.000 OA
ATOM      9  C   UNL     1       6.785  -5.409  25.151  0.00  0.00    +0.000 C 
BRANCH   2  12
ATOM     10  C   UNL     1       2.159  -7.558  24.362  0.00  0.00    +0.000 A 
ATOM     11  C   UNL     1       3.629  -7.632  24.723  0.00  0.00    +0.000 A 
ATOM     12  C   UNL     1       4.549  -6.535  24.565  0.00  0.00    +0.000 A 
ATOM     13  C   UNL     1       3.934  -5.459  23.760  0.00  0.00    +0.000 A 
ATOM     14  C   UNL     1       2.707  -5.289  23.120  0.00  0.00    +0.000 A 
ATOM     15  C   UNL     1       1.828  -6.503  23.410  0.00  0.00    +0.000 A 
ATOM     16  F   UNL     1       1.455  -7.040  22.218  0.00  0.00    +0.000 F 
ENDBRANCH   2  12
ENDBRANCH   1   7
BRANCH   1  17
ATOM     17  C   UNL     1       9.177  -1.597  25.399  0.00  0.00    +0.000 A 
ATOM     18  C   UNL     1       9.464  -1.946  23.951  0.00  0.00    +0.000 A 
ATOM     19  C   UNL     1      10.016  -1.038  22.965  0.00  0.00    +0.000 A 
ATOM     20  C   UNL     1       9.734   0.487  23.374  0.00  0.00    +0.000 A 
ATOM     21  C   UNL     1       9.762   0.895  24.769  0.00  0.00    +0.000 A 
ATOM     22  C   UNL     1       9.651  -0.282  25.826  0.00  0.00    +0.000 A 
BRANCH  20  23
ATOM     23  C   UNL     1       8.518   0.780  22.422  0.00  0.00    +0.000 C 
ATOM     24  O   UNL     1       8.435   2.174  22.387  0.00  0.00    +0.000 OA
ATOM     25  C   UNL     1       7.209   2.561  21.927  0.00  0.00    +0.000 C 
ATOM     26  C   UNL     1       6.630   1.675  20.885  0.00  0.00    +0.000 C 
ATOM     27  N   UNL     1       7.542   0.726  20.299  0.00  0.00    +0.000 N 
ATOM     28  C   UNL     1       7.100  -0.030  19.263  0.00  0.00    +0.000 C 
ATOM     29  O   UNL     1       7.484   0.273  18.128  0.00  0.00    +0.000 OA
ATOM     30  C   UNL     1       8.752   0.307  21.013  0.00  0.00    +0.000 C 
BRANCH  28  31
ATOM     31  C   UNL     1       5.762  -0.700  19.434  0.00  0.00    +0.000 C 
ATOM     32 CL   UNL     1       5.881  -2.084  20.535  0.00  0.00    +0.000 Cl
ENDBRANCH  28  31
ENDBRANCH  20  23
ENDBRANCH   1  17
TORSDOF 5
ENDMDL
MODEL 3
REMARK VINA RESULT:      -8.3      1.954      2.901
REMARK  Name = 
REMARK  5 active torsions:
REMARK  status: ('A' for Active; 'I' for Inactive)
REMARK    1  A    between atoms: C_5  and  C_6
REMARK    2  A    between atoms: C_16  and  C_18
REMARK    3  A    between atoms: C_18  and  C_21
REMARK    4  A    between atoms: C_26  and  C_27
REMARK    5  A    between atoms: C_37  and  C_39
REMARK                            x       y       z     vdW  Elec       q    Type
REMARK                         _______ _______ _______ _____ _____    ______ ____
ROOT
ATOM      1  C   UNL     1       7.328  -2.164  25.420  0.00  0.00    +0.000 C 
ENDROOT
BRANCH   1   7
ATOM      2  C   UNL     1       8.350   0.708  21.851  0.00  0.00    +0.000 C 
ATOM      3  O   UNL     1       9.588   0.033  21.457  0.00  0.00    +0.000 OA
ATOM      4  C   UNL     1       9.666  -1.248  21.969  0.00  0.00    +0.000 C 
ATOM      5  C   UNL     1       9.991  -0.993  23.439  0.00  0.00    +0.000 C 
ATOM      6  N   UNL     1       8.662  -0.656  23.970  0.00  0.00    +0.000 N 
ATOM      7  C   UNL     1       8.342  -1.033  25.181  0.00  0.00    +0.000 C 
ATOM      8  O   UNL     1       9.109  -0.690  26.112  0.00  0.00    +0.000 OA
ATOM      9  C   UNL     1       7.983   0.441  23.239  0.00  0.00    +0.000 C 
BRANCH   2  12
ATOM     10  C   UNL     1       6.764  -0.209  18.528  0.00  0.00    +0.000 A 
ATOM     11  C   UNL     1       7.879   0.032  19.526  0.00  0.00    +0.000 A 
ATOM     12  C   UNL     1       7.733   0.837  20.711  0.00  0.00    +0.000 A 
ATOM     13  C   UNL     1       6.468   1.599  20.664  0.00  0.00    +0.000 A 
ATOM     14  C   UNL     1       5.430   1.724  19.741  0.00  0.00    +0.000 A 
ATOM     15  C   UNL     1       5.699   0.788  18.566  0.00  0.00    +0.000 A 
ATOM     16  F   UNL     1       5.710   1.537  17.432  0.00  0.00    +0.000 F 
ENDBRANCH   2  12
ENDBRANCH   1   7
BRANCH   1  17
ATOM     17  C   UNL     1       7.137  -2.853  24.124  0.00  0.00    +0.000 A 
ATOM     18  C   UNL     1       7.497  -4.312  24.332  0.00  0.00    +0.000 A 
ATOM     19  C   UNL     1       6.745  -5.441  23.822  0.00  0.00    +0.000 A 
ATOM     20  C   UNL     1       5.219  -5.032  23.545  0.00  0.00    +0.000 A 
ATOM     21  C   UNL     1       4.889  -3.708  23.044  0.00  0.00    +0.000 A 
ATOM     22  C   UNL     1       6.026  -2.614  23.205  0.00  0.00    +0.000 A 
BRANCH  20  23
ATOM     23  C   UNL     1       4.559  -5.647  24.833  0.00  0.00    +0.000 C 
ATOM     24  O   UNL     1       3.882  -6.776  24.368  0.00  0.00    +0.000 OA
ATOM     25  C   UNL     1       2.956  -7.181  25.286  0.00  0.00    +0.000 C 
ATOM     26  C   UNL     1       3.362  -6.988  26.701  0.00  0.00    +0.000 C 
ATOM     27  N   UNL     1       4.756  -6.692  26.914  0.00  0.00    +0.000 N 
ATOM     28  C   UNL     1       5.207  -6.619  28.191  0.00  0.00    +0.000 C 
ATOM     29  O   UNL     1       5.867  -7.572  28.620  0.00  0.00    +0.000 OA
ATOM     30  C   UNL     1       5.572  -6.112  25.844  0.00  0.00    +0.000 C 
BRANCH  28  31
ATOM     31  C   UNL     1       4.393  -5.794  29.153  0.00  0.00    +0.000 C 
ATOM     32 CL   UNL     1       4.429  -4.079  28.707  0.00  0.00    +0.000 Cl
ENDBRANCH  28  31
ENDBRANCH  20  23
ENDBRANCH   1  17
TORSDOF 5
ENDMDL
MODEL 4
REMARK VINA RESULT:      -8.2      2.428      3.371
REMARK  Name = 
REMARK  5 active torsions:
REMARK  status: ('A' for Active; 'I' for Inactive)
REMARK    1  A    between atoms: C_5  and  C_6
REMARK    2  A    between atoms: C_16  and  C_18
REMARK    3  A    between atoms: C_18  and  C_21
REMARK    4  A    between atoms: C_26  and  C_27
REMARK    5  A    between atoms: C_37  and  C_39
REMARK                            x       y       z     vdW  Elec       q    Type
REMARK                         _______ _______ _______ _____ _____    ______ ____
ROOT
ATOM      1  C   UNL     1       7.343  -1.747  25.748  0.00  0.00    +0.000 C 
ENDROOT
BRANCH   1   7
ATOM      2  C   UNL     1       8.505   0.706  21.920  0.00  0.00    +0.000 C 
ATOM      3  O   UNL     1       9.614  -0.159  21.511  0.00  0.00    +0.000 OA
ATOM      4  C   UNL     1       9.553  -1.400  22.114  0.00  0.00    +0.000 C 
ATOM      5  C   UNL     1      10.005  -1.093  23.540  0.00  0.00    +0.000 C 
ATOM      6  N   UNL     1       8.770  -0.541  24.116  0.00  0.00    +0.000 N 
ATOM      7  C   UNL     1       8.481  -0.786  25.369  0.00  0.00    +0.000 C 
ATOM      8  O   UNL     1       9.346  -0.490  26.226  0.00  0.00    +0.000 OA
ATOM      9  C   UNL     1       8.197   0.588  23.342  0.00  0.00    +0.000 C 
BRANCH   2  12
ATOM     10  C   UNL     1       6.779  -0.193  18.662  0.00  0.00    +0.000 A 
ATOM     11  C   UNL     1       7.937   0.046  19.612  0.00  0.00    +0.000 A 
ATOM     12  C   UNL     1       7.838   0.841  20.809  0.00  0.00    +0.000 A 
ATOM     13  C   UNL     1       6.569   1.597  20.824  0.00  0.00    +0.000 A 
ATOM     14  C   UNL     1       5.491   1.725  19.949  0.00  0.00    +0.000 A 
ATOM     15  C   UNL     1       5.713   0.799  18.755  0.00  0.00    +0.000 A 
ATOM     16  F   UNL     1       5.671   1.557  17.628  0.00  0.00    +0.000 F 
ENDBRANCH   2  12
ENDBRANCH   1   7
BRANCH   1  17
ATOM     17  C   UNL     1       7.678  -3.066  25.165  0.00  0.00    +0.000 A 
ATOM     18  C   UNL     1       8.364  -3.876  26.249  0.00  0.00    +0.000 A 
ATOM     19  C   UNL     1       8.105  -5.272  26.540  0.00  0.00    +0.000 A 
ATOM     20  C   UNL     1       6.643  -5.699  26.034  0.00  0.00    +0.000 A 
ATOM     21  C   UNL     1       6.096  -5.143  24.807  0.00  0.00    +0.000 A 
ATOM     22  C   UNL     1       6.810  -3.831  24.274  0.00  0.00    +0.000 A 
BRANCH  20  23
ATOM     23  C   UNL     1       5.880  -5.652  27.408  0.00  0.00    +0.000 C 
ATOM     24  O   UNL     1       6.838  -6.036  28.348  0.00  0.00    +0.000 OA
ATOM     25  C   UNL     1       6.231  -6.417  29.510  0.00  0.00    +0.000 C 
ATOM     26  C   UNL     1       5.006  -5.648  29.849  0.00  0.00    +0.000 C 
ATOM     27  N   UNL     1       4.799  -4.442  29.089  0.00  0.00    +0.000 N 
ATOM     28  C   UNL     1       3.760  -3.641  29.432  0.00  0.00    +0.000 C 
ATOM     29  O   UNL     1       4.017  -2.603  30.051  0.00  0.00    +0.000 OA
ATOM     30  C   UNL     1       5.420  -4.267  27.773  0.00  0.00    +0.000 C 
BRANCH  28  31
ATOM     31  C   UNL     1       2.425  -4.309  29.637  0.00  0.00    +0.000 C 
ATOM     32 CL   UNL     1       1.826  -5.009  28.123  0.00  0.00    +0.000 Cl
ENDBRANCH  28  31
ENDBRANCH  20  23
ENDBRANCH   1  17
TORSDOF 5
ENDMDL
MODEL 5
REMARK VINA RESULT:      -8.2      3.237      4.786
REMARK  Name = 
REMARK  5 active torsions:
REMARK  status: ('A' for Active; 'I' for Inactive)
REMARK    1  A    between atoms: C_5  and  C_6
REMARK    2  A    between atoms: C_16  and  C_18
REMARK    3  A    between atoms: C_18  and  C_21
REMARK    4  A    between atoms: C_26  and  C_27
REMARK    5  A    between atoms: C_37  and  C_39
REMARK                            x       y       z     vdW  Elec       q    Type
REMARK                         _______ _______ _______ _____ _____    ______ ____
ROOT
ATOM      1  C   UNL     1       8.535  -2.680  24.110  0.00  0.00    +0.000 C 
ENDROOT
BRANCH   1   7
ATOM      2  C   UNL     1      10.077   1.740  23.778  0.00  0.00    +0.000 C 
ATOM      3  O   UNL     1       9.816   1.890  22.345  0.00  0.00    +0.000 OA
ATOM      4  C   UNL     1       8.935   0.934  21.877  0.00  0.00    +0.000 C 
ATOM      5  C   UNL     1       9.805  -0.319  21.830  0.00  0.00    +0.000 C 
ATOM      6  N   UNL     1       9.793  -0.727  23.243  0.00  0.00    +0.000 N 
ATOM      7  C   UNL     1       9.791  -2.000  23.543  0.00  0.00    +0.000 C 
ATOM      8  O   UNL     1      10.705  -2.707  23.056  0.00  0.00    +0.000 OA
ATOM      9  C   UNL     1      10.216   0.342  24.181  0.00  0.00    +0.000 C 
BRANCH   2  12
ATOM     10  C   UNL     1       8.671   5.260  23.955  0.00  0.00    +0.000 A 
ATOM     11  C   UNL     1       9.729   4.181  23.824  0.00  0.00    +0.000 A 
ATOM     12  C   UNL     1       9.547   2.823  24.269  0.00  0.00    +0.000 A 
ATOM     13  C   UNL     1       8.331   2.711  25.102  0.00  0.00    +0.000 A 
ATOM     14  C   UNL     1       7.366   3.609  25.557  0.00  0.00    +0.000 A 
ATOM     15  C   UNL     1       7.663   4.989  24.974  0.00  0.00    +0.000 A 
ATOM     16  F   UNL     1       7.791   5.859  26.011  0.00  0.00    +0.000 F 
ENDBRANCH   2  12
ENDBRANCH   1   7
BRANCH   1  17
ATOM     17  C   UNL     1       7.771  -3.207  22.956  0.00  0.00    +0.000 A 
ATOM     18  C   UNL     1       7.837  -4.721  23.026  0.00  0.00    +0.000 A 
ATOM     19  C   UNL     1       6.722  -5.619  22.802  0.00  0.00    +0.000 A 
ATOM     20  C   UNL     1       5.327  -4.872  23.066  0.00  0.00    +0.000 A 
ATOM     21  C   UNL     1       5.160  -3.473  22.710  0.00  0.00    +0.000 A 
ATOM     22  C   UNL     1       6.503  -2.663  22.474  0.00  0.00    +0.000 A 
BRANCH  20  23
ATOM     23  C   UNL     1       5.011  -5.433  24.501  0.00  0.00    +0.000 C 
ATOM     24  O   UNL     1       4.695  -6.775  24.285  0.00  0.00    +0.000 OA
ATOM     25  C   UNL     1       4.029  -7.281  25.364  0.00  0.00    +0.000 C 
ATOM     26  C   UNL     1       4.473  -6.740  26.674  0.00  0.00    +0.000 C 
ATOM     27  N   UNL     1       5.711  -6.003  26.656  0.00  0.00    +0.000 N 
ATOM     28  C   UNL     1       6.223  -5.584  27.840  0.00  0.00    +0.000 C 
ATOM     29  O   UNL     1       7.188  -6.205  28.299  0.00  0.00    +0.000 OA
ATOM     30  C   UNL     1       6.203  -5.392  25.418  0.00  0.00    +0.000 C 
BRANCH  28  31
ATOM     31  C   UNL     1       5.274  -4.895  28.785  0.00  0.00    +0.000 C 
ATOM     32 CL   UNL     1       5.421  -5.552  30.424  0.00  0.00    +0.000 Cl
ENDBRANCH  28  31
ENDBRANCH  20  23
ENDBRANCH   1  17
TORSDOF 5
ENDMDL
MODEL 6
REMARK VINA RESULT:      -8.0      3.723      8.122
REMARK  Name = 
REMARK  5 active torsions:
REMARK  status: ('A' for Active; 'I' for Inactive)
REMARK    1  A    between atoms: C_5  and  C_6
REMARK    2  A    between atoms: C_16  and  C_18
REMARK    3  A    between atoms: C_18  and  C_21
REMARK    4  A    between atoms: C_26  and  C_27
REMARK    5  A    between atoms: C_37  and  C_39
REMARK                            x       y       z     vdW  Elec       q    Type
REMARK                         _______ _______ _______ _____ _____    ______ ____
ROOT
ATOM      1  C   UNL     1       9.181  -1.367  24.755  0.00  0.00    +0.000 C 
ENDROOT
BRANCH   1   7
ATOM      2  C   UNL     1       6.526  -5.235  24.879  0.00  0.00    +0.000 C 
ATOM      3  O   UNL     1       7.156  -5.819  26.065  0.00  0.00    +0.000 OA
ATOM      4  C   UNL     1       7.869  -4.882  26.788  0.00  0.00    +0.000 C 
ATOM      5  C   UNL     1       9.115  -4.684  25.929  0.00  0.00    +0.000 C 
ATOM      6  N   UNL     1       8.605  -3.775  24.892  0.00  0.00    +0.000 N 
ATOM      7  C   UNL     1       9.391  -2.849  24.407  0.00  0.00    +0.000 C 
ATOM      8  O   UNL     1      10.493  -3.219  23.937  0.00  0.00    +0.000 OA
ATOM      9  C   UNL     1       7.392  -4.275  24.199  0.00  0.00    +0.000 C 
BRANCH   2  12
ATOM     10  C   UNL     1       2.758  -4.938  24.542  0.00  0.00    +0.000 A 
ATOM     11  C   UNL     1       4.184  -4.470  24.760  0.00  0.00    +0.000 A 
ATOM     12  C   UNL     1       5.259  -5.341  25.161  0.00  0.00    +0.000 A 
ATOM     13  C   UNL     1       4.730  -6.651  25.592  0.00  0.00    +0.000 A 
ATOM     14  C   UNL     1       3.455  -7.204  25.714  0.00  0.00    +0.000 A 
ATOM     15  C   UNL     1       2.428  -6.189  25.216  0.00  0.00    +0.000 A 
ATOM     16  F   UNL     1       1.542  -5.966  26.222  0.00  0.00    +0.000 F 
ENDBRANCH   2  12
ENDBRANCH   1   7
BRANCH   1  17
ATOM     17  C   UNL     1      10.139  -0.590  23.936  0.00  0.00    +0.000 A 
ATOM     18  C   UNL     1       9.582  -0.533  22.526  0.00  0.00    +0.000 A 
ATOM     19  C   UNL     1       9.559   0.645  21.682  0.00  0.00    +0.000 A 
ATOM     20  C   UNL     1       9.616   1.981  22.567  0.00  0.00    +0.000 A 
ATOM     21  C   UNL     1      10.411   2.028  23.783  0.00  0.00    +0.000 A 
ATOM     22  C   UNL     1      10.830   0.619  24.379  0.00  0.00    +0.000 A 
BRANCH  20  23
ATOM     23  C   UNL     1       8.094   2.374  22.526  0.00  0.00    +0.000 C 
ATOM     24  O   UNL     1       7.593   1.694  21.414  0.00  0.00    +0.000 OA
ATOM     25  C   UNL     1       6.402   2.239  21.027  0.00  0.00    +0.000 C 
ATOM     26  C   UNL     1       5.555   2.730  22.143  0.00  0.00    +0.000 C 
ATOM     27  N   UNL     1       5.954   2.305  23.461  0.00  0.00    +0.000 N 
ATOM     28  C   UNL     1       5.153   2.628  24.507  0.00  0.00    +0.000 C 
ATOM     29  O   UNL     1       4.448   1.733  24.986  0.00  0.00    +0.000 OA
ATOM     30  C   UNL     1       7.334   1.891  23.731  0.00  0.00    +0.000 C 
BRANCH  28  31
ATOM     31  C   UNL     1       4.686   4.058  24.589  0.00  0.00    +0.000 C 
ATOM     32 CL   UNL     1       6.055   5.162  24.807  0.00  0.00    +0.000 Cl
ENDBRANCH  28  31
ENDBRANCH  20  23
ENDBRANCH   1  17
TORSDOF 5
ENDMDL
MODEL 7
REMARK VINA RESULT:      -7.9      4.305      9.378
REMARK  Name = 
REMARK  5 active torsions:
REMARK  status: ('A' for Active; 'I' for Inactive)
REMARK    1  A    between atoms: C_5  and  C_6
REMARK    2  A    between atoms: C_16  and  C_18
REMARK    3  A    between atoms: C_18  and  C_21
REMARK    4  A    between atoms: C_26  and  C_27
REMARK    5  A    between atoms: C_37  and  C_39
REMARK                            x       y       z     vdW  Elec       q    Type
REMARK                         _______ _______ _______ _____ _____    ______ ____
ROOT
ATOM      1  C   UNL     1       7.224  -2.392  22.973  0.00  0.00    +0.000 C 
ENDROOT
BRANCH   1   7
ATOM      2  C   UNL     1       6.052  -5.643  26.149  0.00  0.00    +0.000 C 
ATOM      3  O   UNL     1       7.422  -5.964  26.556  0.00  0.00    +0.000 OA
ATOM      4  C   UNL     1       8.317  -4.979  26.186  0.00  0.00    +0.000 C 
ATOM      5  C   UNL     1       8.456  -5.210  24.684  0.00  0.00    +0.000 C 
ATOM      6  N   UNL     1       7.237  -4.558  24.182  0.00  0.00    +0.000 N 
ATOM      7  C   UNL     1       7.273  -3.927  23.036  0.00  0.00    +0.000 C 
ATOM      8  O   UNL     1       7.677  -4.569  22.039  0.00  0.00    +0.000 OA
ATOM      9  C   UNL     1       5.989  -5.045  24.817  0.00  0.00    +0.000 C 
BRANCH   2  12
ATOM     10  C   UNL     1       5.454  -5.674  29.896  0.00  0.00    +0.000 A 
ATOM     11  C   UNL     1       5.628  -6.246  28.503  0.00  0.00    +0.000 A 
ATOM     12  C   UNL     1       5.456  -5.480  27.295  0.00  0.00    +0.000 A 
ATOM     13  C   UNL     1       4.826  -4.178  27.595  0.00  0.00    +0.000 A 
ATOM     14  C   UNL     1       4.355  -3.558  28.752  0.00  0.00    +0.000 A 
ATOM     15  C   UNL     1       4.642  -4.463  29.949  0.00  0.00    +0.000 A 
ATOM     16  F   UNL     1       3.462  -4.709  30.575  0.00  0.00    +0.000 F 
ENDBRANCH   2  12
ENDBRANCH   1   7
BRANCH   1  17
ATOM     17  C   UNL     1       8.456  -1.947  22.284  0.00  0.00    +0.000 A 
ATOM     18  C   UNL     1       8.095  -0.726  21.460  0.00  0.00    +0.000 A 
ATOM     19  C   UNL     1       8.890   0.482  21.361  0.00  0.00    +0.000 A 
ATOM     20  C   UNL     1       9.846   0.641  22.639  0.00  0.00    +0.000 A 
ATOM     21  C   UNL     1      10.452  -0.527  23.258  0.00  0.00    +0.000 A 
ATOM     22  C   UNL     1       9.787  -1.918  22.886  0.00  0.00    +0.000 A 
BRANCH  20  23
ATOM     23  C   UNL     1       9.009   1.698  23.448  0.00  0.00    +0.000 C 
ATOM     24  O   UNL     1       8.809   1.100  24.693  0.00  0.00    +0.000 OA
ATOM     25  C   UNL     1       7.784   1.718  25.352  0.00  0.00    +0.000 C 
ATOM     26  C   UNL     1       7.689   3.181  25.115  0.00  0.00    +0.000 C 
ATOM     27  N   UNL     1       8.835   3.785  24.485  0.00  0.00    +0.000 N 
ATOM     28  C   UNL     1       8.852   5.134  24.348  0.00  0.00    +0.000 C 
ATOM     29  O   UNL     1       9.572   5.779  25.118  0.00  0.00    +0.000 OA
ATOM     30  C   UNL     1       9.759   2.983  23.679  0.00  0.00    +0.000 C 
BRANCH  28  31
ATOM     31  C   UNL     1       7.608   5.777  23.790  0.00  0.00    +0.000 C 
ATOM     32 CL   UNL     1       7.318   5.256  22.121  0.00  0.00    +0.000 Cl
ENDBRANCH  28  31
ENDBRANCH  20  23
ENDBRANCH   1  17
TORSDOF 5
ENDMDL
MODEL 8
REMARK VINA RESULT:      -7.8      2.877      3.861
REMARK  Name = 
REMARK  5 active torsions:
REMARK  status: ('A' for Active; 'I' for Inactive)
REMARK    1  A    between atoms: C_5  and  C_6
REMARK    2  A    between atoms: C_16  and  C_18
REMARK    3  A    between atoms: C_18  and  C_21
REMARK    4  A    between atoms: C_26  and  C_27
REMARK    5  A    between atoms: C_37  and  C_39
REMARK                            x       y       z     vdW  Elec       q    Type
REMARK                         _______ _______ _______ _____ _____    ______ ____
ROOT
ATOM      1  C   UNL     1       8.537  -2.337  23.234  0.00  0.00    +0.000 C 
ENDROOT
BRANCH   1   7
ATOM      2  C   UNL     1       9.563   2.153  24.134  0.00  0.00    +0.000 C 
ATOM      3  O   UNL     1       9.410   2.628  22.758  0.00  0.00    +0.000 OA
ATOM      4  C   UNL     1       8.693   1.739  21.980  0.00  0.00    +0.000 C 
ATOM      5  C   UNL     1       9.708   0.625  21.736  0.00  0.00    +0.000 C 
ATOM      6  N   UNL     1       9.623  -0.119  23.002  0.00  0.00    +0.000 N 
ATOM      7  C   UNL     1       9.748  -1.421  22.989  0.00  0.00    +0.000 C 
ATOM      8  O   UNL     1      10.778  -1.895  22.455  0.00  0.00    +0.000 OA
ATOM      9  C   UNL     1       9.833   0.719  24.207  0.00  0.00    +0.000 C 
BRANCH   2  12
ATOM     10  C   UNL     1       7.568   5.285  24.916  0.00  0.00    +0.000 A 
ATOM     11  C   UNL     1       8.794   4.450  24.599  0.00  0.00    +0.000 A 
ATOM     12  C   UNL     1       8.867   3.026  24.804  0.00  0.00    +0.000 A 
ATOM     13  C   UNL     1       7.716   2.561  25.606  0.00  0.00    +0.000 A 
ATOM     14  C   UNL     1       6.624   3.182  26.210  0.00  0.00    +0.000 A 
ATOM     15  C   UNL     1       6.655   4.671  25.874  0.00  0.00    +0.000 A 
ATOM     16  F   UNL     1       6.662   5.361  27.044  0.00  0.00    +0.000 F 
ENDBRANCH   2  12
ENDBRANCH   1   7
BRANCH   1  17
ATOM     17  C   UNL     1       8.657  -2.853  24.616  0.00  0.00    +0.000 A 
ATOM     18  C   UNL     1       7.365  -2.517  25.336  0.00  0.00    +0.000 A 
ATOM     19  C   UNL     1       6.636  -3.414  26.210  0.00  0.00    +0.000 A 
ATOM     20  C   UNL     1       6.984  -4.944  25.875  0.00  0.00    +0.000 A 
ATOM     21  C   UNL     1       8.328  -5.324  25.472  0.00  0.00    +0.000 A 
ATOM     22  C   UNL     1       9.255  -4.135  24.981  0.00  0.00    +0.000 A 
BRANCH  20  23
ATOM     23  C   UNL     1       5.704  -5.314  25.039  0.00  0.00    +0.000 C 
ATOM     24  O   UNL     1       6.180  -5.485  23.737  0.00  0.00    +0.000 OA
ATOM     25  C   UNL     1       5.147  -5.421  22.847  0.00  0.00    +0.000 C 
ATOM     26  C   UNL     1       3.869  -5.995  23.339  0.00  0.00    +0.000 C 
ATOM     27  N   UNL     1       3.965  -6.790  24.536  0.00  0.00    +0.000 N 
ATOM     28  C   UNL     1       2.851  -7.433  24.967  0.00  0.00    +0.000 C 
ATOM     29  O   UNL     1       2.781  -8.652  24.772  0.00  0.00    +0.000 OA
ATOM     30  C   UNL     1       5.083  -6.615  25.467  0.00  0.00    +0.000 C 
BRANCH  28  31
ATOM     31  C   UNL     1       1.582  -6.624  25.033  0.00  0.00    +0.000 C 
ATOM     32 CL   UNL     1       1.689  -5.378  26.288  0.00  0.00    +0.000 Cl
ENDBRANCH  28  31
ENDBRANCH  20  23
ENDBRANCH   1  17
TORSDOF 5
ENDMDL
MODEL 9
REMARK VINA RESULT:      -7.8      4.310      9.171
REMARK  Name = 
REMARK  5 active torsions:
REMARK  status: ('A' for Active; 'I' for Inactive)
REMARK    1  A    between atoms: C_5  and  C_6
REMARK    2  A    between atoms: C_16  and  C_18
REMARK    3  A    between atoms: C_18  and  C_21
REMARK    4  A    between atoms: C_26  and  C_27
REMARK    5  A    between atoms: C_37  and  C_39
REMARK                            x       y       z     vdW  Elec       q    Type
REMARK                         _______ _______ _______ _____ _____    ______ ____
ROOT
ATOM      1  C   UNL     1       6.599  -1.413  21.348  0.00  0.00    +0.000 C 
ENDROOT
BRANCH   1   7
ATOM      2  C   UNL     1       5.047  -4.983  23.970  0.00  0.00    +0.000 C 
ATOM      3  O   UNL     1       6.112  -5.919  23.605  0.00  0.00    +0.000 OA
ATOM      4  C   UNL     1       7.206  -5.274  23.061  0.00  0.00    +0.000 C 
ATOM      5  C   UNL     1       6.713  -4.916  21.661  0.00  0.00    +0.000 C 
ATOM      6  N   UNL     1       5.906  -3.719  21.940  0.00  0.00    +0.000 N 
ATOM      7  C   UNL     1       5.882  -2.744  21.069  0.00  0.00    +0.000 C 
ATOM      8  O   UNL     1       5.558  -3.032  19.893  0.00  0.00    +0.000 OA
ATOM      9  C   UNL     1       4.867  -3.924  22.979  0.00  0.00    +0.000 C 
BRANCH   2  12
ATOM     10  C   UNL     1       5.378  -6.492  27.435  0.00  0.00    +0.000 A 
ATOM     11  C   UNL     1       4.781  -6.264  26.060  0.00  0.00    +0.000 A 
ATOM     12  C   UNL     1       5.023  -5.086  25.268  0.00  0.00    +0.000 A 
ATOM     13  C   UNL     1       5.683  -4.044  26.081  0.00  0.00    +0.000 A 
ATOM     14  C   UNL     1       6.088  -3.945  27.412  0.00  0.00    +0.000 A 
ATOM     15  C   UNL     1       5.808  -5.273  28.112  0.00  0.00    +0.000 A 
ATOM     16  F   UNL     1       5.011  -5.018  29.183  0.00  0.00    +0.000 F 
ENDBRANCH   2  12
ENDBRANCH   1   7
BRANCH   1  17
ATOM     17  C   UNL     1       7.771  -1.722  22.197  0.00  0.00    +0.000 A 
ATOM     18  C   UNL     1       8.964  -1.000  21.598  0.00  0.00    +0.000 A 
ATOM     19  C   UNL     1       9.963  -0.268  22.350  0.00  0.00    +0.000 A 
ATOM     20  C   UNL     1       9.377   0.206  23.766  0.00  0.00    +0.000 A 
ATOM     21  C   UNL     1       8.451  -0.639  24.502  0.00  0.00    +0.000 A 
ATOM     22  C   UNL     1       7.754  -1.785  23.656  0.00  0.00    +0.000 A 
BRANCH  20  23
ATOM     23  C   UNL     1       9.071   1.709  23.419  0.00  0.00    +0.000 C 
ATOM     24  O   UNL     1       7.736   1.703  23.008  0.00  0.00    +0.000 OA
ATOM     25  C   UNL     1       7.452   2.844  22.314  0.00  0.00    +0.000 C 
ATOM     26  C   UNL     1       8.159   4.056  22.800  0.00  0.00    +0.000 C 
ATOM     27  N   UNL     1       8.796   3.931  24.086  0.00  0.00    +0.000 N 
ATOM     28  C   UNL     1       9.358   5.039  24.632  0.00  0.00    +0.000 C 
ATOM     29  O   UNL     1       8.751   5.595  25.553  0.00  0.00    +0.000 OA
ATOM     30  C   UNL     1       9.171   2.617  24.614  0.00  0.00    +0.000 C 
BRANCH  28  31
ATOM     31  C   UNL     1      10.251   5.858  23.737  0.00  0.00    +0.000 C 
ATOM     32 CL   UNL     1      11.791   5.031  23.446  0.00  0.00    +0.000 Cl
ENDBRANCH  28  31
ENDBRANCH  20  23
ENDBRANCH   1  17
TORSDOF 5
ENDMDL
