MODEL 1
REMARK VINA RESULT:      -8.6      0.000      0.000
REMARK  Name = 
REMARK  6 active torsions:
REMARK  status: ('A' for Active; 'I' for Inactive)
REMARK    1  A    between atoms: C_5  and  C_6
REMARK    2  A    between atoms: C_12  and  C_13
REMARK    3  A    between atoms: C_13  and  C_16
REMARK    4  A    between atoms: C_21  and  S_22
REMARK    5  A    between atoms: S_22  and  N_25
REMARK    6  A    between atoms: C_33  and  C_35
REMARK                            x       y       z     vdW  Elec       q    Type
REMARK                         _______ _______ _______ _____ _____    ______ ____
ROOT
ATOM      1  C   UNL     1      10.043   0.293  22.361  0.00  0.00    +0.000 A 
ATOM      2  C   UNL     1      10.097  -1.265  22.394  0.00  0.00    +0.000 A 
ATOM      3  C   UNL     1       9.928  -2.082  23.596  0.00  0.00    +0.000 A 
ATOM      4  C   UNL     1       9.856  -1.236  24.853  0.00  0.00    +0.000 A 
ATOM      5  C   UNL     1      10.178   0.207  24.978  0.00  0.00    +0.000 A 
ATOM      6  C   UNL     1      10.440   0.870  23.642  0.00  0.00    +0.000 A 
ENDROOT
BRANCH   4   7
ATOM      7  S   UNL     1       8.440  -1.733  25.781  0.00  0.00    +0.000 S 
ATOM      8  O   UNL     1       8.283  -0.618  26.780  0.00  0.00    +0.000 OA
ATOM      9  O   UNL     1       7.357  -1.411  24.724  0.00  0.00    +0.000 OA
BRANCH   7  10
ATOM     10  N   UNL     1       8.079  -3.045  26.482  0.00  0.00    +0.000 NA
ATOM     11  C   UNL     1       6.732  -3.441  26.476  0.00  0.00    +0.000 C 
ATOM     12  C   UNL     1       6.347  -3.891  25.073  0.00  0.00    +0.000 C 
ATOM     13  N   UNL     1       7.372  -4.783  24.521  0.00  0.00    +0.000 N 
ATOM     14  C   UNL     1       7.136  -5.129  23.203  0.00  0.00    +0.000 C 
ATOM     15  O   UNL     1       7.759  -4.459  22.355  0.00  0.00    +0.000 OA
ATOM     16  C   UNL     1       8.745  -4.657  24.898  0.00  0.00    +0.000 C 
ATOM     17  C   UNL     1       8.915  -4.122  26.355  0.00  0.00    +0.000 C 
BRANCH  14  18
ATOM     18  C   UNL     1       5.997  -5.934  22.723  0.00  0.00    +0.000 C 
ATOM     19 CL   UNL     1       5.929  -5.993  20.926  0.00  0.00    +0.000 Cl
ENDBRANCH  14  18
ENDBRANCH   7  10
ENDBRANCH   4   7
BRANCH   1  20
ATOM     20  C   UNL     1       9.065   0.649  21.417  0.00  0.00    +0.000 C 
BRANCH  20  26
ATOM     21  C   UNL     1       6.076  -1.669  20.708  0.00  0.00    +0.000 A 
ATOM     22  C   UNL     1       5.804  -1.253  19.271  0.00  0.00    +0.000 A 
ATOM     23  C   UNL     1       6.511  -0.124  18.584  0.00  0.00    +0.000 A 
ATOM     24  C   UNL     1       5.529   0.909  18.304  0.00  0.00    +0.000 C 
ATOM     25  C   UNL     1       7.696   0.198  19.370  0.00  0.00    +0.000 A 
ATOM     26  C   UNL     1       8.066   0.140  20.624  0.00  0.00    +0.000 A 
ATOM     27  C   UNL     1       7.041  -0.798  21.383  0.00  0.00    +0.000 A 
ENDBRANCH  20  26
ENDBRANCH   1  20
TORSDOF 5
ENDMDL
MODEL 2
REMARK VINA RESULT:      -7.9      2.205      3.362
REMARK  Name = 
REMARK  6 active torsions:
REMARK  status: ('A' for Active; 'I' for Inactive)
REMARK    1  A    between atoms: C_5  and  C_6
REMARK    2  A    between atoms: C_12  and  C_13
REMARK    3  A    between atoms: C_13  and  C_16
REMARK    4  A    between atoms: C_21  and  S_22
REMARK    5  A    between atoms: S_22  and  N_25
REMARK    6  A    between atoms: C_33  and  C_35
REMARK                            x       y       z     vdW  Elec       q    Type
REMARK                         _______ _______ _______ _____ _____    ______ ____
ROOT
ATOM      1  C   UNL     1       8.538  -0.194  21.188  0.00  0.00    +0.000 A 
ATOM      2  C   UNL     1       7.195  -0.899  21.553  0.00  0.00    +0.000 A 
ATOM      3  C   UNL     1       7.008  -1.804  22.686  0.00  0.00    +0.000 A 
ATOM      4  C   UNL     1       8.317  -2.120  23.384  0.00  0.00    +0.000 A 
ATOM      5  C   UNL     1       9.685  -1.820  22.895  0.00  0.00    +0.000 A 
ATOM      6  C   UNL     1       9.689  -0.967  21.645  0.00  0.00    +0.000 A 
ENDROOT
BRANCH   4   7
ATOM      7  S   UNL     1       8.106  -1.855  25.116  0.00  0.00    +0.000 S 
ATOM      8  O   UNL     1       9.343  -1.085  25.493  0.00  0.00    +0.000 OA
ATOM      9  O   UNL     1       7.018  -0.756  25.042  0.00  0.00    +0.000 OA
BRANCH   7  10
ATOM     10  N   UNL     1       7.775  -2.806  26.269  0.00  0.00    +0.000 NA
ATOM     11  C   UNL     1       6.424  -2.980  26.607  0.00  0.00    +0.000 C 
ATOM     12  C   UNL     1       5.735  -3.793  25.519  0.00  0.00    +0.000 C 
ATOM     13  N   UNL     1       6.552  -4.955  25.152  0.00  0.00    +0.000 N 
ATOM     14  C   UNL     1       6.034  -5.666  24.085  0.00  0.00    +0.000 C 
ATOM     15  O   UNL     1       6.536  -5.402  22.974  0.00  0.00    +0.000 OA
ATOM     16  C   UNL     1       7.977  -4.919  25.247  0.00  0.00    +0.000 C 
ATOM     17  C   UNL     1       8.474  -3.978  26.390  0.00  0.00    +0.000 C 
BRANCH  14  18
ATOM     18  C   UNL     1       4.758  -6.405  24.090  0.00  0.00    +0.000 C 
ATOM     19 CL   UNL     1       3.472  -5.528  23.189  0.00  0.00    +0.000 Cl
ENDBRANCH  14  18
ENDBRANCH   7  10
ENDBRANCH   4   7
BRANCH   1  20
ATOM     20  C   UNL     1       8.276   1.185  21.136  0.00  0.00    +0.000 C 
BRANCH  20  26
ATOM     21  C   UNL     1       9.339   3.542  23.987  0.00  0.00    +0.000 A 
ATOM     22  C   UNL     1       8.238   4.581  23.844  0.00  0.00    +0.000 A 
ATOM     23  C   UNL     1       7.231   4.577  22.733  0.00  0.00    +0.000 A 
ATOM     24  C   UNL     1       7.456   5.765  21.928  0.00  0.00    +0.000 C 
ATOM     25  C   UNL     1       7.267   3.261  22.108  0.00  0.00    +0.000 A 
ATOM     26  C   UNL     1       8.145   2.310  21.915  0.00  0.00    +0.000 A 
ATOM     27  C   UNL     1       9.370   2.584  22.880  0.00  0.00    +0.000 A 
ENDBRANCH  20  26
ENDBRANCH   1  20
TORSDOF 5
ENDMDL
MODEL 3
REMARK VINA RESULT:      -7.9      3.043      7.124
REMARK  Name = 
REMARK  6 active torsions:
REMARK  status: ('A' for Active; 'I' for Inactive)
REMARK    1  A    between atoms: C_5  and  C_6
REMARK    2  A    between atoms: C_12  and  C_13
REMARK    3  A    between atoms: C_13  and  C_16
REMARK    4  A    between atoms: C_21  and  S_22
REMARK    5  A    between atoms: S_22  and  N_25
REMARK    6  A    between atoms: C_33  and  C_35
REMARK                            x       y       z     vdW  Elec       q    Type
REMARK                         _______ _______ _______ _____ _____    ______ ____
ROOT
ATOM      1  C   UNL     1       5.062  -5.497  23.362  0.00  0.00    +0.000 A 
ATOM      2  C   UNL     1       6.488  -5.859  22.843  0.00  0.00    +0.000 A 
ATOM      3  C   UNL     1       7.551  -4.891  22.577  0.00  0.00    +0.000 A 
ATOM      4  C   UNL     1       7.062  -3.460  22.702  0.00  0.00    +0.000 A 
ATOM      5  C   UNL     1       5.655  -3.004  22.807  0.00  0.00    +0.000 A 
ATOM      6  C   UNL     1       4.674  -4.147  22.962  0.00  0.00    +0.000 A 
ENDROOT
BRANCH   4   7
ATOM      7  S   UNL     1       8.177  -2.577  23.747  0.00  0.00    +0.000 S 
ATOM      8  O   UNL     1       7.419  -2.480  25.044  0.00  0.00    +0.000 OA
ATOM      9  O   UNL     1       9.184  -3.722  24.014  0.00  0.00    +0.000 OA
BRANCH   7  10
ATOM     10  N   UNL     1       8.948  -1.269  23.555  0.00  0.00    +0.000 NA
ATOM     11  C   UNL     1       9.818  -1.178  22.457  0.00  0.00    +0.000 C 
ATOM     12  C   UNL     1       9.000  -1.078  21.176  0.00  0.00    +0.000 C 
ATOM     13  N   UNL     1       7.917  -0.100  21.333  0.00  0.00    +0.000 N 
ATOM     14  C   UNL     1       7.068  -0.053  20.243  0.00  0.00    +0.000 C 
ATOM     15  O   UNL     1       6.017  -0.715  20.356  0.00  0.00    +0.000 OA
ATOM     16  C   UNL     1       7.314   0.139  22.606  0.00  0.00    +0.000 C 
ATOM     17  C   UNL     1       8.312  -0.078  23.787  0.00  0.00    +0.000 C 
BRANCH  14  18
ATOM     18  C   UNL     1       7.443   0.391  18.887  0.00  0.00    +0.000 C 
ATOM     19 CL   UNL     1       5.999   0.690  17.857  0.00  0.00    +0.000 Cl
ENDBRANCH  14  18
ENDBRANCH   7  10
ENDBRANCH   4   7
BRANCH   1  20
ATOM     20  C   UNL     1       4.850  -6.241  24.534  0.00  0.00    +0.000 C 
BRANCH  20  26
ATOM     21  C   UNL     1       7.019  -5.415  27.604  0.00  0.00    +0.000 A 
ATOM     22  C   UNL     1       6.220  -6.170  28.655  0.00  0.00    +0.000 A 
ATOM     23  C   UNL     1       4.904  -6.834  28.380  0.00  0.00    +0.000 A 
ATOM     24  C   UNL     1       3.888  -6.141  29.153  0.00  0.00    +0.000 C 
ATOM     25  C   UNL     1       4.761  -6.950  26.934  0.00  0.00    +0.000 A 
ATOM     26  C   UNL     1       5.160  -6.299  25.871  0.00  0.00    +0.000 A 
ATOM     27  C   UNL     1       6.331  -5.329  26.314  0.00  0.00    +0.000 A 
ENDBRANCH  20  26
ENDBRANCH   1  20
TORSDOF 5
ENDMDL
MODEL 4
REMARK VINA RESULT:      -7.8      3.543      6.853
REMARK  Name = 
REMARK  6 active torsions:
REMARK  status: ('A' for Active; 'I' for Inactive)
REMARK    1  A    between atoms: C_5  and  C_6
REMARK    2  A    between atoms: C_12  and  C_13
REMARK    3  A    between atoms: C_13  and  C_16
REMARK    4  A    between atoms: C_21  and  S_22
REMARK    5  A    between atoms: S_22  and  N_25
REMARK    6  A    between atoms: C_33  and  C_35
REMARK                            x       y       z     vdW  Elec       q    Type
REMARK                         _______ _______ _______ _____ _____    ______ ____
ROOT
ATOM      1  C   UNL     1       8.645  -3.757  25.958  0.00  0.00    +0.000 A 
ATOM      2  C   UNL     1       8.025  -2.367  26.302  0.00  0.00    +0.000 A 
ATOM      3  C   UNL     1       7.904  -1.252  25.364  0.00  0.00    +0.000 A 
ATOM      4  C   UNL     1       8.605  -1.536  24.048  0.00  0.00    +0.000 A 
ATOM      5  C   UNL     1       9.542  -2.649  23.758  0.00  0.00    +0.000 A 
ATOM      6  C   UNL     1       9.632  -3.653  24.888  0.00  0.00    +0.000 A 
ENDROOT
BRANCH   4   7
ATOM      7  S   UNL     1       7.485  -1.186  22.731  0.00  0.00    +0.000 S 
ATOM      8  O   UNL     1       7.399  -2.501  22.003  0.00  0.00    +0.000 OA
ATOM      9  O   UNL     1       6.176  -1.155  23.555  0.00  0.00    +0.000 OA
BRANCH   7  10
ATOM     10  N   UNL     1       7.444  -0.068  21.686  0.00  0.00    +0.000 NA
ATOM     11  C   UNL     1       6.942   1.181  22.084  0.00  0.00    +0.000 C 
ATOM     12  C   UNL     1       7.948   1.854  23.009  0.00  0.00    +0.000 C 
ATOM     13  N   UNL     1       9.302   1.755  22.453  0.00  0.00    +0.000 N 
ATOM     14  C   UNL     1      10.275   2.244  23.305  0.00  0.00    +0.000 C 
ATOM     15  O   UNL     1      10.868   1.385  23.987  0.00  0.00    +0.000 OA
ATOM     16  C   UNL     1       9.687   0.649  21.633  0.00  0.00    +0.000 C 
ATOM     17  C   UNL     1       8.490   0.071  20.814  0.00  0.00    +0.000 C 
BRANCH  14  18
ATOM     18  C   UNL     1      10.414   3.651  23.724  0.00  0.00    +0.000 C 
ATOM     19 CL   UNL     1      12.024   4.325  23.289  0.00  0.00    +0.000 Cl
ENDBRANCH  14  18
ENDBRANCH   7  10
ENDBRANCH   4   7
BRANCH   1  20
ATOM     20  C   UNL     1       7.678  -4.726  26.272  0.00  0.00    +0.000 C 
BRANCH  20  26
ATOM     21  C   UNL     1       4.505  -6.874  26.639  0.00  0.00    +0.000 A 
ATOM     22  C   UNL     1       4.080  -6.900  25.179  0.00  0.00    +0.000 A 
ATOM     23  C   UNL     1       4.756  -6.106  24.102  0.00  0.00    +0.000 A 
ATOM     24  C   UNL     1       3.803  -5.128  23.609  0.00  0.00    +0.000 C 
ATOM     25  C   UNL     1       6.045  -5.664  24.622  0.00  0.00    +0.000 A 
ATOM     26  C   UNL     1       6.562  -5.364  25.786  0.00  0.00    +0.000 A 
ATOM     27  C   UNL     1       5.591  -5.928  26.903  0.00  0.00    +0.000 A 
ENDBRANCH  20  26
ENDBRANCH   1  20
TORSDOF 5
ENDMDL
MODEL 5
REMARK VINA RESULT:      -7.6      2.874      4.961
REMARK  Name = 
REMARK  6 active torsions:
REMARK  status: ('A' for Active; 'I' for Inactive)
REMARK    1  A    between atoms: C_5  and  C_6
REMARK    2  A    between atoms: C_12  and  C_13
REMARK    3  A    between atoms: C_13  and  C_16
REMARK    4  A    between atoms: C_21  and  S_22
REMARK    5  A    between atoms: S_22  and  N_25
REMARK    6  A    between atoms: C_33  and  C_35
REMARK                            x       y       z     vdW  Elec       q    Type
REMARK                         _______ _______ _______ _____ _____    ______ ____
ROOT
ATOM      1  C   UNL     1       9.305  -0.535  25.436  0.00  0.00    +0.000 A 
ATOM      2  C   UNL     1       9.909  -1.471  24.345  0.00  0.00    +0.000 A 
ATOM      3  C   UNL     1       9.530  -2.869  24.140  0.00  0.00    +0.000 A 
ATOM      4  C   UNL     1       8.592  -3.368  25.223  0.00  0.00    +0.000 A 
ATOM      5  C   UNL     1       8.265  -2.692  26.502  0.00  0.00    +0.000 A 
ATOM      6  C   UNL     1       8.836  -1.293  26.592  0.00  0.00    +0.000 A 
ENDROOT
BRANCH   4   7
ATOM      7  S   UNL     1       7.205  -4.139  24.450  0.00  0.00    +0.000 S 
ATOM      8  O   UNL     1       7.822  -4.828  23.262  0.00  0.00    +0.000 OA
ATOM      9  O   UNL     1       7.003  -5.294  25.459  0.00  0.00    +0.000 OA
BRANCH   7  10
ATOM     10  N   UNL     1       5.836  -3.603  24.023  0.00  0.00    +0.000 NA
ATOM     11  C   UNL     1       5.480  -2.312  24.443  0.00  0.00    +0.000 C 
ATOM     12  C   UNL     1       6.305  -1.289  23.675  0.00  0.00    +0.000 C 
ATOM     13  N   UNL     1       6.322  -1.613  22.244  0.00  0.00    +0.000 N 
ATOM     14  C   UNL     1       7.153  -0.787  21.511  0.00  0.00    +0.000 C 
ATOM     15  O   UNL     1       8.288  -1.247  21.272  0.00  0.00    +0.000 OA
ATOM     16  C   UNL     1       6.224  -2.964  21.789  0.00  0.00    +0.000 C 
ATOM     17  C   UNL     1       5.384  -3.858  22.756  0.00  0.00    +0.000 C 
BRANCH  14  18
ATOM     18  C   UNL     1       6.957   0.661  21.310  0.00  0.00    +0.000 C 
ATOM     19 CL   UNL     1       8.519   1.523  21.075  0.00  0.00    +0.000 Cl
ENDBRANCH  14  18
ENDBRANCH   7  10
ENDBRANCH   4   7
BRANCH   1  20
ATOM     20  C   UNL     1       8.806   0.599  24.773  0.00  0.00    +0.000 C 
BRANCH  20  26
ATOM     21  C   UNL     1      11.075   3.460  23.558  0.00  0.00    +0.000 A 
ATOM     22  C   UNL     1      10.107   4.615  23.757  0.00  0.00    +0.000 A 
ATOM     23  C   UNL     1       8.674   4.440  24.160  0.00  0.00    +0.000 A 
ATOM     24  C   UNL     1       7.845   4.887  23.055  0.00  0.00    +0.000 C 
ATOM     25  C   UNL     1       8.523   3.085  24.677  0.00  0.00    +0.000 A 
ATOM     26  C   UNL     1       9.078   1.915  24.488  0.00  0.00    +0.000 A 
ATOM     27  C   UNL     1      10.442   2.149  23.718  0.00  0.00    +0.000 A 
ENDBRANCH  20  26
ENDBRANCH   1  20
TORSDOF 5
ENDMDL
MODEL 6
REMARK VINA RESULT:      -7.4      3.316      5.354
REMARK  Name = 
REMARK  6 active torsions:
REMARK  status: ('A' for Active; 'I' for Inactive)
REMARK    1  A    between atoms: C_5  and  C_6
REMARK    2  A    between atoms: C_12  and  C_13
REMARK    3  A    between atoms: C_13  and  C_16
REMARK    4  A    between atoms: C_21  and  S_22
REMARK    5  A    between atoms: S_22  and  N_25
REMARK    6  A    between atoms: C_33  and  C_35
REMARK                            x       y       z     vdW  Elec       q    Type
REMARK                         _______ _______ _______ _____ _____    ______ ____
ROOT
ATOM      1  C   UNL     1       8.535  -0.855  21.254  0.00  0.00    +0.000 A 
ATOM      2  C   UNL     1       9.725   0.027  21.743  0.00  0.00    +0.000 A 
ATOM      3  C   UNL     1       9.651   1.466  21.993  0.00  0.00    +0.000 A 
ATOM      4  C   UNL     1       8.319   2.050  21.563  0.00  0.00    +0.000 A 
ATOM      5  C   UNL     1       7.277   1.387  20.741  0.00  0.00    +0.000 A 
ATOM      6  C   UNL     1       7.573  -0.074  20.481  0.00  0.00    +0.000 A 
ENDROOT
BRANCH   4   7
ATOM      7  S   UNL     1       7.672   3.010  22.895  0.00  0.00    +0.000 S 
ATOM      8  O   UNL     1       8.913   3.532  23.568  0.00  0.00    +0.000 OA
ATOM      9  O   UNL     1       7.180   4.226  22.074  0.00  0.00    +0.000 OA
BRANCH   7  10
ATOM     10  N   UNL     1       6.644   2.695  23.985  0.00  0.00    +0.000 NA
ATOM     11  C   UNL     1       5.932   1.489  23.883  0.00  0.00    +0.000 C 
ATOM     12  C   UNL     1       6.866   0.327  24.195  0.00  0.00    +0.000 C 
ATOM     13  N   UNL     1       7.653   0.611  25.400  0.00  0.00    +0.000 N 
ATOM     14  C   UNL     1       8.604  -0.357  25.666  0.00  0.00    +0.000 C 
ATOM     15  O   UNL     1       9.759  -0.093  25.273  0.00  0.00    +0.000 OA
ATOM     16  C   UNL     1       8.006   1.949  25.756  0.00  0.00    +0.000 C 
ATOM     17  C   UNL     1       6.940   2.990  25.288  0.00  0.00    +0.000 C 
BRANCH  14  18
ATOM     18  C   UNL     1       8.319  -1.757  26.029  0.00  0.00    +0.000 C 
ATOM     19 CL   UNL     1       6.675  -1.946  26.732  0.00  0.00    +0.000 Cl
ENDBRANCH  14  18
ENDBRANCH   7  10
ENDBRANCH   4   7
BRANCH   1  20
ATOM     20  C   UNL     1       8.389  -1.898  22.183  0.00  0.00    +0.000 C 
BRANCH  20  26
ATOM     21  C   UNL     1       5.008  -3.493  23.098  0.00  0.00    +0.000 A 
ATOM     22  C   UNL     1       5.483  -4.921  23.312  0.00  0.00    +0.000 A 
ATOM     23  C   UNL     1       6.879  -5.385  23.027  0.00  0.00    +0.000 A 
ATOM     24  C   UNL     1       6.815  -6.340  21.935  0.00  0.00    +0.000 C 
ATOM     25  C   UNL     1       7.722  -4.201  22.905  0.00  0.00    +0.000 A 
ATOM     26  C   UNL     1       7.583  -2.954  22.533  0.00  0.00    +0.000 A 
ATOM     27  C   UNL     1       6.032  -2.632  22.503  0.00  0.00    +0.000 A 
ENDBRANCH  20  26
ENDBRANCH   1  20
TORSDOF 5
ENDMDL
MODEL 7
REMARK VINA RESULT:      -7.2      2.414      3.692
REMARK  Name = 
REMARK  6 active torsions:
REMARK  status: ('A' for Active; 'I' for Inactive)
REMARK    1  A    between atoms: C_5  and  C_6
REMARK    2  A    between atoms: C_12  and  C_13
REMARK    3  A    between atoms: C_13  and  C_16
REMARK    4  A    between atoms: C_21  and  S_22
REMARK    5  A    between atoms: S_22  and  N_25
REMARK    6  A    between atoms: C_33  and  C_35
REMARK                            x       y       z     vdW  Elec       q    Type
REMARK                         _______ _______ _______ _____ _____    ______ ____
ROOT
ATOM      1  C   UNL     1       9.972   0.525  22.297  0.00  0.00    +0.000 A 
ATOM      2  C   UNL     1       8.558   0.134  21.768  0.00  0.00    +0.000 A 
ATOM      3  C   UNL     1       7.622  -0.751  22.460  0.00  0.00    +0.000 A 
ATOM      4  C   UNL     1       8.246  -1.391  23.686  0.00  0.00    +0.000 A 
ATOM      5  C   UNL     1       9.681  -1.395  24.059  0.00  0.00    +0.000 A 
ATOM      6  C   UNL     1      10.525  -0.513  23.163  0.00  0.00    +0.000 A 
ENDROOT
BRANCH   4   7
ATOM      7  S   UNL     1       7.155  -1.159  25.054  0.00  0.00    +0.000 S 
ATOM      8  O   UNL     1       8.072  -0.652  26.135  0.00  0.00    +0.000 OA
ATOM      9  O   UNL     1       6.451   0.127  24.560  0.00  0.00    +0.000 OA
BRANCH   7  10
ATOM     10  N   UNL     1       6.118  -2.075  25.709  0.00  0.00    +0.000 NA
ATOM     11  C   UNL     1       4.970  -2.397  24.969  0.00  0.00    +0.000 C 
ATOM     12  C   UNL     1       5.348  -3.352  23.845  0.00  0.00    +0.000 C 
ATOM     13  N   UNL     1       6.215  -4.423  24.351  0.00  0.00    +0.000 N 
ATOM     14  C   UNL     1       6.688  -5.254  23.353  0.00  0.00    +0.000 C 
ATOM     15  O   UNL     1       7.837  -4.994  22.942  0.00  0.00    +0.000 OA
ATOM     16  C   UNL     1       7.098  -4.202  25.453  0.00  0.00    +0.000 C 
ATOM     17  C   UNL     1       6.545  -3.141  26.456  0.00  0.00    +0.000 C 
BRANCH  14  18
ATOM     18  C   UNL     1       5.860  -6.146  22.520  0.00  0.00    +0.000 C 
ATOM     19 CL   UNL     1       6.124  -5.860  20.764  0.00  0.00    +0.000 Cl
ENDBRANCH  14  18
ENDBRANCH   7  10
ENDBRANCH   4   7
BRANCH   1  20
ATOM     20  C   UNL     1      10.021   1.928  22.339  0.00  0.00    +0.000 C 
BRANCH  20  26
ATOM     21  C   UNL     1       9.697   5.133  24.445  0.00  0.00    +0.000 A 
ATOM     22  C   UNL     1       8.282   5.522  24.047  0.00  0.00    +0.000 A 
ATOM     23  C   UNL     1       7.489   4.811  22.992  0.00  0.00    +0.000 A 
ATOM     24  C   UNL     1       7.276   5.740  21.897  0.00  0.00    +0.000 C 
ATOM     25  C   UNL     1       8.139   3.531  22.739  0.00  0.00    +0.000 A 
ATOM     26  C   UNL     1       9.350   3.038  22.793  0.00  0.00    +0.000 A 
ATOM     27  C   UNL     1      10.241   4.043  23.632  0.00  0.00    +0.000 A 
ENDBRANCH  20  26
ENDBRANCH   1  20
TORSDOF 5
ENDMDL
MODEL 8
REMARK VINA RESULT:      -7.2      2.952      5.803
REMARK  Name = 
REMARK  6 active torsions:
REMARK  status: ('A' for Active; 'I' for Inactive)
REMARK    1  A    between atoms: C_5  and  C_6
REMARK    2  A    between atoms: C_12  and  C_13
REMARK    3  A    between atoms: C_13  and  C_16
REMARK    4  A    between atoms: C_21  and  S_22
REMARK    5  A    between atoms: S_22  and  N_25
REMARK    6  A    between atoms: C_33  and  C_35
REMARK                            x       y       z     vdW  Elec       q    Type
REMARK                         _______ _______ _______ _____ _____    ______ ____
ROOT
ATOM      1  C   UNL     1       8.794  -3.064  25.181  0.00  0.00    +0.000 A 
ATOM      2  C   UNL     1       8.615  -2.103  26.396  0.00  0.00    +0.000 A 
ATOM      3  C   UNL     1       8.848  -0.659  26.361  0.00  0.00    +0.000 A 
ATOM      4  C   UNL     1       9.452  -0.213  25.042  0.00  0.00    +0.000 A 
ATOM      5  C   UNL     1      10.016  -1.079  23.980  0.00  0.00    +0.000 A 
ATOM      6  C   UNL     1       9.784  -2.553  24.236  0.00  0.00    +0.000 A 
ENDROOT
BRANCH   4   7
ATOM      7  S   UNL     1       8.508   1.146  24.427  0.00  0.00    +0.000 S 
ATOM      8  O   UNL     1       7.223   0.495  23.991  0.00  0.00    +0.000 OA
ATOM      9  O   UNL     1       8.133   1.788  25.784  0.00  0.00    +0.000 OA
BRANCH   7  10
ATOM     10  N   UNL     1       8.836   2.255  23.424  0.00  0.00    +0.000 NA
ATOM     11  C   UNL     1       9.747   1.960  22.398  0.00  0.00    +0.000 C 
ATOM     12  C   UNL     1       9.089   1.021  21.397  0.00  0.00    +0.000 C 
ATOM     13  N   UNL     1       7.739   1.491  21.063  0.00  0.00    +0.000 N 
ATOM     14  C   UNL     1       7.047   0.614  20.249  0.00  0.00    +0.000 C 
ATOM     15  O   UNL     1       6.256  -0.150  20.838  0.00  0.00    +0.000 OA
ATOM     16  C   UNL     1       6.954   2.221  22.008  0.00  0.00    +0.000 C 
ATOM     17  C   UNL     1       7.831   3.072  22.979  0.00  0.00    +0.000 C 
BRANCH  14  18
ATOM     18  C   UNL     1       7.408   0.271  18.861  0.00  0.00    +0.000 C 
ATOM     19 CL   UNL     1       6.188   0.871  17.682  0.00  0.00    +0.000 Cl
ENDBRANCH  14  18
ENDBRANCH   7  10
ENDBRANCH   4   7
BRANCH   1  20
ATOM     20  C   UNL     1       7.576  -3.743  25.012  0.00  0.00    +0.000 C 
BRANCH  20  26
ATOM     21  C   UNL     1       7.044  -5.981  21.926  0.00  0.00    +0.000 A 
ATOM     22  C   UNL     1       5.526  -5.934  21.872  0.00  0.00    +0.000 A 
ATOM     23  C   UNL     1       4.676  -5.281  22.921  0.00  0.00    +0.000 A 
ATOM     24  C   UNL     1       3.896  -6.320  23.568  0.00  0.00    +0.000 C 
ATOM     25  C   UNL     1       5.542  -4.421  23.718  0.00  0.00    +0.000 A 
ATOM     26  C   UNL     1       6.798  -4.391  24.083  0.00  0.00    +0.000 A 
ATOM     27  C   UNL     1       7.592  -5.398  23.153  0.00  0.00    +0.000 A 
ENDBRANCH  20  26
ENDBRANCH   1  20
TORSDOF 5
ENDMDL
MODEL 9
REMARK VINA RESULT:      -6.9      3.034      4.193
REMARK  Name = 
REMARK  6 active torsions:
REMARK  status: ('A' for Active; 'I' for Inactive)
REMARK    1  A    between atoms: C_5  and  C_6
REMARK    2  A    between atoms: C_12  and  C_13
REMARK    3  A    between atoms: C_13  and  C_16
REMARK    4  A    between atoms: C_21  and  S_22
REMARK    5  A    between atoms: S_22  and  N_25
REMARK    6  A    between atoms: C_33  and  C_35
REMARK                            x       y       z     vdW  Elec       q    Type
REMARK                         _______ _______ _______ _____ _____    ______ ____
ROOT
ATOM      1  C   UNL     1      10.152   0.959  23.546  0.00  0.00    +0.000 A 
ATOM      2  C   UNL     1      10.080   0.495  22.059  0.00  0.00    +0.000 A 
ATOM      3  C   UNL     1       9.427  -0.730  21.597  0.00  0.00    +0.000 A 
ATOM      4  C   UNL     1       8.964  -1.598  22.751  0.00  0.00    +0.000 A 
ATOM      5  C   UNL     1       9.319  -1.445  24.183  0.00  0.00    +0.000 A 
ATOM      6  C   UNL     1      10.095  -0.176  24.464  0.00  0.00    +0.000 A 
ENDROOT
BRANCH   4   7
ATOM      7  S   UNL     1       7.275  -2.035  22.480  0.00  0.00    +0.000 S 
ATOM      8  O   UNL     1       6.545  -1.217  23.510  0.00  0.00    +0.000 OA
ATOM      9  O   UNL     1       7.047  -1.238  21.173  0.00  0.00    +0.000 OA
BRANCH   7  10
ATOM     10  N   UNL     1       6.569  -3.389  22.368  0.00  0.00    +0.000 NA
ATOM     11  C   UNL     1       7.316  -4.542  22.654  0.00  0.00    +0.000 C 
ATOM     12  C   UNL     1       7.576  -4.613  24.153  0.00  0.00    +0.000 C 
ATOM     13  N   UNL     1       6.344  -4.338  24.901  0.00  0.00    +0.000 N 
ATOM     14  C   UNL     1       6.544  -4.271  26.267  0.00  0.00    +0.000 C 
ATOM     15  O   UNL     1       6.670  -3.121  26.733  0.00  0.00    +0.000 OA
ATOM     16  C   UNL     1       5.335  -3.475  24.373  0.00  0.00    +0.000 C 
ATOM     17  C   UNL     1       5.279  -3.508  22.813  0.00  0.00    +0.000 C 
BRANCH  14  18
ATOM     18  C   UNL     1       6.963  -5.396  27.125  0.00  0.00    +0.000 C 
ATOM     19 CL   UNL     1       5.589  -6.487  27.519  0.00  0.00    +0.000 Cl
ENDBRANCH  14  18
ENDBRANCH   7  10
ENDBRANCH   4   7
BRANCH   1  20
ATOM     20  C   UNL     1       9.612   2.255  23.598  0.00  0.00    +0.000 C 
BRANCH  20  26
ATOM     21  C   UNL     1       5.873   2.627  22.764  0.00  0.00    +0.000 A 
ATOM     22  C   UNL     1       5.805   4.145  22.705  0.00  0.00    +0.000 A 
ATOM     23  C   UNL     1       6.949   5.043  23.069  0.00  0.00    +0.000 A 
ATOM     24  C   UNL     1       6.562   5.796  24.249  0.00  0.00    +0.000 C 
ATOM     25  C   UNL     1       8.159   4.230  23.092  0.00  0.00    +0.000 A 
ATOM     26  C   UNL     1       8.478   2.985  23.336  0.00  0.00    +0.000 A 
ATOM     27  C   UNL     1       7.144   2.131  23.295  0.00  0.00    +0.000 A 
ENDBRANCH  20  26
ENDBRANCH   1  20
TORSDOF 5
ENDMDL
