MODEL 1
REMARK VINA RESULT:      -8.6      0.000      0.000
REMARK  Name = 
REMARK  7 active torsions:
REMARK  status: ('A' for Active; 'I' for Inactive)
REMARK    1  A    between atoms: C_5  and  S_6
REMARK    2  A    between atoms: S_6  and  N_9
REMARK    3  A    between atoms: C_17  and  C_19
REMARK    4  A    between atoms: C_19  and  N_22
REMARK    5  A    between atoms: C_26  and  S_27
REMARK    6  A    between atoms: S_27  and  N_30
REMARK    7  A    between atoms: C_57  and  C_58
REMARK                            x       y       z     vdW  Elec       q    Type
REMARK                         _______ _______ _______ _____ _____    ______ ____
ROOT
ATOM      1  N   UNL     1       6.762  -5.178  26.043  0.00  0.00    +0.000 NA
ATOM      2  C   UNL     1       6.296  -3.947  26.613  0.00  0.00    +0.000 C 
ATOM      3  C   UNL     1       7.083  -2.749  26.057  0.00  0.00    +0.000 C 
ATOM      4  N   UNL     1       8.183  -3.242  25.249  0.00  0.00    +0.000 N 
ATOM      5  C   UNL     1       8.483  -2.867  23.974  0.00  0.00    +0.000 C 
ATOM      6  O   UNL     1       9.811  -2.728  23.854  0.00  0.00    +0.000 OA
ATOM      7  C   UNL     1       8.999  -4.240  25.941  0.00  0.00    +0.000 C 
ATOM      8  C   UNL     1       8.120  -5.368  26.456  0.00  0.00    +0.000 C 
ENDROOT
BRANCH   1   9
ATOM      9  S   UNL     1       6.679  -5.119  24.429  0.00  0.00    +0.000 S 
ATOM     10  O   UNL     1       8.011  -5.317  23.869  0.00  0.00    +0.000 OA
ATOM     11  O   UNL     1       6.071  -3.865  24.035  0.00  0.00    +0.000 OA
BRANCH   9  14
ATOM     12  C   UNL     1       3.129  -5.140  23.423  0.00  0.00    +0.000 A 
ATOM     13  C   UNL     1       4.555  -5.465  22.972  0.00  0.00    +0.000 A 
ATOM     14  C   UNL     1       5.565  -6.259  23.655  0.00  0.00    +0.000 A 
ATOM     15  C   UNL     1       4.844  -6.834  24.867  0.00  0.00    +0.000 A 
ATOM     16  C   UNL     1       3.676  -6.653  25.604  0.00  0.00    +0.000 A 
ATOM     17  C   UNL     1       2.699  -5.951  24.559  0.00  0.00    +0.000 A 
ATOM     18  C   UNL     1       1.581  -6.995  24.329  0.00  0.00    +0.000 C 
ENDBRANCH   9  14
ENDBRANCH   1   9
BRANCH   5  19
ATOM     19  C   UNL     1       7.703  -2.364  22.896  0.00  0.00    +0.000 C 
BRANCH  19  20
ATOM     20  N   UNL     1       6.988  -1.265  22.686  0.00  0.00    +0.000 N 
ATOM     21  C   UNL     1       7.841  -0.511  22.034  0.00  0.00    +0.000 A 
ATOM     22  C   UNL     1       7.916  -0.491  20.821  0.00  0.00    +0.000 A 
ATOM     23  C   UNL     1       7.430   0.220  19.539  0.00  0.00    +0.000 A 
ATOM     24  C   UNL     1       7.069   1.531  20.162  0.00  0.00    +0.000 A 
ATOM     25  C   UNL     1       7.024   2.126  21.451  0.00  0.00    +0.000 A 
ATOM     26  C   UNL     1       7.586   1.029  22.318  0.00  0.00    +0.000 A 
ATOM     27  C   UNL     1       8.067   1.288  23.654  0.00  0.00    +0.000 C 
ATOM     28  C   UNL     1       7.242   0.511  24.637  0.00  0.00    +0.000 C 
ATOM     29  C   UNL     1       6.522  -0.497  23.736  0.00  0.00    +0.000 C 
BRANCH  23  30
ATOM     30  S   UNL     1       5.960  -0.395  18.945  0.00  0.00    +0.000 S 
ATOM     31  O   UNL     1       5.910  -0.641  17.550  0.00  0.00    +0.000 OA
ATOM     32  O   UNL     1       5.677  -1.571  19.807  0.00  0.00    +0.000 OA
BRANCH  30  33
ATOM     33  N   UNL     1       4.708   0.624  19.344  0.00  0.00    +0.000 NA
ATOM     34  H   UNL     1       3.834   0.063  19.357  0.00  0.00    +0.000 HD
ATOM     35  H   UNL     1       4.514   1.193  18.478  0.00  0.00    +0.000 HD
ENDBRANCH  30  33
ENDBRANCH  23  30
ENDBRANCH  19  20
ENDBRANCH   5  19
TORSDOF 6
ENDMDL
MODEL 2
REMARK VINA RESULT:      -8.5      2.310      3.325
REMARK  Name = 
REMARK  7 active torsions:
REMARK  status: ('A' for Active; 'I' for Inactive)
REMARK    1  A    between atoms: C_5  and  S_6
REMARK    2  A    between atoms: S_6  and  N_9
REMARK    3  A    between atoms: C_17  and  C_19
REMARK    4  A    between atoms: C_19  and  N_22
REMARK    5  A    between atoms: C_26  and  S_27
REMARK    6  A    between atoms: S_27  and  N_30
REMARK    7  A    between atoms: C_57  and  C_58
REMARK                            x       y       z     vdW  Elec       q    Type
REMARK                         _______ _______ _______ _____ _____    ______ ____
ROOT
ATOM      1  N   UNL     1       6.993  -4.816  25.496  0.00  0.00    +0.000 NA
ATOM      2  C   UNL     1       6.881  -3.643  26.315  0.00  0.00    +0.000 C 
ATOM      3  C   UNL     1       7.905  -2.577  25.893  0.00  0.00    +0.000 C 
ATOM      4  N   UNL     1       8.798  -3.147  24.902  0.00  0.00    +0.000 N 
ATOM      5  C   UNL     1       9.105  -2.613  23.687  0.00  0.00    +0.000 C 
ATOM      6  O   UNL     1      10.417  -2.766  23.455  0.00  0.00    +0.000 OA
ATOM      7  C   UNL     1       9.382  -4.420  25.323  0.00  0.00    +0.000 C 
ATOM      8  C   UNL     1       8.284  -5.391  25.725  0.00  0.00    +0.000 C 
ENDROOT
BRANCH   1   9
ATOM      9  S   UNL     1       6.831  -4.430  23.933  0.00  0.00    +0.000 S 
ATOM     10  O   UNL     1       8.032  -4.830  23.210  0.00  0.00    +0.000 OA
ATOM     11  O   UNL     1       6.539  -3.016  23.826  0.00  0.00    +0.000 OA
BRANCH   9  14
ATOM     12  C   UNL     1       3.185  -4.536  24.487  0.00  0.00    +0.000 A 
ATOM     13  C   UNL     1       4.282  -4.266  23.455  0.00  0.00    +0.000 A 
ATOM     14  C   UNL     1       5.419  -5.100  23.098  0.00  0.00    +0.000 A 
ATOM     15  C   UNL     1       5.203  -6.392  23.876  0.00  0.00    +0.000 A 
ATOM     16  C   UNL     1       4.446  -6.893  24.933  0.00  0.00    +0.000 A 
ATOM     17  C   UNL     1       3.187  -5.917  24.964  0.00  0.00    +0.000 A 
ATOM     18  C   UNL     1       1.997  -6.824  24.575  0.00  0.00    +0.000 C 
ENDBRANCH   9  14
ENDBRANCH   1   9
BRANCH   5  19
ATOM     19  C   UNL     1       8.411  -1.746  22.799  0.00  0.00    +0.000 C 
BRANCH  19  20
ATOM     20  N   UNL     1       8.549  -0.480  22.423  0.00  0.00    +0.000 N 
ATOM     21  C   UNL     1       7.321  -0.032  22.534  0.00  0.00    +0.000 A 
ATOM     22  C   UNL     1       6.896   0.491  23.546  0.00  0.00    +0.000 A 
ATOM     23  C   UNL     1       6.673   1.835  24.272  0.00  0.00    +0.000 A 
ATOM     24  C   UNL     1       6.661   2.717  23.064  0.00  0.00    +0.000 A 
ATOM     25  C   UNL     1       6.844   2.608  21.659  0.00  0.00    +0.000 A 
ATOM     26  C   UNL     1       7.030   1.123  21.485  0.00  0.00    +0.000 A 
ATOM     27  C   UNL     1       6.897   0.486  20.197  0.00  0.00    +0.000 C 
ATOM     28  C   UNL     1       8.205  -0.141  19.816  0.00  0.00    +0.000 C 
ATOM     29  C   UNL     1       8.965  -0.148  21.147  0.00  0.00    +0.000 C 
BRANCH  23  30
ATOM     30  S   UNL     1       8.025   2.348  25.168  0.00  0.00    +0.000 S 
ATOM     31  O   UNL     1       8.890   3.261  24.515  0.00  0.00    +0.000 OA
ATOM     32  O   UNL     1       7.455   2.823  26.455  0.00  0.00    +0.000 OA
BRANCH  30  33
ATOM     33  N   UNL     1       8.919   1.035  25.658  0.00  0.00    +0.000 NA
ATOM     34  H   UNL     1       9.902   1.349  25.781  0.00  0.00    +0.000 HD
ATOM     35  H   UNL     1       9.054   0.442  24.797  0.00  0.00    +0.000 HD
ENDBRANCH  30  33
ENDBRANCH  23  30
ENDBRANCH  19  20
ENDBRANCH   5  19
TORSDOF 6
ENDMDL
MODEL 3
REMARK VINA RESULT:      -8.4      2.475      7.342
REMARK  Name = 
REMARK  7 active torsions:
REMARK  status: ('A' for Active; 'I' for Inactive)
REMARK    1  A    between atoms: C_5  and  S_6
REMARK    2  A    between atoms: S_6  and  N_9
REMARK    3  A    between atoms: C_17  and  C_19
REMARK    4  A    between atoms: C_19  and  N_22
REMARK    5  A    between atoms: C_26  and  S_27
REMARK    6  A    between atoms: S_27  and  N_30
REMARK    7  A    between atoms: C_57  and  C_58
REMARK                            x       y       z     vdW  Elec       q    Type
REMARK                         _______ _______ _______ _____ _____    ______ ____
ROOT
ATOM      1  N   UNL     1       7.888   1.327  22.158  0.00  0.00    +0.000 NA
ATOM      2  C   UNL     1       7.053   0.570  21.271  0.00  0.00    +0.000 C 
ATOM      3  C   UNL     1       7.475  -0.908  21.243  0.00  0.00    +0.000 C 
ATOM      4  N   UNL     1       8.707  -1.060  21.994  0.00  0.00    +0.000 N 
ATOM      5  C   UNL     1       8.940  -1.956  22.993  0.00  0.00    +0.000 C 
ATOM      6  O   UNL     1      10.173  -2.467  22.851  0.00  0.00    +0.000 OA
ATOM      7  C   UNL     1       9.749  -0.121  21.580  0.00  0.00    +0.000 C 
ATOM      8  C   UNL     1       9.221   1.303  21.635  0.00  0.00    +0.000 C 
ENDROOT
BRANCH   1   9
ATOM      9  S   UNL     1       7.866   0.681  23.641  0.00  0.00    +0.000 S 
ATOM     10  O   UNL     1       9.212   0.255  24.003  0.00  0.00    +0.000 OA
ATOM     11  O   UNL     1       6.895  -0.392  23.672  0.00  0.00    +0.000 OA
BRANCH   9  14
ATOM     12  C   UNL     1       6.149   3.938  23.890  0.00  0.00    +0.000 A 
ATOM     13  C   UNL     1       6.141   2.484  24.368  0.00  0.00    +0.000 A 
ATOM     14  C   UNL     1       7.231   1.708  24.938  0.00  0.00    +0.000 A 
ATOM     15  C   UNL     1       8.367   2.710  25.102  0.00  0.00    +0.000 A 
ATOM     16  C   UNL     1       8.741   3.984  24.680  0.00  0.00    +0.000 A 
ATOM     17  C   UNL     1       7.348   4.661  24.308  0.00  0.00    +0.000 A 
ATOM     18  C   UNL     1       7.190   5.794  25.348  0.00  0.00    +0.000 C 
ENDBRANCH   9  14
ENDBRANCH   1   9
BRANCH   5  19
ATOM     19  C   UNL     1       8.098  -2.612  23.932  0.00  0.00    +0.000 C 
BRANCH  19  20
ATOM     20  N   UNL     1       7.752  -3.873  24.163  0.00  0.00    +0.000 N 
ATOM     21  C   UNL     1       6.859  -3.736  25.115  0.00  0.00    +0.000 A 
ATOM     22  C   UNL     1       5.668  -3.626  24.896  0.00  0.00    +0.000 A 
ATOM     23  C   UNL     1       4.335  -4.394  24.762  0.00  0.00    +0.000 A 
ATOM     24  C   UNL     1       4.710  -5.592  25.575  0.00  0.00    +0.000 A 
ATOM     25  C   UNL     1       5.844  -6.106  26.260  0.00  0.00    +0.000 A 
ATOM     26  C   UNL     1       6.846  -4.996  26.080  0.00  0.00    +0.000 A 
ATOM     27  C   UNL     1       8.031  -4.902  26.899  0.00  0.00    +0.000 C 
ATOM     28  C   UNL     1       9.246  -5.021  26.028  0.00  0.00    +0.000 C 
ATOM     29  C   UNL     1       8.668  -4.799  24.626  0.00  0.00    +0.000 C 
BRANCH  23  30
ATOM     30  S   UNL     1       4.063  -5.002  23.197  0.00  0.00    +0.000 S 
ATOM     31  O   UNL     1       2.715  -5.289  22.870  0.00  0.00    +0.000 OA
ATOM     32  O   UNL     1       4.741  -4.030  22.302  0.00  0.00    +0.000 OA
BRANCH  30  33
ATOM     33  N   UNL     1       4.967  -6.375  22.951  0.00  0.00    +0.000 NA
ATOM     34  H   UNL     1       5.569  -6.214  22.119  0.00  0.00    +0.000 HD
ATOM     35  H   UNL     1       4.308  -7.082  22.530  0.00  0.00    +0.000 HD
ENDBRANCH  30  33
ENDBRANCH  23  30
ENDBRANCH  19  20
ENDBRANCH   5  19
TORSDOF 6
ENDMDL
MODEL 4
REMARK VINA RESULT:      -8.2      2.458      6.457
REMARK  Name = 
REMARK  7 active torsions:
REMARK  status: ('A' for Active; 'I' for Inactive)
REMARK    1  A    between atoms: C_5  and  S_6
REMARK    2  A    between atoms: S_6  and  N_9
REMARK    3  A    between atoms: C_17  and  C_19
REMARK    4  A    between atoms: C_19  and  N_22
REMARK    5  A    between atoms: C_26  and  S_27
REMARK    6  A    between atoms: S_27  and  N_30
REMARK    7  A    between atoms: C_57  and  C_58
REMARK                            x       y       z     vdW  Elec       q    Type
REMARK                         _______ _______ _______ _____ _____    ______ ____
ROOT
ATOM      1  N   UNL     1       8.454   1.073  22.762  0.00  0.00    +0.000 NA
ATOM      2  C   UNL     1       8.427   0.652  21.391  0.00  0.00    +0.000 C 
ATOM      3  C   UNL     1       8.950  -0.786  21.245  0.00  0.00    +0.000 C 
ATOM      4  N   UNL     1       9.479  -1.227  22.522  0.00  0.00    +0.000 N 
ATOM      5  C   UNL     1       9.162  -2.379  23.176  0.00  0.00    +0.000 C 
ATOM      6  O   UNL     1      10.276  -2.915  23.696  0.00  0.00    +0.000 OA
ATOM      7  C   UNL     1      10.438  -0.285  23.100  0.00  0.00    +0.000 C 
ATOM      8  C   UNL     1       9.821   1.101  23.187  0.00  0.00    +0.000 C 
ENDROOT
BRANCH   1   9
ATOM      9  S   UNL     1       7.611   0.044  23.684  0.00  0.00    +0.000 S 
ATOM     10  O   UNL     1       8.501  -0.567  24.663  0.00  0.00    +0.000 OA
ATOM     11  O   UNL     1       6.948  -0.919  22.829  0.00  0.00    +0.000 OA
BRANCH   9  14
ATOM     12  C   UNL     1       6.971   1.666  26.935  0.00  0.00    +0.000 A 
ATOM     13  C   UNL     1       6.713   1.748  25.428  0.00  0.00    +0.000 A 
ATOM     14  C   UNL     1       6.210   0.716  24.535  0.00  0.00    +0.000 A 
ATOM     15  C   UNL     1       5.844  -0.441  25.457  0.00  0.00    +0.000 A 
ATOM     16  C   UNL     1       6.055  -0.879  26.763  0.00  0.00    +0.000 A 
ATOM     17  C   UNL     1       6.392   0.470  27.541  0.00  0.00    +0.000 A 
ATOM     18  C   UNL     1       5.205   0.648  28.517  0.00  0.00    +0.000 C 
ENDBRANCH   9  14
ENDBRANCH   1   9
BRANCH   5  19
ATOM     19  C   UNL     1       8.007  -3.209  23.185  0.00  0.00    +0.000 C 
BRANCH  19  20
ATOM     20  N   UNL     1       7.659  -4.327  23.811  0.00  0.00    +0.000 N 
ATOM     21  C   UNL     1       6.753  -3.891  24.655  0.00  0.00    +0.000 A 
ATOM     22  C   UNL     1       5.566  -3.865  24.398  0.00  0.00    +0.000 A 
ATOM     23  C   UNL     1       4.235  -4.640  24.506  0.00  0.00    +0.000 A 
ATOM     24  C   UNL     1       4.600  -5.505  25.670  0.00  0.00    +0.000 A 
ATOM     25  C   UNL     1       5.725  -5.762  26.499  0.00  0.00    +0.000 A 
ATOM     26  C   UNL     1       6.728  -4.766  25.979  0.00  0.00    +0.000 A 
ATOM     27  C   UNL     1       7.902  -4.403  26.736  0.00  0.00    +0.000 C 
ATOM     28  C   UNL     1       9.129  -4.795  25.967  0.00  0.00    +0.000 C 
ATOM     29  C   UNL     1       8.569  -5.046  24.562  0.00  0.00    +0.000 C 
BRANCH  23  30
ATOM     30  S   UNL     1       3.984  -5.728  23.222  0.00  0.00    +0.000 S 
ATOM     31  O   UNL     1       2.646  -5.858  22.774  0.00  0.00    +0.000 OA
ATOM     32  O   UNL     1       4.963  -5.308  22.187  0.00  0.00    +0.000 OA
BRANCH  30  33
ATOM     33  N   UNL     1       4.551  -7.237  23.630  0.00  0.00    +0.000 NA
ATOM     34  H   UNL     1       5.432  -7.111  24.167  0.00  0.00    +0.000 HD
ATOM     35  H   UNL     1       4.964  -7.637  22.747  0.00  0.00    +0.000 HD
ENDBRANCH  30  33
ENDBRANCH  23  30
ENDBRANCH  19  20
ENDBRANCH   5  19
TORSDOF 6
ENDMDL
MODEL 5
REMARK VINA RESULT:      -8.2      2.536      3.185
REMARK  Name = 
REMARK  7 active torsions:
REMARK  status: ('A' for Active; 'I' for Inactive)
REMARK    1  A    between atoms: C_5  and  S_6
REMARK    2  A    between atoms: S_6  and  N_9
REMARK    3  A    between atoms: C_17  and  C_19
REMARK    4  A    between atoms: C_19  and  N_22
REMARK    5  A    between atoms: C_26  and  S_27
REMARK    6  A    between atoms: S_27  and  N_30
REMARK    7  A    between atoms: C_57  and  C_58
REMARK                            x       y       z     vdW  Elec       q    Type
REMARK                         _______ _______ _______ _____ _____    ______ ____
ROOT
ATOM      1  N   UNL     1       6.778  -4.458  25.536  0.00  0.00    +0.000 NA
ATOM      2  C   UNL     1       7.126  -3.672  26.685  0.00  0.00    +0.000 C 
ATOM      3  C   UNL     1       8.382  -2.828  26.416  0.00  0.00    +0.000 C 
ATOM      4  N   UNL     1       8.942  -3.212  25.134  0.00  0.00    +0.000 N 
ATOM      5  C   UNL     1       9.270  -2.375  24.111  0.00  0.00    +0.000 C 
ATOM      6  O   UNL     1      10.437  -2.766  23.575  0.00  0.00    +0.000 OA
ATOM      7  C   UNL     1       9.139  -4.656  25.005  0.00  0.00    +0.000 C 
ATOM      8  C   UNL     1       7.840  -5.388  25.302  0.00  0.00    +0.000 C 
ENDROOT
BRANCH   1   9
ATOM      9  S   UNL     1       6.581  -3.507  24.242  0.00  0.00    +0.000 S 
ATOM     10  O   UNL     1       7.561  -3.869  23.224  0.00  0.00    +0.000 OA
ATOM     11  O   UNL     1       6.668  -2.123  24.657  0.00  0.00    +0.000 OA
BRANCH   9  14
ATOM     12  C   UNL     1       3.313  -5.078  24.924  0.00  0.00    +0.000 A 
ATOM     13  C   UNL     1       4.016  -3.766  24.568  0.00  0.00    +0.000 A 
ATOM     14  C   UNL     1       4.971  -3.507  23.502  0.00  0.00    +0.000 A 
ATOM     15  C   UNL     1       5.014  -4.804  22.704  0.00  0.00    +0.000 A 
ATOM     16  C   UNL     1       4.639  -6.141  22.813  0.00  0.00    +0.000 A 
ATOM     17  C   UNL     1       3.463  -6.096  23.888  0.00  0.00    +0.000 A 
ATOM     18  C   UNL     1       2.207  -6.516  23.090  0.00  0.00    +0.000 C 
ENDBRANCH   9  14
ENDBRANCH   1   9
BRANCH   5  19
ATOM     19  C   UNL     1       8.793  -1.099  23.702  0.00  0.00    +0.000 C 
BRANCH  19  20
ATOM     20  N   UNL     1       8.804   0.120  24.228  0.00  0.00    +0.000 N 
ATOM     21  C   UNL     1       8.568   0.868  23.176  0.00  0.00    +0.000 A 
ATOM     22  C   UNL     1       7.450   1.206  22.839  0.00  0.00    +0.000 A 
ATOM     23  C   UNL     1       6.379   2.312  22.955  0.00  0.00    +0.000 A 
ATOM     24  C   UNL     1       7.295   3.444  23.294  0.00  0.00    +0.000 A 
ATOM     25  C   UNL     1       8.676   3.663  23.549  0.00  0.00    +0.000 A 
ATOM     26  C   UNL     1       9.256   2.292  23.313  0.00  0.00    +0.000 A 
ATOM     27  C   UNL     1      10.670   2.090  23.106  0.00  0.00    +0.000 C 
ATOM     28  C   UNL     1      11.213   1.226  24.205  0.00  0.00    +0.000 C 
ATOM     29  C   UNL     1       9.939   0.639  24.822  0.00  0.00    +0.000 C 
BRANCH  23  30
ATOM     30  S   UNL     1       5.381   2.141  24.321  0.00  0.00    +0.000 S 
ATOM     31  O   UNL     1       5.798   2.836  25.484  0.00  0.00    +0.000 OA
ATOM     32  O   UNL     1       4.022   2.484  23.830  0.00  0.00    +0.000 OA
BRANCH  30  33
ATOM     33  N   UNL     1       5.205   0.533  24.706  0.00  0.00    +0.000 NA
ATOM     34  H   UNL     1       6.102   0.055  24.490  0.00  0.00    +0.000 HD
ATOM     35  H   UNL     1       4.620   0.115  23.935  0.00  0.00    +0.000 HD
ENDBRANCH  30  33
ENDBRANCH  23  30
ENDBRANCH  19  20
ENDBRANCH   5  19
TORSDOF 6
ENDMDL
MODEL 6
REMARK VINA RESULT:      -8.1      2.449      6.376
REMARK  Name = 
REMARK  7 active torsions:
REMARK  status: ('A' for Active; 'I' for Inactive)
REMARK    1  A    between atoms: C_5  and  S_6
REMARK    2  A    between atoms: S_6  and  N_9
REMARK    3  A    between atoms: C_17  and  C_19
REMARK    4  A    between atoms: C_19  and  N_22
REMARK    5  A    between atoms: C_26  and  S_27
REMARK    6  A    between atoms: S_27  and  N_30
REMARK    7  A    between atoms: C_57  and  C_58
REMARK                            x       y       z     vdW  Elec       q    Type
REMARK                         _______ _______ _______ _____ _____    ______ ____
ROOT
ATOM      1  N   UNL     1       9.497  -0.114  22.589  0.00  0.00    +0.000 NA
ATOM      2  C   UNL     1      10.137  -1.380  22.376  0.00  0.00    +0.000 C 
ATOM      3  C   UNL     1      10.122  -2.229  23.658  0.00  0.00    +0.000 C 
ATOM      4  N   UNL     1       9.615  -1.421  24.751  0.00  0.00    +0.000 N 
ATOM      5  C   UNL     1       8.609  -1.755  25.606  0.00  0.00    +0.000 C 
ATOM      6  O   UNL     1       8.945  -1.387  26.852  0.00  0.00    +0.000 OA
ATOM      7  C   UNL     1      10.303  -0.136  24.879  0.00  0.00    +0.000 C 
ATOM      8  C   UNL     1      10.266   0.610  23.556  0.00  0.00    +0.000 C 
ENDROOT
BRANCH   1   9
ATOM      9  S   UNL     1       7.989  -0.330  23.133  0.00  0.00    +0.000 S 
ATOM     10  O   UNL     1       7.866   0.259  24.462  0.00  0.00    +0.000 OA
ATOM     11  O   UNL     1       7.674  -1.742  23.099  0.00  0.00    +0.000 OA
BRANCH   9  14
ATOM     12  C   UNL     1       6.072  -1.492  20.203  0.00  0.00    +0.000 A 
ATOM     13  C   UNL     1       5.966  -0.848  21.588  0.00  0.00    +0.000 A 
ATOM     14  C   UNL     1       6.686   0.302  22.113  0.00  0.00    +0.000 A 
ATOM     15  C   UNL     1       7.475   0.834  20.923  0.00  0.00    +0.000 A 
ATOM     16  C   UNL     1       7.884   0.447  19.649  0.00  0.00    +0.000 A 
ATOM     17  C   UNL     1       6.813  -0.665  19.253  0.00  0.00    +0.000 A 
ATOM     18  C   UNL     1       6.038  -0.038  18.072  0.00  0.00    +0.000 C 
ENDBRANCH   9  14
ENDBRANCH   1   9
BRANCH   5  19
ATOM     19  C   UNL     1       7.471  -2.601  25.491  0.00  0.00    +0.000 C 
BRANCH  19  20
ATOM     20  N   UNL     1       7.282  -3.911  25.393  0.00  0.00    +0.000 N 
ATOM     21  C   UNL     1       5.991  -3.978  25.164  0.00  0.00    +0.000 A 
ATOM     22  C   UNL     1       5.517  -3.995  24.045  0.00  0.00    +0.000 A 
ATOM     23  C   UNL     1       5.025  -4.905  22.898  0.00  0.00    +0.000 A 
ATOM     24  C   UNL     1       4.731  -6.120  23.717  0.00  0.00    +0.000 A 
ATOM     25  C   UNL     1       4.848  -6.556  25.064  0.00  0.00    +0.000 A 
ATOM     26  C   UNL     1       5.370  -5.318  25.746  0.00  0.00    +0.000 A 
ATOM     27  C   UNL     1       5.314  -5.158  27.179  0.00  0.00    +0.000 C 
ATOM     28  C   UNL     1       6.708  -5.042  27.721  0.00  0.00    +0.000 C 
ATOM     29  C   UNL     1       7.527  -4.757  26.457  0.00  0.00    +0.000 C 
BRANCH  23  30
ATOM     30  S   UNL     1       6.269  -5.387  21.842  0.00  0.00    +0.000 S 
ATOM     31  O   UNL     1       6.712  -6.726  21.978  0.00  0.00    +0.000 OA
ATOM     32  O   UNL     1       5.770  -5.017  20.493  0.00  0.00    +0.000 OA
BRANCH  30  33
ATOM     33  N   UNL     1       7.582  -4.379  22.005  0.00  0.00    +0.000 NA
ATOM     34  H   UNL     1       7.836  -4.350  23.012  0.00  0.00    +0.000 HD
ATOM     35  H   UNL     1       7.205  -3.399  21.912  0.00  0.00    +0.000 HD
ENDBRANCH  30  33
ENDBRANCH  23  30
ENDBRANCH  19  20
ENDBRANCH   5  19
TORSDOF 6
ENDMDL
MODEL 7
REMARK VINA RESULT:      -8.0      2.892      6.868
REMARK  Name = 
REMARK  7 active torsions:
REMARK  status: ('A' for Active; 'I' for Inactive)
REMARK    1  A    between atoms: C_5  and  S_6
REMARK    2  A    between atoms: S_6  and  N_9
REMARK    3  A    between atoms: C_17  and  C_19
REMARK    4  A    between atoms: C_19  and  N_22
REMARK    5  A    between atoms: C_26  and  S_27
REMARK    6  A    between atoms: S_27  and  N_30
REMARK    7  A    between atoms: C_57  and  C_58
REMARK                            x       y       z     vdW  Elec       q    Type
REMARK                         _______ _______ _______ _____ _____    ______ ____
ROOT
ATOM      1  N   UNL     1       9.718   0.934  23.914  0.00  0.00    +0.000 NA
ATOM      2  C   UNL     1      10.149   0.211  25.075  0.00  0.00    +0.000 C 
ATOM      3  C   UNL     1       8.990   0.016  26.066  0.00  0.00    +0.000 C 
ATOM      4  N   UNL     1       7.844   0.776  25.605  0.00  0.00    +0.000 N 
ATOM      5  C   UNL     1       6.576   0.308  25.438  0.00  0.00    +0.000 C 
ATOM      6  O   UNL     1       5.703   1.222  25.887  0.00  0.00    +0.000 OA
ATOM      7  C   UNL     1       8.165   2.173  25.310  0.00  0.00    +0.000 C 
ATOM      8  C   UNL     1       9.327   2.246  24.333  0.00  0.00    +0.000 C 
ENDROOT
BRANCH   1   9
ATOM      9  S   UNL     1       8.467   0.183  23.215  0.00  0.00    +0.000 S 
ATOM     10  O   UNL     1       7.305   1.064  23.229  0.00  0.00    +0.000 OA
ATOM     11  O   UNL     1       8.240  -1.079  23.888  0.00  0.00    +0.000 OA
BRANCH   9  14
ATOM     12  C   UNL     1       7.044   0.883  19.884  0.00  0.00    +0.000 A 
ATOM     13  C   UNL     1       8.343   0.696  20.671  0.00  0.00    +0.000 A 
ATOM     14  C   UNL     1       8.719  -0.393  21.559  0.00  0.00    +0.000 A 
ATOM     15  C   UNL     1       7.588  -1.404  21.423  0.00  0.00    +0.000 A 
ATOM     16  C   UNL     1       6.284  -1.494  20.940  0.00  0.00    +0.000 A 
ATOM     17  C   UNL     1       6.220  -0.323  19.862  0.00  0.00    +0.000 A 
ATOM     18  C   UNL     1       6.045  -1.062  18.514  0.00  0.00    +0.000 C 
ENDBRANCH   9  14
ENDBRANCH   1   9
BRANCH   5  19
ATOM     19  C   UNL     1       6.041  -0.979  25.152  0.00  0.00    +0.000 C 
BRANCH  19  20
ATOM     20  N   UNL     1       5.755  -2.058  25.871  0.00  0.00    +0.000 N 
ATOM     21  C   UNL     1       5.564  -2.959  24.937  0.00  0.00    +0.000 A 
ATOM     22  C   UNL     1       6.449  -3.678  24.518  0.00  0.00    +0.000 A 
ATOM     23  C   UNL     1       7.139  -5.051  24.676  0.00  0.00    +0.000 A 
ATOM     24  C   UNL     1       5.998  -5.777  25.316  0.00  0.00    +0.000 A 
ATOM     25  C   UNL     1       4.684  -5.503  25.782  0.00  0.00    +0.000 A 
ATOM     26  C   UNL     1       4.514  -4.056  25.399  0.00  0.00    +0.000 A 
ATOM     27  C   UNL     1       3.214  -3.431  25.348  0.00  0.00    +0.000 C 
ATOM     28  C   UNL     1       3.160  -2.315  26.348  0.00  0.00    +0.000 C 
ATOM     29  C   UNL     1       4.641  -2.107  26.686  0.00  0.00    +0.000 C 
BRANCH  23  30
ATOM     30  S   UNL     1       8.367  -5.056  25.851  0.00  0.00    +0.000 S 
ATOM     31  O   UNL     1       8.793  -3.783  26.307  0.00  0.00    +0.000 OA
ATOM     32  O   UNL     1       7.864  -5.972  26.906  0.00  0.00    +0.000 OA
BRANCH  30  33
ATOM     33  N   UNL     1       9.695  -5.884  25.290  0.00  0.00    +0.000 NA
ATOM     34  H   UNL     1       9.985  -6.556  26.027  0.00  0.00    +0.000 HD
ATOM     35  H   UNL     1      10.505  -5.214  25.366  0.00  0.00    +0.000 HD
ENDBRANCH  30  33
ENDBRANCH  23  30
ENDBRANCH  19  20
ENDBRANCH   5  19
TORSDOF 6
ENDMDL
MODEL 8
REMARK VINA RESULT:      -8.0      2.283      4.366
REMARK  Name = 
REMARK  7 active torsions:
REMARK  status: ('A' for Active; 'I' for Inactive)
REMARK    1  A    between atoms: C_5  and  S_6
REMARK    2  A    between atoms: S_6  and  N_9
REMARK    3  A    between atoms: C_17  and  C_19
REMARK    4  A    between atoms: C_19  and  N_22
REMARK    5  A    between atoms: C_26  and  S_27
REMARK    6  A    between atoms: S_27  and  N_30
REMARK    7  A    between atoms: C_57  and  C_58
REMARK                            x       y       z     vdW  Elec       q    Type
REMARK                         _______ _______ _______ _____ _____    ______ ____
ROOT
ATOM      1  N   UNL     1       6.084  -5.432  24.344  0.00  0.00    +0.000 NA
ATOM      2  C   UNL     1       7.496  -5.388  24.096  0.00  0.00    +0.000 C 
ATOM      3  C   UNL     1       7.804  -4.626  22.797  0.00  0.00    +0.000 C 
ATOM      4  N   UNL     1       6.557  -4.328  22.118  0.00  0.00    +0.000 N 
ATOM      5  C   UNL     1       6.153  -3.110  21.664  0.00  0.00    +0.000 C 
ATOM      6  O   UNL     1       5.580  -3.253  20.459  0.00  0.00    +0.000 OA
ATOM      7  C   UNL     1       5.704  -5.505  21.947  0.00  0.00    +0.000 C 
ATOM      8  C   UNL     1       5.475  -6.183  23.288  0.00  0.00    +0.000 C 
ENDROOT
BRANCH   1   9
ATOM      9  S   UNL     1       5.471  -3.935  24.381  0.00  0.00    +0.000 S 
ATOM     10  O   UNL     1       4.459  -3.802  23.340  0.00  0.00    +0.000 OA
ATOM     11  O   UNL     1       6.553  -2.981  24.257  0.00  0.00    +0.000 OA
BRANCH   9  14
ATOM     12  C   UNL     1       5.953  -4.712  27.955  0.00  0.00    +0.000 A 
ATOM     13  C   UNL     1       5.798  -3.582  26.935  0.00  0.00    +0.000 A 
ATOM     14  C   UNL     1       4.770  -3.409  25.921  0.00  0.00    +0.000 A 
ATOM     15  C   UNL     1       3.775  -4.530  26.190  0.00  0.00    +0.000 A 
ATOM     16  C   UNL     1       3.676  -5.728  26.894  0.00  0.00    +0.000 A 
ATOM     17  C   UNL     1       4.765  -5.558  28.044  0.00  0.00    +0.000 A 
ATOM     18  C   UNL     1       3.933  -5.512  29.347  0.00  0.00    +0.000 C 
ENDBRANCH   9  14
ENDBRANCH   1   9
BRANCH   5  19
ATOM     19  C   UNL     1       6.442  -1.775  22.062  0.00  0.00    +0.000 C 
BRANCH  19  20
ATOM     20  N   UNL     1       7.491  -0.969  21.953  0.00  0.00    +0.000 N 
ATOM     21  C   UNL     1       7.088   0.087  22.621  0.00  0.00    +0.000 A 
ATOM     22  C   UNL     1       7.304   0.242  23.807  0.00  0.00    +0.000 A 
ATOM     23  C   UNL     1       8.268   0.862  24.842  0.00  0.00    +0.000 A 
ATOM     24  C   UNL     1       8.865   1.910  23.958  0.00  0.00    +0.000 A 
ATOM     25  C   UNL     1       8.795   2.333  22.604  0.00  0.00    +0.000 A 
ATOM     26  C   UNL     1       7.737   1.416  22.047  0.00  0.00    +0.000 A 
ATOM     27  C   UNL     1       7.066   1.698  20.800  0.00  0.00    +0.000 C 
ATOM     28  C   UNL     1       7.360   0.601  19.820  0.00  0.00    +0.000 C 
ATOM     29  C   UNL     1       7.918  -0.504  20.723  0.00  0.00    +0.000 C 
BRANCH  23  30
ATOM     30  S   UNL     1       9.569  -0.156  25.244  0.00  0.00    +0.000 S 
ATOM     31  O   UNL     1      10.862   0.348  24.956  0.00  0.00    +0.000 OA
ATOM     32  O   UNL     1       9.330  -0.516  26.665  0.00  0.00    +0.000 OA
BRANCH  30  33
ATOM     33  N   UNL     1       9.399  -1.628  24.490  0.00  0.00    +0.000 NA
ATOM     34  H   UNL     1       8.476  -2.020  24.762  0.00  0.00    +0.000 HD
ATOM     35  H   UNL     1      10.014  -2.298  25.024  0.00  0.00    +0.000 HD
ENDBRANCH  30  33
ENDBRANCH  23  30
ENDBRANCH  19  20
ENDBRANCH   5  19
TORSDOF 6
ENDMDL
MODEL 9
REMARK VINA RESULT:      -7.9      2.598      6.483
REMARK  Name = 
REMARK  7 active torsions:
REMARK  status: ('A' for Active; 'I' for Inactive)
REMARK    1  A    between atoms: C_5  and  S_6
REMARK    2  A    between atoms: S_6  and  N_9
REMARK    3  A    between atoms: C_17  and  C_19
REMARK    4  A    between atoms: C_19  and  N_22
REMARK    5  A    between atoms: C_26  and  S_27
REMARK    6  A    between atoms: S_27  and  N_30
REMARK    7  A    between atoms: C_57  and  C_58
REMARK                            x       y       z     vdW  Elec       q    Type
REMARK                         _______ _______ _______ _____ _____    ______ ____
ROOT
ATOM      1  N   UNL     1       9.404   0.949  24.045  0.00  0.00    +0.000 NA
ATOM      2  C   UNL     1      10.008  -0.000  24.935  0.00  0.00    +0.000 C 
ATOM      3  C   UNL     1       8.949  -0.686  25.813  0.00  0.00    +0.000 C 
ATOM      4  N   UNL     1       7.668  -0.039  25.597  0.00  0.00    +0.000 N 
ATOM      5  C   UNL     1       6.493  -0.653  25.287  0.00  0.00    +0.000 C 
ATOM      6  O   UNL     1       5.499  -0.086  25.987  0.00  0.00    +0.000 OA
ATOM      7  C   UNL     1       7.731   1.416  25.741  0.00  0.00    +0.000 C 
ATOM      8  C   UNL     1       8.815   1.984  24.839  0.00  0.00    +0.000 C 
ENDROOT
BRANCH   1   9
ATOM      9  S   UNL     1       8.269   0.231  23.143  0.00  0.00    +0.000 S 
ATOM     10  O   UNL     1       6.972   0.832  23.431  0.00  0.00    +0.000 OA
ATOM     11  O   UNL     1       8.307  -1.196  23.385  0.00  0.00    +0.000 OA
BRANCH   9  14
ATOM     12  C   UNL     1       6.473   1.510  20.185  0.00  0.00    +0.000 A 
ATOM     13  C   UNL     1       7.836   1.427  20.877  0.00  0.00    +0.000 A 
ATOM     14  C   UNL     1       8.524   0.253  21.390  0.00  0.00    +0.000 A 
ATOM     15  C   UNL     1       7.657  -0.920  20.952  0.00  0.00    +0.000 A 
ATOM     16  C   UNL     1       6.378  -1.184  20.464  0.00  0.00    +0.000 A 
ATOM     17  C   UNL     1       5.959   0.200  19.794  0.00  0.00    +0.000 A 
ATOM     18  C   UNL     1       5.862  -0.126  18.286  0.00  0.00    +0.000 C 
ENDBRANCH   9  14
ENDBRANCH   1   9
BRANCH   5  19
ATOM     19  C   UNL     1       6.173  -1.869  24.622  0.00  0.00    +0.000 C 
BRANCH  19  20
ATOM     20  N   UNL     1       6.368  -3.157  24.874  0.00  0.00    +0.000 N 
ATOM     21  C   UNL     1       5.189  -3.665  24.605  0.00  0.00    +0.000 A 
ATOM     22  C   UNL     1       4.888  -4.098  23.510  0.00  0.00    +0.000 A 
ATOM     23  C   UNL     1       4.822  -5.365  22.630  0.00  0.00    +0.000 A 
ATOM     24  C   UNL     1       4.772  -6.374  23.733  0.00  0.00    +0.000 A 
ATOM     25  C   UNL     1       4.829  -6.409  25.152  0.00  0.00    +0.000 A 
ATOM     26  C   UNL     1       4.893  -4.944  25.497  0.00  0.00    +0.000 A 
ATOM     27  C   UNL     1       4.608  -4.463  26.827  0.00  0.00    +0.000 C 
ATOM     28  C   UNL     1       5.832  -3.803  27.389  0.00  0.00    +0.000 C 
ATOM     29  C   UNL     1       6.698  -3.602  26.140  0.00  0.00    +0.000 C 
BRANCH  23  30
ATOM     30  S   UNL     1       6.277  -5.692  21.812  0.00  0.00    +0.000 S 
ATOM     31  O   UNL     1       6.966  -6.862  22.218  0.00  0.00    +0.000 OA
ATOM     32  O   UNL     1       5.912  -5.637  20.374  0.00  0.00    +0.000 OA
BRANCH  30  33
ATOM     33  N   UNL     1       7.314  -4.399  21.947  0.00  0.00    +0.000 NA
ATOM     34  H   UNL     1       7.910  -4.380  21.096  0.00  0.00    +0.000 HD
ATOM     35  H   UNL     1       8.049  -4.691  22.644  0.00  0.00    +0.000 HD
ENDBRANCH  30  33
ENDBRANCH  23  30
ENDBRANCH  19  20
ENDBRANCH   5  19
TORSDOF 6
ENDMDL
