MODEL 1
REMARK VINA RESULT:      -8.8      0.000      0.000
REMARK  Name = 
REMARK  5 active torsions:
REMARK  status: ('A' for Active; 'I' for Inactive)
REMARK    1  A    between atoms: C_7  and  C_8
REMARK    2  A    between atoms: C_8  and  N_11
REMARK    3  A    between atoms: C_19  and  C_21
REMARK    4  A    between atoms: C_21  and  C_24
REMARK    5  A    between atoms: C_40  and  C_42
REMARK                            x       y       z     vdW  Elec       q    Type
REMARK                         _______ _______ _______ _____ _____    ______ ____
ROOT
ATOM      1  C   UNL     1       9.817  -1.133  23.021  0.00  0.00    +0.000 C 
ATOM      2  O   UNL     1      10.830  -1.639  22.330  0.00  0.00    +0.000 OA
ATOM      3  N   UNL     1      10.003   0.122  23.228  0.00  0.00    +0.000 N 
ATOM      4  C   UNL     1       9.830   0.841  24.530  0.00  0.00    +0.000 C 
ATOM      5  C   UNL     1       9.361   2.066  24.419  0.00  0.00    +0.000 A 
ATOM      6  C   UNL     1       8.205   2.184  25.387  0.00  0.00    +0.000 A 
ATOM      7  C   UNL     1       7.200   3.285  25.494  0.00  0.00    +0.000 A 
ATOM      8  C   UNL     1       7.397   4.043  24.197  0.00  0.00    +0.000 A 
ATOM      9  C   UNL     1       8.235   3.983  23.052  0.00  0.00    +0.000 A 
ATOM     10  C   UNL     1       8.804   2.579  23.092  0.00  0.00    +0.000 A 
ATOM     11  C   UNL     1       9.034   1.816  21.953  0.00  0.00    +0.000 C 
ATOM     12  C   UNL     1      10.381   1.051  22.139  0.00  0.00    +0.000 C 
ENDROOT
BRANCH  11  13
ATOM     13  C   UNL     1       8.050   0.671  21.590  0.00  0.00    +0.000 A 
ATOM     14  C   UNL     1       6.711   1.361  21.662  0.00  0.00    +0.000 A 
ATOM     15  C   UNL     1       5.723   1.620  20.585  0.00  0.00    +0.000 A 
ATOM     16  C   UNL     1       6.295   0.914  19.375  0.00  0.00    +0.000 A 
ATOM     17  C   UNL     1       7.432   0.234  18.955  0.00  0.00    +0.000 A 
ATOM     18  C   UNL     1       8.234  -0.012  20.307  0.00  0.00    +0.000 A 
ENDBRANCH  11  13
BRANCH   1  19
ATOM     19  C   UNL     1       8.938  -2.129  23.595  0.00  0.00    +0.000 C 
BRANCH  19  24
ATOM     20  N   UNL     1       7.034  -3.588  25.280  0.00  0.00    +0.000 NA
ATOM     21  C   UNL     1       7.322  -4.957  25.330  0.00  0.00    +0.000 C 
ATOM     22  C   UNL     1       8.784  -5.225  25.069  0.00  0.00    +0.000 C 
ATOM     23  O   UNL     1       9.503  -4.248  24.534  0.00  0.00    +0.000 OA
ATOM     24  C   UNL     1       9.277  -2.928  24.782  0.00  0.00    +0.000 C 
ATOM     25  C   UNL     1       8.088  -2.849  25.780  0.00  0.00    +0.000 C 
BRANCH  20  26
ATOM     26  C   UNL     1       5.852  -3.216  24.857  0.00  0.00    +0.000 C 
BRANCH  26  30
ATOM     27  C   UNL     1       5.932  -5.816  21.580  0.00  0.00    +0.000 A 
ATOM     28  C   UNL     1       4.914  -5.833  22.705  0.00  0.00    +0.000 A 
ATOM     29  C   UNL     1       4.416  -4.727  23.488  0.00  0.00    +0.000 A 
ATOM     30  C   UNL     1       5.413  -3.464  23.384  0.00  0.00    +0.000 A 
ATOM     31  C   UNL     1       6.261  -3.256  22.255  0.00  0.00    +0.000 A 
ATOM     32  C   UNL     1       6.705  -4.582  21.496  0.00  0.00    +0.000 A 
ENDBRANCH  26  30
ENDBRANCH  20  26
ENDBRANCH  19  24
ENDBRANCH   1  19
TORSDOF 5
ENDMDL
MODEL 2
REMARK VINA RESULT:      -8.7      2.182      4.279
REMARK  Name = 
REMARK  5 active torsions:
REMARK  status: ('A' for Active; 'I' for Inactive)
REMARK    1  A    between atoms: C_7  and  C_8
REMARK    2  A    between atoms: C_8  and  N_11
REMARK    3  A    between atoms: C_19  and  C_21
REMARK    4  A    between atoms: C_21  and  C_24
REMARK    5  A    between atoms: C_40  and  C_42
REMARK                            x       y       z     vdW  Elec       q    Type
REMARK                         _______ _______ _______ _____ _____    ______ ____
ROOT
ATOM      1  C   UNL     1       6.772  -1.252  21.170  0.00  0.00    +0.000 C 
ATOM      2  O   UNL     1       6.199  -1.367  19.980  0.00  0.00    +0.000 OA
ATOM      3  N   UNL     1       7.896  -0.636  21.064  0.00  0.00    +0.000 N 
ATOM      4  C   UNL     1       9.194  -1.047  21.686  0.00  0.00    +0.000 C 
ATOM      5  C   UNL     1       9.954  -0.046  22.079  0.00  0.00    +0.000 A 
ATOM      6  C   UNL     1      10.367  -0.339  23.504  0.00  0.00    +0.000 A 
ATOM      7  C   UNL     1      11.042   0.575  24.474  0.00  0.00    +0.000 A 
ATOM      8  C   UNL     1      10.876   1.933  23.824  0.00  0.00    +0.000 A 
ATOM      9  C   UNL     1      10.327   2.477  22.633  0.00  0.00    +0.000 A 
ATOM     10  C   UNL     1       9.412   1.382  22.123  0.00  0.00    +0.000 A 
ATOM     11  C   UNL     1       8.192   1.634  21.505  0.00  0.00    +0.000 C 
ATOM     12  C   UNL     1       8.029   0.635  20.317  0.00  0.00    +0.000 C 
ENDROOT
BRANCH  11  13
ATOM     13  C   UNL     1       6.876   1.420  22.301  0.00  0.00    +0.000 A 
ATOM     14  C   UNL     1       7.326   1.607  23.727  0.00  0.00    +0.000 A 
ATOM     15  C   UNL     1       6.941   2.652  24.710  0.00  0.00    +0.000 A 
ATOM     16  C   UNL     1       5.865   3.450  24.005  0.00  0.00    +0.000 A 
ATOM     17  C   UNL     1       5.241   3.571  22.770  0.00  0.00    +0.000 A 
ATOM     18  C   UNL     1       5.733   2.279  21.981  0.00  0.00    +0.000 A 
ENDBRANCH  11  13
BRANCH   1  19
ATOM     19  C   UNL     1       6.162  -2.062  22.201  0.00  0.00    +0.000 C 
BRANCH  19  24
ATOM     20  N   UNL     1       6.319  -3.933  24.453  0.00  0.00    +0.000 NA
ATOM     21  C   UNL     1       5.149  -4.690  24.586  0.00  0.00    +0.000 C 
ATOM     22  C   UNL     1       4.420  -4.820  23.271  0.00  0.00    +0.000 C 
ATOM     23  O   UNL     1       4.761  -3.992  22.294  0.00  0.00    +0.000 OA
ATOM     24  C   UNL     1       6.028  -3.524  22.115  0.00  0.00    +0.000 C 
ATOM     25  C   UNL     1       6.909  -4.162  23.226  0.00  0.00    +0.000 C 
BRANCH  20  26
ATOM     26  C   UNL     1       6.710  -3.209  25.470  0.00  0.00    +0.000 C 
BRANCH  26  30
ATOM     27  C   UNL     1       6.671   0.359  27.655  0.00  0.00    +0.000 A 
ATOM     28  C   UNL     1       7.909  -0.382  27.184  0.00  0.00    +0.000 A 
ATOM     29  C   UNL     1       8.079  -1.192  26.001  0.00  0.00    +0.000 A 
ATOM     30  C   UNL     1       6.648  -1.654  25.418  0.00  0.00    +0.000 A 
ATOM     31  C   UNL     1       5.457  -0.897  25.639  0.00  0.00    +0.000 A 
ATOM     32  C   UNL     1       5.442  -0.048  26.985  0.00  0.00    +0.000 A 
ENDBRANCH  26  30
ENDBRANCH  20  26
ENDBRANCH  19  24
ENDBRANCH   1  19
TORSDOF 5
ENDMDL
MODEL 3
REMARK VINA RESULT:      -8.4      2.134      4.362
REMARK  Name = 
REMARK  5 active torsions:
REMARK  status: ('A' for Active; 'I' for Inactive)
REMARK    1  A    between atoms: C_7  and  C_8
REMARK    2  A    between atoms: C_8  and  N_11
REMARK    3  A    between atoms: C_19  and  C_21
REMARK    4  A    between atoms: C_21  and  C_24
REMARK    5  A    between atoms: C_40  and  C_42
REMARK                            x       y       z     vdW  Elec       q    Type
REMARK                         _______ _______ _______ _____ _____    ______ ____
ROOT
ATOM      1  C   UNL     1       9.239   0.179  24.560  0.00  0.00    +0.000 C 
ATOM      2  O   UNL     1      10.426  -0.130  25.064  0.00  0.00    +0.000 OA
ATOM      3  N   UNL     1       9.350   0.483  23.315  0.00  0.00    +0.000 N 
ATOM      4  C   UNL     1       8.737   1.666  22.633  0.00  0.00    +0.000 C 
ATOM      5  C   UNL     1       8.346   1.442  21.396  0.00  0.00    +0.000 A 
ATOM      6  C   UNL     1       6.924   1.947  21.286  0.00  0.00    +0.000 A 
ATOM      7  C   UNL     1       5.955   1.734  20.168  0.00  0.00    +0.000 A 
ATOM      8  C   UNL     1       6.600   0.615  19.375  0.00  0.00    +0.000 A 
ATOM      9  C   UNL     1       7.786  -0.164  19.417  0.00  0.00    +0.000 A 
ATOM     10  C   UNL     1       8.294   0.023  20.832  0.00  0.00    +0.000 A 
ATOM     11  C   UNL     1       8.904  -0.990  21.564  0.00  0.00    +0.000 C 
ATOM     12  C   UNL     1      10.093  -0.371  22.361  0.00  0.00    +0.000 C 
ENDROOT
BRANCH  11  13
ATOM     13  C   UNL     1       8.100  -1.715  22.678  0.00  0.00    +0.000 A 
ATOM     14  C   UNL     1       6.693  -1.676  22.139  0.00  0.00    +0.000 A 
ATOM     15  C   UNL     1       5.807  -2.795  21.729  0.00  0.00    +0.000 A 
ATOM     16  C   UNL     1       6.585  -4.041  22.094  0.00  0.00    +0.000 A 
ATOM     17  C   UNL     1       7.830  -4.441  22.562  0.00  0.00    +0.000 A 
ATOM     18  C   UNL     1       8.501  -3.078  23.037  0.00  0.00    +0.000 A 
ENDBRANCH  11  13
BRANCH   1  19
ATOM     19  C   UNL     1       8.207   0.373  25.555  0.00  0.00    +0.000 C 
BRANCH  19  24
ATOM     20  N   UNL     1       5.509  -0.400  26.404  0.00  0.00    +0.000 NA
ATOM     21  C   UNL     1       4.929   0.561  27.240  0.00  0.00    +0.000 C 
ATOM     22  C   UNL     1       5.508   1.932  26.993  0.00  0.00    +0.000 C 
ATOM     23  O   UNL     1       6.642   2.008  26.310  0.00  0.00    +0.000 OA
ATOM     24  C   UNL     1       6.976   1.141  25.314  0.00  0.00    +0.000 C 
ATOM     25  C   UNL     1       5.796   0.140  25.166  0.00  0.00    +0.000 C 
BRANCH  20  26
ATOM     26  C   UNL     1       5.633  -1.623  26.853  0.00  0.00    +0.000 C 
BRANCH  26  30
ATOM     27  C   UNL     1       6.331  -5.709  26.286  0.00  0.00    +0.000 A 
ATOM     28  C   UNL     1       5.200  -4.906  25.670  0.00  0.00    +0.000 A 
ATOM     29  C   UNL     1       5.187  -3.514  25.288  0.00  0.00    +0.000 A 
ATOM     30  C   UNL     1       6.377  -2.711  26.025  0.00  0.00    +0.000 A 
ATOM     31  C   UNL     1       7.576  -3.357  26.453  0.00  0.00    +0.000 A 
ATOM     32  C   UNL     1       7.416  -4.896  26.821  0.00  0.00    +0.000 A 
ENDBRANCH  26  30
ENDBRANCH  20  26
ENDBRANCH  19  24
ENDBRANCH   1  19
TORSDOF 5
ENDMDL
MODEL 4
REMARK VINA RESULT:      -8.4      1.716      2.760
REMARK  Name = 
REMARK  5 active torsions:
REMARK  status: ('A' for Active; 'I' for Inactive)
REMARK    1  A    between atoms: C_7  and  C_8
REMARK    2  A    between atoms: C_8  and  N_11
REMARK    3  A    between atoms: C_19  and  C_21
REMARK    4  A    between atoms: C_21  and  C_24
REMARK    5  A    between atoms: C_40  and  C_42
REMARK                            x       y       z     vdW  Elec       q    Type
REMARK                         _______ _______ _______ _____ _____    ______ ____
ROOT
ATOM      1  C   UNL     1       7.825  -2.522  23.347  0.00  0.00    +0.000 C 
ATOM      2  O   UNL     1       8.108  -3.721  22.856  0.00  0.00    +0.000 OA
ATOM      3  N   UNL     1       8.844  -1.746  23.240  0.00  0.00    +0.000 N 
ATOM      4  C   UNL     1       9.395  -0.854  24.309  0.00  0.00    +0.000 C 
ATOM      5  C   UNL     1       9.880   0.289  23.871  0.00  0.00    +0.000 A 
ATOM      6  C   UNL     1       9.268   1.381  24.720  0.00  0.00    +0.000 A 
ATOM      7  C   UNL     1       9.314   2.858  24.498  0.00  0.00    +0.000 A 
ATOM      8  C   UNL     1       9.789   2.964  23.062  0.00  0.00    +0.000 A 
ATOM      9  C   UNL     1      10.187   2.095  22.012  0.00  0.00    +0.000 A 
ATOM     10  C   UNL     1       9.642   0.745  22.432  0.00  0.00    +0.000 A 
ATOM     11  C   UNL     1       9.126  -0.182  21.534  0.00  0.00    +0.000 C 
ATOM     12  C   UNL     1       9.595  -1.604  21.972  0.00  0.00    +0.000 C 
ENDROOT
BRANCH  11  13
ATOM     13  C   UNL     1       7.586  -0.361  21.424  0.00  0.00    +0.000 A 
ATOM     14  C   UNL     1       7.072   0.981  21.879  0.00  0.00    +0.000 A 
ATOM     15  C   UNL     1       6.314   2.008  21.121  0.00  0.00    +0.000 A 
ATOM     16  C   UNL     1       6.040   1.359  19.782  0.00  0.00    +0.000 A 
ATOM     17  C   UNL     1       6.347   0.221  19.048  0.00  0.00    +0.000 A 
ATOM     18  C   UNL     1       7.031  -0.736  20.121  0.00  0.00    +0.000 A 
ENDBRANCH  11  13
BRANCH   1  19
ATOM     19  C   UNL     1       6.597  -2.471  24.109  0.00  0.00    +0.000 C 
BRANCH  19  24
ATOM     20  N   UNL     1       6.107  -5.120  25.267  0.00  0.00    +0.000 NA
ATOM     21  C   UNL     1       7.148  -5.522  26.111  0.00  0.00    +0.000 C 
ATOM     22  C   UNL     1       7.883  -4.337  26.688  0.00  0.00    +0.000 C 
ATOM     23  O   UNL     1       7.694  -3.157  26.114  0.00  0.00    +0.000 OA
ATOM     24  C   UNL     1       6.515  -2.781  25.545  0.00  0.00    +0.000 C 
ATOM     25  C   UNL     1       5.521  -3.961  25.734  0.00  0.00    +0.000 C 
BRANCH  20  26
ATOM     26  C   UNL     1       5.801  -5.884  24.249  0.00  0.00    +0.000 C 
BRANCH  26  30
ATOM     27  C   UNL     1       1.686  -5.672  24.974  0.00  0.00    +0.000 A 
ATOM     28  C   UNL     1       2.390  -5.228  23.706  0.00  0.00    +0.000 A 
ATOM     29  C   UNL     1       3.588  -5.763  23.104  0.00  0.00    +0.000 A 
ATOM     30  C   UNL     1       4.430  -6.619  24.181  0.00  0.00    +0.000 A 
ATOM     31  C   UNL     1       3.810  -7.253  25.300  0.00  0.00    +0.000 A 
ATOM     32  C   UNL     1       2.489  -6.540  25.828  0.00  0.00    +0.000 A 
ENDBRANCH  26  30
ENDBRANCH  20  26
ENDBRANCH  19  24
ENDBRANCH   1  19
TORSDOF 5
ENDMDL
MODEL 5
REMARK VINA RESULT:      -8.3      1.392      2.735
REMARK  Name = 
REMARK  5 active torsions:
REMARK  status: ('A' for Active; 'I' for Inactive)
REMARK    1  A    between atoms: C_7  and  C_8
REMARK    2  A    between atoms: C_8  and  N_11
REMARK    3  A    between atoms: C_19  and  C_21
REMARK    4  A    between atoms: C_21  and  C_24
REMARK    5  A    between atoms: C_40  and  C_42
REMARK                            x       y       z     vdW  Elec       q    Type
REMARK                         _______ _______ _______ _____ _____    ______ ____
ROOT
ATOM      1  C   UNL     1       9.541  -1.298  23.001  0.00  0.00    +0.000 C 
ATOM      2  O   UNL     1      10.581  -1.833  22.374  0.00  0.00    +0.000 OA
ATOM      3  N   UNL     1       9.759  -0.054  23.241  0.00  0.00    +0.000 N 
ATOM      4  C   UNL     1       9.522   0.653  24.539  0.00  0.00    +0.000 C 
ATOM      5  C   UNL     1       9.109   1.897  24.416  0.00  0.00    +0.000 A 
ATOM      6  C   UNL     1       7.892   2.046  25.302  0.00  0.00    +0.000 A 
ATOM      7  C   UNL     1       6.925   3.184  25.356  0.00  0.00    +0.000 A 
ATOM      8  C   UNL     1       7.241   3.951  24.088  0.00  0.00    +0.000 A 
ATOM      9  C   UNL     1       8.155   3.874  23.005  0.00  0.00    +0.000 A 
ATOM     10  C   UNL     1       8.667   2.449  23.062  0.00  0.00    +0.000 A 
ATOM     11  C   UNL     1       8.948   1.694  21.929  0.00  0.00    +0.000 C 
ATOM     12  C   UNL     1      10.248   0.874  22.197  0.00  0.00    +0.000 C 
ENDROOT
BRANCH  11  13
ATOM     13  C   UNL     1       7.949   0.592  21.479  0.00  0.00    +0.000 A 
ATOM     14  C   UNL     1       6.628   1.318  21.519  0.00  0.00    +0.000 A 
ATOM     15  C   UNL     1       5.698   1.647  20.410  0.00  0.00    +0.000 A 
ATOM     16  C   UNL     1       6.303   0.969  19.200  0.00  0.00    +0.000 A 
ATOM     17  C   UNL     1       7.438   0.272  18.804  0.00  0.00    +0.000 A 
ATOM     18  C   UNL     1       8.172  -0.048  20.180  0.00  0.00    +0.000 A 
ENDBRANCH  11  13
BRANCH   1  19
ATOM     19  C   UNL     1       8.587  -2.266  23.495  0.00  0.00    +0.000 C 
BRANCH  19  24
ATOM     20  N   UNL     1       6.928  -4.542  24.312  0.00  0.00    +0.000 NA
ATOM     21  C   UNL     1       5.564  -4.287  24.126  0.00  0.00    +0.000 C 
ATOM     22  C   UNL     1       5.335  -3.265  23.041  0.00  0.00    +0.000 C 
ATOM     23  O   UNL     1       6.371  -2.535  22.653  0.00  0.00    +0.000 OA
ATOM     24  C   UNL     1       7.651  -3.002  22.632  0.00  0.00    +0.000 C 
ATOM     25  C   UNL     1       7.604  -4.480  23.110  0.00  0.00    +0.000 C 
BRANCH  20  26
ATOM     26  C   UNL     1       7.345  -4.852  25.514  0.00  0.00    +0.000 C 
BRANCH  26  30
ATOM     27  C   UNL     1       4.934  -2.065  27.496  0.00  0.00    +0.000 A 
ATOM     28  C   UNL     1       4.971  -3.559  27.762  0.00  0.00    +0.000 A 
ATOM     29  C   UNL     1       6.083  -4.471  27.631  0.00  0.00    +0.000 A 
ATOM     30  C   UNL     1       7.229  -3.838  26.689  0.00  0.00    +0.000 A 
ATOM     31  C   UNL     1       7.400  -2.427  26.545  0.00  0.00    +0.000 A 
ATOM     32  C   UNL     1       6.075  -1.568  26.736  0.00  0.00    +0.000 A 
ENDBRANCH  26  30
ENDBRANCH  20  26
ENDBRANCH  19  24
ENDBRANCH   1  19
TORSDOF 5
ENDMDL
MODEL 6
REMARK VINA RESULT:      -8.1      2.242      4.202
REMARK  Name = 
REMARK  5 active torsions:
REMARK  status: ('A' for Active; 'I' for Inactive)
REMARK    1  A    between atoms: C_7  and  C_8
REMARK    2  A    between atoms: C_8  and  N_11
REMARK    3  A    between atoms: C_19  and  C_21
REMARK    4  A    between atoms: C_21  and  C_24
REMARK    5  A    between atoms: C_40  and  C_42
REMARK                            x       y       z     vdW  Elec       q    Type
REMARK                         _______ _______ _______ _____ _____    ______ ____
ROOT
ATOM      1  C   UNL     1       8.235  -2.627  26.028  0.00  0.00    +0.000 C 
ATOM      2  O   UNL     1       8.919  -3.580  26.647  0.00  0.00    +0.000 OA
ATOM      3  N   UNL     1       8.989  -2.018  25.182  0.00  0.00    +0.000 N 
ATOM      4  C   UNL     1       9.109  -0.536  25.009  0.00  0.00    +0.000 C 
ATOM      5  C   UNL     1       9.292  -0.144  23.765  0.00  0.00    +0.000 A 
ATOM      6  C   UNL     1       8.281   0.948  23.495  0.00  0.00    +0.000 A 
ATOM      7  C   UNL     1       7.924   1.569  22.183  0.00  0.00    +0.000 A 
ATOM      8  C   UNL     1       8.533   0.607  21.182  0.00  0.00    +0.000 A 
ATOM      9  C   UNL     1       9.303  -0.585  21.193  0.00  0.00    +0.000 A 
ATOM     10  C   UNL     1       9.125  -1.119  22.601  0.00  0.00    +0.000 A 
ATOM     11  C   UNL     1       9.025  -2.473  22.896  0.00  0.00    +0.000 C 
ATOM     12  C   UNL     1       9.827  -2.750  24.206  0.00  0.00    +0.000 C 
ENDROOT
BRANCH  11  13
ATOM     13  C   UNL     1       7.634  -3.082  23.225  0.00  0.00    +0.000 A 
ATOM     14  C   UNL     1       6.718  -2.300  22.318  0.00  0.00    +0.000 A 
ATOM     15  C   UNL     1       5.888  -2.771  21.180  0.00  0.00    +0.000 A 
ATOM     16  C   UNL     1       6.056  -4.275  21.192  0.00  0.00    +0.000 A 
ATOM     17  C   UNL     1       6.779  -5.278  21.824  0.00  0.00    +0.000 A 
ATOM     18  C   UNL     1       7.458  -4.526  23.052  0.00  0.00    +0.000 A 
ENDBRANCH  11  13
BRANCH   1  19
ATOM     19  C   UNL     1       6.956  -2.329  26.633  0.00  0.00    +0.000 C 
BRANCH  19  24
ATOM     20  N   UNL     1       4.081  -2.043  26.136  0.00  0.00    +0.000 NA
ATOM     21  C   UNL     1       3.457  -1.262  27.115  0.00  0.00    +0.000 C 
ATOM     22  C   UNL     1       4.426  -0.301  27.758  0.00  0.00    +0.000 C 
ATOM     23  O   UNL     1       5.721  -0.520  27.579  0.00  0.00    +0.000 OA
ATOM     24  C   UNL     1       6.239  -1.060  26.440  0.00  0.00    +0.000 C 
ATOM     25  C   UNL     1       5.048  -1.313  25.474  0.00  0.00    +0.000 C 
BRANCH  20  26
ATOM     26  C   UNL     1       3.647  -3.262  25.943  0.00  0.00    +0.000 C 
BRANCH  26  30
ATOM     27  C   UNL     1       3.683  -7.008  24.079  0.00  0.00    +0.000 A 
ATOM     28  C   UNL     1       3.138  -5.723  23.484  0.00  0.00    +0.000 A 
ATOM     29  C   UNL     1       3.580  -4.367  23.707  0.00  0.00    +0.000 A 
ATOM     30  C   UNL     1       4.446  -4.269  25.064  0.00  0.00    +0.000 A 
ATOM     31  C   UNL     1       5.168  -5.385  25.587  0.00  0.00    +0.000 A 
ATOM     32  C   UNL     1       4.551  -6.808  25.233  0.00  0.00    +0.000 A 
ENDBRANCH  26  30
ENDBRANCH  20  26
ENDBRANCH  19  24
ENDBRANCH   1  19
TORSDOF 5
ENDMDL
MODEL 7
REMARK VINA RESULT:      -8.1      1.142      2.277
REMARK  Name = 
REMARK  5 active torsions:
REMARK  status: ('A' for Active; 'I' for Inactive)
REMARK    1  A    between atoms: C_7  and  C_8
REMARK    2  A    between atoms: C_8  and  N_11
REMARK    3  A    between atoms: C_19  and  C_21
REMARK    4  A    between atoms: C_21  and  C_24
REMARK    5  A    between atoms: C_40  and  C_42
REMARK                            x       y       z     vdW  Elec       q    Type
REMARK                         _______ _______ _______ _____ _____    ______ ____
ROOT
ATOM      1  C   UNL     1       9.847  -1.156  23.025  0.00  0.00    +0.000 C 
ATOM      2  O   UNL     1      10.850  -1.674  22.327  0.00  0.00    +0.000 OA
ATOM      3  N   UNL     1      10.041   0.100  23.216  0.00  0.00    +0.000 N 
ATOM      4  C   UNL     1       9.888   0.834  24.512  0.00  0.00    +0.000 C 
ATOM      5  C   UNL     1       9.423   2.060  24.394  0.00  0.00    +0.000 A 
ATOM      6  C   UNL     1       8.280   2.193  25.375  0.00  0.00    +0.000 A 
ATOM      7  C   UNL     1       7.281   3.300  25.482  0.00  0.00    +0.000 A 
ATOM      8  C   UNL     1       7.464   4.043  24.175  0.00  0.00    +0.000 A 
ATOM      9  C   UNL     1       8.288   3.967  23.020  0.00  0.00    +0.000 A 
ATOM     10  C   UNL     1       8.851   2.561  23.069  0.00  0.00    +0.000 A 
ATOM     11  C   UNL     1       9.064   1.785  21.935  0.00  0.00    +0.000 C 
ATOM     12  C   UNL     1      10.410   1.016  22.112  0.00  0.00    +0.000 C 
ENDROOT
BRANCH  11  13
ATOM     13  C   UNL     1       8.070   0.640  21.597  0.00  0.00    +0.000 A 
ATOM     14  C   UNL     1       6.737   1.343  21.650  0.00  0.00    +0.000 A 
ATOM     15  C   UNL     1       5.754   1.585  20.565  0.00  0.00    +0.000 A 
ATOM     16  C   UNL     1       6.322   0.846  19.373  0.00  0.00    +0.000 A 
ATOM     17  C   UNL     1       7.453   0.146  18.971  0.00  0.00    +0.000 A 
ATOM     18  C   UNL     1       8.251  -0.075  20.331  0.00  0.00    +0.000 A 
ENDBRANCH  11  13
BRANCH   1  19
ATOM     19  C   UNL     1       8.972  -2.142  23.620  0.00  0.00    +0.000 C 
BRANCH  19  24
ATOM     20  N   UNL     1       7.216  -4.051  24.987  0.00  0.00    +0.000 NA
ATOM     21  C   UNL     1       7.787  -5.328  25.056  0.00  0.00    +0.000 C 
ATOM     22  C   UNL     1       9.293  -5.265  25.008  0.00  0.00    +0.000 C 
ATOM     23  O   UNL     1       9.850  -4.133  24.598  0.00  0.00    +0.000 OA
ATOM     24  C   UNL     1       9.309  -2.905  24.832  0.00  0.00    +0.000 C 
ATOM     25  C   UNL     1       8.004  -3.129  25.646  0.00  0.00    +0.000 C 
BRANCH  20  26
ATOM     26  C   UNL     1       6.053  -3.921  24.402  0.00  0.00    +0.000 C 
BRANCH  26  30
ATOM     27  C   UNL     1       5.611  -0.203  26.269  0.00  0.00    +0.000 A 
ATOM     28  C   UNL     1       5.981  -0.430  24.815  0.00  0.00    +0.000 A 
ATOM     29  C   UNL     1       5.590  -1.513  23.944  0.00  0.00    +0.000 A 
ATOM     30  C   UNL     1       5.077  -2.777  24.804  0.00  0.00    +0.000 A 
ATOM     31  C   UNL     1       4.516  -2.630  26.110  0.00  0.00    +0.000 A 
ATOM     32  C   UNL     1       5.045  -1.373  26.929  0.00  0.00    +0.000 A 
ENDBRANCH  26  30
ENDBRANCH  20  26
ENDBRANCH  19  24
ENDBRANCH   1  19
TORSDOF 5
ENDMDL
MODEL 8
REMARK VINA RESULT:      -7.8      2.401      4.659
REMARK  Name = 
REMARK  5 active torsions:
REMARK  status: ('A' for Active; 'I' for Inactive)
REMARK    1  A    between atoms: C_7  and  C_8
REMARK    2  A    between atoms: C_8  and  N_11
REMARK    3  A    between atoms: C_19  and  C_21
REMARK    4  A    between atoms: C_21  and  C_24
REMARK    5  A    between atoms: C_40  and  C_42
REMARK                            x       y       z     vdW  Elec       q    Type
REMARK                         _______ _______ _______ _____ _____    ______ ____
ROOT
ATOM      1  C   UNL     1       8.043  -3.451  26.295  0.00  0.00    +0.000 C 
ATOM      2  O   UNL     1       8.870  -4.305  26.885  0.00  0.00    +0.000 OA
ATOM      3  N   UNL     1       8.698  -2.670  25.512  0.00  0.00    +0.000 N 
ATOM      4  C   UNL     1       8.557  -1.181  25.424  0.00  0.00    +0.000 C 
ATOM      5  C   UNL     1       8.700  -0.689  24.211  0.00  0.00    +0.000 A 
ATOM      6  C   UNL     1       7.518   0.222  23.966  0.00  0.00    +0.000 A 
ATOM      7  C   UNL     1       7.089   0.849  22.678  0.00  0.00    +0.000 A 
ATOM      8  C   UNL     1       7.883   0.072  21.648  0.00  0.00    +0.000 A 
ATOM      9  C   UNL     1       8.852  -0.966  21.621  0.00  0.00    +0.000 A 
ATOM     10  C   UNL     1       8.737  -1.606  22.990  0.00  0.00    +0.000 A 
ATOM     11  C   UNL     1       8.871  -2.973  23.207  0.00  0.00    +0.000 C 
ATOM     12  C   UNL     1       9.676  -3.183  24.527  0.00  0.00    +0.000 C 
ENDROOT
BRANCH  11  13
ATOM     13  C   UNL     1       7.602  -3.834  23.452  0.00  0.00    +0.000 A 
ATOM     14  C   UNL     1       6.566  -3.130  22.613  0.00  0.00    +0.000 A 
ATOM     15  C   UNL     1       5.826  -3.618  21.422  0.00  0.00    +0.000 A 
ATOM     16  C   UNL     1       6.244  -5.066  21.288  0.00  0.00    +0.000 A 
ATOM     17  C   UNL     1       7.126  -5.993  21.829  0.00  0.00    +0.000 A 
ATOM     18  C   UNL     1       7.671  -5.263  23.135  0.00  0.00    +0.000 A 
ENDBRANCH  11  13
BRANCH   1  19
ATOM     19  C   UNL     1       6.717  -3.419  26.871  0.00  0.00    +0.000 C 
BRANCH  19  24
ATOM     20  N   UNL     1       3.814  -3.811  26.993  0.00  0.00    +0.000 NA
ATOM     21  C   UNL     1       3.198  -2.887  27.845  0.00  0.00    +0.000 C 
ATOM     22  C   UNL     1       4.007  -1.620  27.967  0.00  0.00    +0.000 C 
ATOM     23  O   UNL     1       5.268  -1.653  27.558  0.00  0.00    +0.000 OA
ATOM     24  C   UNL     1       5.699  -2.419  26.518  0.00  0.00    +0.000 C 
ATOM     25  C   UNL     1       4.456  -3.165  25.956  0.00  0.00    +0.000 C 
BRANCH  20  26
ATOM     26  C   UNL     1       3.654  -5.087  27.239  0.00  0.00    +0.000 C 
BRANCH  26  30
ATOM     27  C   UNL     1       3.326  -6.086  23.189  0.00  0.00    +0.000 A 
ATOM     28  C   UNL     1       4.381  -6.601  24.150  0.00  0.00    +0.000 A 
ATOM     29  C   UNL     1       4.270  -6.836  25.570  0.00  0.00    +0.000 A 
ATOM     30  C   UNL     1       3.012  -6.033  26.182  0.00  0.00    +0.000 A 
ATOM     31  C   UNL     1       1.874  -5.688  25.391  0.00  0.00    +0.000 A 
ATOM     32  C   UNL     1       2.171  -5.481  23.842  0.00  0.00    +0.000 A 
ENDBRANCH  26  30
ENDBRANCH  20  26
ENDBRANCH  19  24
ENDBRANCH   1  19
TORSDOF 5
ENDMDL
MODEL 9
REMARK VINA RESULT:      -7.8      1.647      2.561
REMARK  Name = 
REMARK  5 active torsions:
REMARK  status: ('A' for Active; 'I' for Inactive)
REMARK    1  A    between atoms: C_7  and  C_8
REMARK    2  A    between atoms: C_8  and  N_11
REMARK    3  A    between atoms: C_19  and  C_21
REMARK    4  A    between atoms: C_21  and  C_24
REMARK    5  A    between atoms: C_40  and  C_42
REMARK                            x       y       z     vdW  Elec       q    Type
REMARK                         _______ _______ _______ _____ _____    ______ ____
ROOT
ATOM      1  C   UNL     1       9.112  -1.857  23.821  0.00  0.00    +0.000 C 
ATOM      2  O   UNL     1       9.978  -2.786  23.438  0.00  0.00    +0.000 OA
ATOM      3  N   UNL     1       9.697  -0.716  23.915  0.00  0.00    +0.000 N 
ATOM      4  C   UNL     1       9.576   0.251  25.052  0.00  0.00    +0.000 C 
ATOM      5  C   UNL     1       9.602   1.519  24.696  0.00  0.00    +0.000 A 
ATOM      6  C   UNL     1       8.419   2.186  25.360  0.00  0.00    +0.000 A 
ATOM      7  C   UNL     1       7.872   3.555  25.110  0.00  0.00    +0.000 A 
ATOM      8  C   UNL     1       8.543   3.949  23.809  0.00  0.00    +0.000 A 
ATOM      9  C   UNL     1       9.484   3.404  22.896  0.00  0.00    +0.000 A 
ATOM     10  C   UNL     1       9.498   1.925  23.227  0.00  0.00    +0.000 A 
ATOM     11  C   UNL     1       9.628   0.930  22.266  0.00  0.00    +0.000 C 
ATOM     12  C   UNL     1      10.560  -0.184  22.837  0.00  0.00    +0.000 C 
ENDROOT
BRANCH  11  13
ATOM     13  C   UNL     1       8.375   0.122  21.830  0.00  0.00    +0.000 A 
ATOM     14  C   UNL     1       7.265   1.125  22.012  0.00  0.00    +0.000 A 
ATOM     15  C   UNL     1       6.371   1.738  20.997  0.00  0.00    +0.000 A 
ATOM     16  C   UNL     1       6.728   1.033  19.707  0.00  0.00    +0.000 A 
ATOM     17  C   UNL     1       7.644   0.127  19.187  0.00  0.00    +0.000 A 
ATOM     18  C   UNL     1       8.365  -0.454  20.482  0.00  0.00    +0.000 A 
ENDBRANCH  11  13
BRANCH   1  19
ATOM     19  C   UNL     1       7.852  -2.385  24.297  0.00  0.00    +0.000 C 
BRANCH  19  24
ATOM     20  N   UNL     1       5.193  -3.469  23.708  0.00  0.00    +0.000 NA
ATOM     21  C   UNL     1       4.305  -3.284  24.774  0.00  0.00    +0.000 C 
ATOM     22  C   UNL     1       4.699  -2.102  25.624  0.00  0.00    +0.000 C 
ATOM     23  O   UNL     1       5.925  -1.619  25.477  0.00  0.00    +0.000 OA
ATOM     24  C   UNL     1       6.594  -1.623  24.290  0.00  0.00    +0.000 C 
ATOM     25  C   UNL     1       5.646  -2.254  23.234  0.00  0.00    +0.000 C 
BRANCH  20  26
ATOM     26  C   UNL     1       5.410  -4.688  23.283  0.00  0.00    +0.000 C 
BRANCH  26  30
ATOM     27  C   UNL     1       4.872  -6.637  26.947  0.00  0.00    +0.000 A 
ATOM     28  C   UNL     1       4.198  -7.003  25.637  0.00  0.00    +0.000 A 
ATOM     29  C   UNL     1       4.703  -6.857  24.292  0.00  0.00    +0.000 A 
ATOM     30  C   UNL     1       5.917  -5.796  24.252  0.00  0.00    +0.000 A 
ATOM     31  C   UNL     1       6.742  -5.543  25.390  0.00  0.00    +0.000 A 
ATOM     32  C   UNL     1       6.032  -5.767  26.797  0.00  0.00    +0.000 A 
ENDBRANCH  26  30
ENDBRANCH  20  26
ENDBRANCH  19  24
ENDBRANCH   1  19
TORSDOF 5
ENDMDL
