MODEL 1
REMARK VINA RESULT:      -8.8      0.000      0.000
REMARK  Name = 
REMARK  6 active torsions:
REMARK  status: ('A' for Active; 'I' for Inactive)
REMARK    1  A    between atoms: O_2  and  C_3
REMARK    2  A    between atoms: N_14  and  C_15
REMARK    3  A    between atoms: C_15  and  C_18
REMARK    4  A    between atoms: C_29  and  C_31
REMARK    5  A    between atoms: C_31  and  C_34
REMARK    6  A    between atoms: C_50  and  C_52
REMARK                            x       y       z     vdW  Elec       q    Type
REMARK                         _______ _______ _______ _____ _____    ______ ____
ROOT
ATOM      1  C   UNL     1       9.706  -2.192  23.328  0.00  0.00    +0.000 C 
ATOM      2  O   UNL     1      10.770  -1.869  22.717  0.00  0.00    +0.000 OA
ATOM      3  N   UNL     1       8.935  -1.068  23.681  0.00  0.00    +0.000 N 
ATOM      4  C   UNL     1       9.573  -0.131  24.626  0.00  0.00    +0.000 C 
ATOM      5  C   UNL     1       9.303   1.161  24.541  0.00  0.00    +0.000 A 
ATOM      6  C   UNL     1      10.648   1.859  24.108  0.00  0.00    +0.000 A 
ATOM      7  C   UNL     1      10.786   3.124  23.393  0.00  0.00    +0.000 A 
ATOM      8  C   UNL     1       9.369   3.595  23.165  0.00  0.00    +0.000 A 
ATOM      9  C   UNL     1       8.065   3.137  23.416  0.00  0.00    +0.000 A 
ATOM     10  C   UNL     1       8.165   1.654  23.709  0.00  0.00    +0.000 A 
ATOM     11  C   UNL     1       7.473   0.783  22.750  0.00  0.00    +0.000 C 
ATOM     12  C   UNL     1       8.358  -0.494  22.484  0.00  0.00    +0.000 C 
ENDROOT
BRANCH  11  13
ATOM     13  C   UNL     1       7.307   1.314  21.381  0.00  0.00    +0.000 A 
ATOM     14  C   UNL     1       8.073   0.492  20.411  0.00  0.00    +0.000 A 
ATOM     15  C   UNL     1       7.602   0.031  19.082  0.00  0.00    +0.000 A 
ATOM     16  C   UNL     1       6.196   0.539  18.945  0.00  0.00    +0.000 A 
ATOM     17  C   UNL     1       5.315   1.407  19.654  0.00  0.00    +0.000 A 
ATOM     18  C   UNL     1       6.143   1.977  20.803  0.00  0.00    +0.000 A 
ENDBRANCH  11  13
BRANCH   1  19
ATOM     19  C   UNL     1       9.764  -3.334  24.296  0.00  0.00    +0.000 C 
BRANCH  19  25
ATOM     20  C   UNL     1       8.218  -3.303  26.233  0.00  0.00    +0.000 C 
ATOM     21  C   UNL     1       6.873  -3.623  26.822  0.00  0.00    +0.000 C 
ATOM     22  C   UNL     1       6.235  -4.770  26.078  0.00  0.00    +0.000 C 
ATOM     23  C   UNL     1       7.382  -5.718  25.678  0.00  0.00    +0.000 C 
ATOM     24  N   UNL     1       8.197  -5.201  24.646  0.00  0.00    +0.000 NA
ATOM     25  C   UNL     1       8.435  -3.820  24.819  0.00  0.00    +0.000 C 
BRANCH  20  27
ATOM     26  H   UNL     1      10.069  -3.615  26.712  0.00  0.00    +0.000 HD
ATOM     27  O   UNL     1       9.226  -3.690  27.076  0.00  0.00    +0.000 OA
ENDBRANCH  20  27
BRANCH  24  28
ATOM     28  C   UNL     1       7.859  -5.594  23.337  0.00  0.00    +0.000 C 
BRANCH  28  29
ATOM     29  C   UNL     1       6.959  -5.023  22.467  0.00  0.00    +0.000 A 
ATOM     30  C   UNL     1       5.782  -5.913  22.485  0.00  0.00    +0.000 A 
ATOM     31  C   UNL     1       4.373  -5.671  22.992  0.00  0.00    +0.000 A 
ATOM     32  C   UNL     1       4.319  -4.183  23.102  0.00  0.00    +0.000 A 
ATOM     33  C   UNL     1       5.234  -3.129  22.811  0.00  0.00    +0.000 A 
ATOM     34  C   UNL     1       6.461  -3.707  22.195  0.00  0.00    +0.000 A 
ENDBRANCH  28  29
ENDBRANCH  24  28
ENDBRANCH  19  25
ENDBRANCH   1  19
TORSDOF 6
ENDMDL
MODEL 2
REMARK VINA RESULT:      -7.9      2.031      6.677
REMARK  Name = 
REMARK  6 active torsions:
REMARK  status: ('A' for Active; 'I' for Inactive)
REMARK    1  A    between atoms: O_2  and  C_3
REMARK    2  A    between atoms: N_14  and  C_15
REMARK    3  A    between atoms: C_15  and  C_18
REMARK    4  A    between atoms: C_29  and  C_31
REMARK    5  A    between atoms: C_31  and  C_34
REMARK    6  A    between atoms: C_50  and  C_52
REMARK                            x       y       z     vdW  Elec       q    Type
REMARK                         _______ _______ _______ _____ _____    ______ ____
ROOT
ATOM      1  C   UNL     1       6.251  -0.642  24.455  0.00  0.00    +0.000 C 
ATOM      2  O   UNL     1       5.038  -0.870  24.750  0.00  0.00    +0.000 OA
ATOM      3  N   UNL     1       7.110  -1.654  24.924  0.00  0.00    +0.000 N 
ATOM      4  C   UNL     1       7.164  -1.814  26.390  0.00  0.00    +0.000 C 
ATOM      5  C   UNL     1       7.366  -3.016  26.903  0.00  0.00    +0.000 A 
ATOM      6  C   UNL     1       6.037  -3.392  27.664  0.00  0.00    +0.000 A 
ATOM      7  C   UNL     1       5.540  -4.736  27.943  0.00  0.00    +0.000 A 
ATOM      8  C   UNL     1       6.570  -5.661  27.341  0.00  0.00    +0.000 A 
ATOM      9  C   UNL     1       7.766  -5.557  26.611  0.00  0.00    +0.000 A 
ATOM     10  C   UNL     1       7.819  -4.151  26.047  0.00  0.00    +0.000 A 
ATOM     11  C   UNL     1       7.803  -4.069  24.581  0.00  0.00    +0.000 C 
ATOM     12  C   UNL     1       6.897  -2.855  24.144  0.00  0.00    +0.000 C 
ENDROOT
BRANCH  11  13
ATOM     13  C   UNL     1       7.154  -5.189  23.866  0.00  0.00    +0.000 A 
ATOM     14  C   UNL     1       5.677  -5.067  23.945  0.00  0.00    +0.000 A 
ATOM     15  C   UNL     1       4.714  -5.278  22.836  0.00  0.00    +0.000 A 
ATOM     16  C   UNL     1       5.546  -5.605  21.629  0.00  0.00    +0.000 A 
ATOM     17  C   UNL     1       6.912  -5.884  21.333  0.00  0.00    +0.000 A 
ATOM     18  C   UNL     1       7.625  -5.900  22.683  0.00  0.00    +0.000 A 
ENDBRANCH  11  13
BRANCH   1  19
ATOM     19  C   UNL     1       6.739   0.774  24.511  0.00  0.00    +0.000 C 
BRANCH  19  25
ATOM     20  C   UNL     1       9.107   1.504  24.453  0.00  0.00    +0.000 C 
ATOM     21  C   UNL     1      10.370   1.743  23.675  0.00  0.00    +0.000 C 
ATOM     22  C   UNL     1      10.050   1.993  22.222  0.00  0.00    +0.000 C 
ATOM     23  C   UNL     1       8.721   2.771  22.199  0.00  0.00    +0.000 C 
ATOM     24  N   UNL     1       7.604   1.978  22.545  0.00  0.00    +0.000 NA
ATOM     25  C   UNL     1       7.905   1.103  23.612  0.00  0.00    +0.000 C 
BRANCH  20  27
ATOM     26  H   UNL     1       8.332   2.349  26.014  0.00  0.00    +0.000 HD
ATOM     27  O   UNL     1       8.825   2.569  25.268  0.00  0.00    +0.000 OA
ENDBRANCH  20  27
BRANCH  24  28
ATOM     28  C   UNL     1       6.901   1.398  21.472  0.00  0.00    +0.000 C 
BRANCH  28  29
ATOM     29  C   UNL     1       7.345   0.497  20.533  0.00  0.00    +0.000 A 
ATOM     30  C   UNL     1       7.031  -0.833  21.091  0.00  0.00    +0.000 A 
ATOM     31  C   UNL     1       6.054  -1.892  20.619  0.00  0.00    +0.000 A 
ATOM     32  C   UNL     1       5.764  -1.466  19.218  0.00  0.00    +0.000 A 
ATOM     33  C   UNL     1       6.226  -0.405  18.385  0.00  0.00    +0.000 A 
ATOM     34  C   UNL     1       7.282   0.357  19.108  0.00  0.00    +0.000 A 
ENDBRANCH  28  29
ENDBRANCH  24  28
ENDBRANCH  19  25
ENDBRANCH   1  19
TORSDOF 6
ENDMDL
MODEL 3
REMARK VINA RESULT:      -7.8      1.488      2.943
REMARK  Name = 
REMARK  6 active torsions:
REMARK  status: ('A' for Active; 'I' for Inactive)
REMARK    1  A    between atoms: O_2  and  C_3
REMARK    2  A    between atoms: N_14  and  C_15
REMARK    3  A    between atoms: C_15  and  C_18
REMARK    4  A    between atoms: C_29  and  C_31
REMARK    5  A    between atoms: C_31  and  C_34
REMARK    6  A    between atoms: C_50  and  C_52
REMARK                            x       y       z     vdW  Elec       q    Type
REMARK                         _______ _______ _______ _____ _____    ______ ____
ROOT
ATOM      1  C   UNL     1       8.860  -2.691  23.396  0.00  0.00    +0.000 C 
ATOM      2  O   UNL     1       9.995  -2.542  22.851  0.00  0.00    +0.000 OA
ATOM      3  N   UNL     1       8.276  -1.459  23.749  0.00  0.00    +0.000 N 
ATOM      4  C   UNL     1       9.013  -0.671  24.756  0.00  0.00    +0.000 C 
ATOM      5  C   UNL     1       8.974   0.649  24.701  0.00  0.00    +0.000 A 
ATOM      6  C   UNL     1      10.441   1.114  24.360  0.00  0.00    +0.000 A 
ATOM      7  C   UNL     1      10.834   2.353  23.696  0.00  0.00    +0.000 A 
ATOM      8  C   UNL     1       9.534   3.068  23.413  0.00  0.00    +0.000 A 
ATOM      9  C   UNL     1       8.158   2.838  23.584  0.00  0.00    +0.000 A 
ATOM     10  C   UNL     1       7.985   1.353  23.831  0.00  0.00    +0.000 A 
ATOM     11  C   UNL     1       7.208   0.640  22.810  0.00  0.00    +0.000 C 
ATOM     12  C   UNL     1       7.873  -0.764  22.544  0.00  0.00    +0.000 C 
ENDROOT
BRANCH  11  13
ATOM     13  C   UNL     1       7.211   1.226  21.452  0.00  0.00    +0.000 A 
ATOM     14  C   UNL     1       8.064   0.420  20.543  0.00  0.00    +0.000 A 
ATOM     15  C   UNL     1       7.738   0.021  19.152  0.00  0.00    +0.000 A 
ATOM     16  C   UNL     1       6.368   0.571  18.878  0.00  0.00    +0.000 A 
ATOM     17  C   UNL     1       5.432   1.436  19.516  0.00  0.00    +0.000 A 
ATOM     18  C   UNL     1       6.136   1.941  20.773  0.00  0.00    +0.000 A 
ENDBRANCH  11  13
BRANCH   1  19
ATOM     19  C   UNL     1       8.667  -3.850  24.327  0.00  0.00    +0.000 C 
BRANCH  19  25
ATOM     20  C   UNL     1       7.084  -5.271  23.056  0.00  0.00    +0.000 C 
ATOM     21  C   UNL     1       5.790  -6.034  22.995  0.00  0.00    +0.000 C 
ATOM     22  C   UNL     1       4.798  -5.461  23.976  0.00  0.00    +0.000 C 
ATOM     23  C   UNL     1       5.041  -3.940  24.000  0.00  0.00    +0.000 C 
ATOM     24  N   UNL     1       6.241  -3.577  24.651  0.00  0.00    +0.000 NA
ATOM     25  C   UNL     1       7.290  -4.466  24.331  0.00  0.00    +0.000 C 
BRANCH  20  27
ATOM     26  H   UNL     1       6.532  -3.963  21.740  0.00  0.00    +0.000 HD
ATOM     27  O   UNL     1       7.253  -4.502  21.935  0.00  0.00    +0.000 OA
ENDBRANCH  20  27
BRANCH  24  28
ATOM     28  C   UNL     1       6.129  -3.246  26.015  0.00  0.00    +0.000 C 
BRANCH  28  29
ATOM     29  C   UNL     1       6.040  -4.081  27.103  0.00  0.00    +0.000 A 
ATOM     30  C   UNL     1       4.749  -3.756  27.740  0.00  0.00    +0.000 A 
ATOM     31  C   UNL     1       3.488  -4.585  27.887  0.00  0.00    +0.000 A 
ATOM     32  C   UNL     1       3.973  -5.968  27.603  0.00  0.00    +0.000 A 
ATOM     33  C   UNL     1       5.247  -6.534  27.301  0.00  0.00    +0.000 A 
ATOM     34  C   UNL     1       6.283  -5.466  27.379  0.00  0.00    +0.000 A 
ENDBRANCH  28  29
ENDBRANCH  24  28
ENDBRANCH  19  25
ENDBRANCH   1  19
TORSDOF 6
ENDMDL
MODEL 4
REMARK VINA RESULT:      -7.7      1.775      7.437
REMARK  Name = 
REMARK  6 active torsions:
REMARK  status: ('A' for Active; 'I' for Inactive)
REMARK    1  A    between atoms: O_2  and  C_3
REMARK    2  A    between atoms: N_14  and  C_15
REMARK    3  A    between atoms: C_15  and  C_18
REMARK    4  A    between atoms: C_29  and  C_31
REMARK    5  A    between atoms: C_31  and  C_34
REMARK    6  A    between atoms: C_50  and  C_52
REMARK                            x       y       z     vdW  Elec       q    Type
REMARK                         _______ _______ _______ _____ _____    ______ ____
ROOT
ATOM      1  C   UNL     1       7.121  -1.105  24.317  0.00  0.00    +0.000 C 
ATOM      2  O   UNL     1       8.261  -1.632  24.140  0.00  0.00    +0.000 OA
ATOM      3  N   UNL     1       6.073  -1.972  23.954  0.00  0.00    +0.000 N 
ATOM      4  C   UNL     1       6.029  -2.354  22.530  0.00  0.00    +0.000 C 
ATOM      5  C   UNL     1       5.582  -3.552  22.194  0.00  0.00    +0.000 A 
ATOM      6  C   UNL     1       6.816  -4.323  21.587  0.00  0.00    +0.000 A 
ATOM      7  C   UNL     1       7.012  -5.769  21.550  0.00  0.00    +0.000 A 
ATOM      8  C   UNL     1       5.784  -6.342  22.218  0.00  0.00    +0.000 A 
ATOM      9  C   UNL     1       4.620  -5.866  22.845  0.00  0.00    +0.000 A 
ATOM     10  C   UNL     1       4.863  -4.409  23.183  0.00  0.00    +0.000 A 
ATOM     11  C   UNL     1       4.853  -4.094  24.617  0.00  0.00    +0.000 C 
ATOM     12  C   UNL     1       5.991  -3.047  24.921  0.00  0.00    +0.000 C 
ENDROOT
BRANCH  11  13
ATOM     13  C   UNL     1       5.216  -5.195  25.535  0.00  0.00    +0.000 A 
ATOM     14  C   UNL     1       6.681  -5.208  25.772  0.00  0.00    +0.000 A 
ATOM     15  C   UNL     1       7.360  -5.398  27.077  0.00  0.00    +0.000 A 
ATOM     16  C   UNL     1       6.264  -5.539  28.094  0.00  0.00    +0.000 A 
ATOM     17  C   UNL     1       4.845  -5.670  28.102  0.00  0.00    +0.000 A 
ATOM     18  C   UNL     1       4.435  -5.750  26.634  0.00  0.00    +0.000 A 
ENDBRANCH  11  13
BRANCH   1  19
ATOM     19  C   UNL     1       6.960   0.354  24.014  0.00  0.00    +0.000 C 
BRANCH  19  25
ATOM     20  C   UNL     1       9.222   1.156  24.632  0.00  0.00    +0.000 C 
ATOM     21  C   UNL     1      10.546   1.738  24.224  0.00  0.00    +0.000 C 
ATOM     22  C   UNL     1      10.402   2.521  22.942  0.00  0.00    +0.000 C 
ATOM     23  C   UNL     1       9.012   3.185  22.996  0.00  0.00    +0.000 C 
ATOM     24  N   UNL     1       7.950   2.269  22.825  0.00  0.00    +0.000 NA
ATOM     25  C   UNL     1       8.195   1.061  23.513  0.00  0.00    +0.000 C 
BRANCH  20  27
ATOM     26  H   UNL     1       8.930   2.700  25.765  0.00  0.00    +0.000 HD
ATOM     27  O   UNL     1       8.720   1.804  25.730  0.00  0.00    +0.000 OA
ENDBRANCH  20  27
BRANCH  24  28
ATOM     28  C   UNL     1       7.465   2.124  21.511  0.00  0.00    +0.000 C 
BRANCH  28  29
ATOM     29  C   UNL     1       7.044   0.986  20.865  0.00  0.00    +0.000 A 
ATOM     30  C   UNL     1       5.680   1.290  20.389  0.00  0.00    +0.000 A 
ATOM     31  C   UNL     1       5.140   1.442  18.981  0.00  0.00    +0.000 A 
ATOM     32  C   UNL     1       6.210   0.811  18.153  0.00  0.00    +0.000 A 
ATOM     33  C   UNL     1       7.444   0.160  18.448  0.00  0.00    +0.000 A 
ATOM     34  C   UNL     1       7.595   0.054  19.926  0.00  0.00    +0.000 A 
ENDBRANCH  28  29
ENDBRANCH  24  28
ENDBRANCH  19  25
ENDBRANCH   1  19
TORSDOF 6
ENDMDL
MODEL 5
REMARK VINA RESULT:      -7.7      1.939      6.760
REMARK  Name = 
REMARK  6 active torsions:
REMARK  status: ('A' for Active; 'I' for Inactive)
REMARK    1  A    between atoms: O_2  and  C_3
REMARK    2  A    between atoms: N_14  and  C_15
REMARK    3  A    between atoms: C_15  and  C_18
REMARK    4  A    between atoms: C_29  and  C_31
REMARK    5  A    between atoms: C_31  and  C_34
REMARK    6  A    between atoms: C_50  and  C_52
REMARK                            x       y       z     vdW  Elec       q    Type
REMARK                         _______ _______ _______ _____ _____    ______ ____
ROOT
ATOM      1  C   UNL     1       8.177   0.505  24.231  0.00  0.00    +0.000 C 
ATOM      2  O   UNL     1       7.377   0.516  25.215  0.00  0.00    +0.000 OA
ATOM      3  N   UNL     1       8.548  -0.803  23.863  0.00  0.00    +0.000 N 
ATOM      4  C   UNL     1       9.290  -1.564  24.886  0.00  0.00    +0.000 C 
ATOM      5  C   UNL     1       9.134  -2.876  24.958  0.00  0.00    +0.000 A 
ATOM      6  C   UNL     1       8.430  -3.155  26.340  0.00  0.00    +0.000 A 
ATOM      7  C   UNL     1       7.591  -4.301  26.679  0.00  0.00    +0.000 A 
ATOM      8  C   UNL     1       7.553  -5.136  25.421  0.00  0.00    +0.000 A 
ATOM      9  C   UNL     1       8.051  -5.069  24.109  0.00  0.00    +0.000 A 
ATOM     10  C   UNL     1       8.456  -3.630  23.862  0.00  0.00    +0.000 A 
ATOM     11  C   UNL     1       7.703  -2.946  22.803  0.00  0.00    +0.000 C 
ATOM     12  C   UNL     1       7.413  -1.464  23.254  0.00  0.00    +0.000 C 
ENDROOT
BRANCH  11  13
ATOM     13  C   UNL     1       6.336  -3.444  22.541  0.00  0.00    +0.000 A 
ATOM     14  C   UNL     1       6.380  -4.648  21.675  0.00  0.00    +0.000 A 
ATOM     15  C   UNL     1       5.589  -5.890  21.852  0.00  0.00    +0.000 A 
ATOM     16  C   UNL     1       4.771  -5.682  23.094  0.00  0.00    +0.000 A 
ATOM     17  C   UNL     1       4.477  -4.620  23.997  0.00  0.00    +0.000 A 
ATOM     18  C   UNL     1       5.171  -3.390  23.418  0.00  0.00    +0.000 A 
ENDBRANCH  11  13
BRANCH   1  19
ATOM     19  C   UNL     1       9.222   1.577  24.156  0.00  0.00    +0.000 C 
BRANCH  19  25
ATOM     20  C   UNL     1       8.726   3.951  24.662  0.00  0.00    +0.000 C 
ATOM     21  C   UNL     1       8.404   5.338  24.182  0.00  0.00    +0.000 C 
ATOM     22  C   UNL     1       7.743   5.283  22.826  0.00  0.00    +0.000 C 
ATOM     23  C   UNL     1       6.867   4.015  22.824  0.00  0.00    +0.000 C 
ATOM     24  N   UNL     1       7.618   2.819  22.761  0.00  0.00    +0.000 NA
ATOM     25  C   UNL     1       8.772   2.892  23.571  0.00  0.00    +0.000 C 
BRANCH  20  27
ATOM     26  H   UNL     1       8.343   3.280  26.438  0.00  0.00    +0.000 HD
ATOM     27  O   UNL     1       7.899   3.586  25.692  0.00  0.00    +0.000 OA
ENDBRANCH  20  27
BRANCH  24  28
ATOM     28  C   UNL     1       7.819   2.282  21.475  0.00  0.00    +0.000 C 
BRANCH  28  29
ATOM     29  C   UNL     1       7.325   1.117  20.937  0.00  0.00    +0.000 A 
ATOM     30  C   UNL     1       5.927   1.418  20.572  0.00  0.00    +0.000 A 
ATOM     31  C   UNL     1       5.262   1.500  19.212  0.00  0.00    +0.000 A 
ATOM     32  C   UNL     1       6.243   0.804  18.328  0.00  0.00    +0.000 A 
ATOM     33  C   UNL     1       7.491   0.149  18.546  0.00  0.00    +0.000 A 
ATOM     34  C   UNL     1       7.776   0.123  20.008  0.00  0.00    +0.000 A 
ENDBRANCH  28  29
ENDBRANCH  24  28
ENDBRANCH  19  25
ENDBRANCH   1  19
TORSDOF 6
ENDMDL
MODEL 6
REMARK VINA RESULT:      -7.5      1.849      7.079
REMARK  Name = 
REMARK  6 active torsions:
REMARK  status: ('A' for Active; 'I' for Inactive)
REMARK    1  A    between atoms: O_2  and  C_3
REMARK    2  A    between atoms: N_14  and  C_15
REMARK    3  A    between atoms: C_15  and  C_18
REMARK    4  A    between atoms: C_29  and  C_31
REMARK    5  A    between atoms: C_31  and  C_34
REMARK    6  A    between atoms: C_50  and  C_52
REMARK                            x       y       z     vdW  Elec       q    Type
REMARK                         _______ _______ _______ _____ _____    ______ ____
ROOT
ATOM      1  C   UNL     1       8.069  -1.924  24.421  0.00  0.00    +0.000 C 
ATOM      2  O   UNL     1       7.872  -1.556  25.619  0.00  0.00    +0.000 OA
ATOM      3  N   UNL     1       7.504  -3.186  24.155  0.00  0.00    +0.000 N 
ATOM      4  C   UNL     1       8.065  -4.310  24.930  0.00  0.00    +0.000 C 
ATOM      5  C   UNL     1       7.281  -5.321  25.264  0.00  0.00    +0.000 A 
ATOM      6  C   UNL     1       7.163  -5.279  26.835  0.00  0.00    +0.000 A 
ATOM      7  C   UNL     1       6.065  -5.801  27.644  0.00  0.00    +0.000 A 
ATOM      8  C   UNL     1       5.088  -6.373  26.644  0.00  0.00    +0.000 A 
ATOM      9  C   UNL     1       4.968  -6.485  25.249  0.00  0.00    +0.000 A 
ATOM     10  C   UNL     1       5.935  -5.489  24.640  0.00  0.00    +0.000 A 
ATOM     11  C   UNL     1       5.311  -4.421  23.849  0.00  0.00    +0.000 C 
ATOM     12  C   UNL     1       6.061  -3.065  24.133  0.00  0.00    +0.000 C 
ENDROOT
BRANCH  11  13
ATOM     13  C   UNL     1       3.921  -4.065  24.205  0.00  0.00    +0.000 A 
ATOM     14  C   UNL     1       2.964  -4.990  23.547  0.00  0.00    +0.000 A 
ATOM     15  C   UNL     1       1.773  -5.617  24.171  0.00  0.00    +0.000 A 
ATOM     16  C   UNL     1       1.763  -5.148  25.597  0.00  0.00    +0.000 A 
ATOM     17  C   UNL     1       2.472  -4.211  26.405  0.00  0.00    +0.000 A 
ATOM     18  C   UNL     1       3.425  -3.494  25.453  0.00  0.00    +0.000 A 
ENDBRANCH  11  13
BRANCH   1  19
ATOM     19  C   UNL     1       9.387  -1.599  23.787  0.00  0.00    +0.000 C 
BRANCH  19  25
ATOM     20  C   UNL     1      10.559   0.534  24.255  0.00  0.00    +0.000 C 
ATOM     21  C   UNL     1      10.913   1.935  23.843  0.00  0.00    +0.000 C 
ATOM     22  C   UNL     1       9.864   2.487  22.909  0.00  0.00    +0.000 C 
ATOM     23  C   UNL     1       8.515   1.914  23.387  0.00  0.00    +0.000 C 
ATOM     24  N   UNL     1       8.365   0.537  23.111  0.00  0.00    +0.000 NA
ATOM     25  C   UNL     1       9.566  -0.169  23.341  0.00  0.00    +0.000 C 
BRANCH  20  27
ATOM     26  H   UNL     1      10.768   0.091  26.129  0.00  0.00    +0.000 HD
ATOM     27  O   UNL     1      10.161   0.495  25.565  0.00  0.00    +0.000 OA
ENDBRANCH  20  27
BRANCH  24  28
ATOM     28  C   UNL     1       7.700   0.216  21.912  0.00  0.00    +0.000 C 
BRANCH  28  29
ATOM     29  C   UNL     1       7.367   1.037  20.861  0.00  0.00    +0.000 A 
ATOM     30  C   UNL     1       7.688   0.264  19.645  0.00  0.00    +0.000 A 
ATOM     31  C   UNL     1       6.779  -0.304  18.572  0.00  0.00    +0.000 A 
ATOM     32  C   UNL     1       5.506   0.443  18.796  0.00  0.00    +0.000 A 
ATOM     33  C   UNL     1       5.099   1.469  19.698  0.00  0.00    +0.000 A 
ATOM     34  C   UNL     1       6.272   1.894  20.511  0.00  0.00    +0.000 A 
ENDBRANCH  28  29
ENDBRANCH  24  28
ENDBRANCH  19  25
ENDBRANCH   1  19
TORSDOF 6
ENDMDL
MODEL 7
REMARK VINA RESULT:      -7.4      2.496      7.072
REMARK  Name = 
REMARK  6 active torsions:
REMARK  status: ('A' for Active; 'I' for Inactive)
REMARK    1  A    between atoms: O_2  and  C_3
REMARK    2  A    between atoms: N_14  and  C_15
REMARK    3  A    between atoms: C_15  and  C_18
REMARK    4  A    between atoms: C_29  and  C_31
REMARK    5  A    between atoms: C_31  and  C_34
REMARK    6  A    between atoms: C_50  and  C_52
REMARK                            x       y       z     vdW  Elec       q    Type
REMARK                         _______ _______ _______ _____ _____    ______ ____
ROOT
ATOM      1  C   UNL     1       5.890   0.467  25.160  0.00  0.00    +0.000 C 
ATOM      2  O   UNL     1       4.803   0.050  25.662  0.00  0.00    +0.000 OA
ATOM      3  N   UNL     1       6.811  -0.578  24.949  0.00  0.00    +0.000 N 
ATOM      4  C   UNL     1       7.269  -1.276  26.166  0.00  0.00    +0.000 C 
ATOM      5  C   UNL     1       7.565  -2.563  26.101  0.00  0.00    +0.000 A 
ATOM      6  C   UNL     1       6.491  -3.301  26.989  0.00  0.00    +0.000 A 
ATOM      7  C   UNL     1       6.046  -4.685  26.853  0.00  0.00    +0.000 A 
ATOM      8  C   UNL     1       6.833  -5.231  25.685  0.00  0.00    +0.000 A 
ATOM      9  C   UNL     1       7.778  -4.765  24.756  0.00  0.00    +0.000 A 
ATOM     10  C   UNL     1       7.720  -3.251  24.785  0.00  0.00    +0.000 A 
ATOM     11  C   UNL     1       7.295  -2.622  23.529  0.00  0.00    +0.000 C 
ATOM     12  C   UNL     1       6.346  -1.407  23.857  0.00  0.00    +0.000 C 
ENDROOT
BRANCH  11  13
ATOM     13  C   UNL     1       6.433  -3.434  22.644  0.00  0.00    +0.000 A 
ATOM     14  C   UNL     1       7.246  -4.423  21.894  0.00  0.00    +0.000 A 
ATOM     15  C   UNL     1       6.908  -5.849  21.663  0.00  0.00    +0.000 A 
ATOM     16  C   UNL     1       5.602  -6.080  22.368  0.00  0.00    +0.000 A 
ATOM     17  C   UNL     1       4.609  -5.300  23.032  0.00  0.00    +0.000 A 
ATOM     18  C   UNL     1       5.051  -3.849  22.861  0.00  0.00    +0.000 A 
ENDBRANCH  11  13
BRANCH   1  19
ATOM     19  C   UNL     1       6.424   1.789  25.621  0.00  0.00    +0.000 C 
BRANCH  19  25
ATOM     20  C   UNL     1       5.005   3.291  24.253  0.00  0.00    +0.000 C 
ATOM     21  C   UNL     1       4.882   4.463  23.320  0.00  0.00    +0.000 C 
ATOM     22  C   UNL     1       6.173   4.670  22.567  0.00  0.00    +0.000 C 
ATOM     23  C   UNL     1       6.753   3.266  22.309  0.00  0.00    +0.000 C 
ATOM     24  N   UNL     1       7.264   2.651  23.473  0.00  0.00    +0.000 NA
ATOM     25  C   UNL     1       6.433   2.889  24.590  0.00  0.00    +0.000 C 
BRANCH  20  27
ATOM     26  H   UNL     1       4.245   2.152  22.883  0.00  0.00    +0.000 HD
ATOM     27  O   UNL     1       4.270   2.226  23.800  0.00  0.00    +0.000 OA
ENDBRANCH  20  27
BRANCH  24  28
ATOM     28  C   UNL     1       8.644   2.816  23.705  0.00  0.00    +0.000 C 
BRANCH  28  29
ATOM     29  C   UNL     1       9.702   2.140  23.146  0.00  0.00    +0.000 A 
ATOM     30  C   UNL     1      10.349   1.432  24.268  0.00  0.00    +0.000 A 
ATOM     31  C   UNL     1      10.465  -0.052  24.558  0.00  0.00    +0.000 A 
ATOM     32  C   UNL     1      10.133  -0.668  23.240  0.00  0.00    +0.000 A 
ATOM     33  C   UNL     1       9.812  -0.150  21.951  0.00  0.00    +0.000 A 
ATOM     34  C   UNL     1       9.929   1.335  21.982  0.00  0.00    +0.000 A 
ENDBRANCH  28  29
ENDBRANCH  24  28
ENDBRANCH  19  25
ENDBRANCH   1  19
TORSDOF 6
ENDMDL
MODEL 8
REMARK VINA RESULT:      -7.4      1.706      7.239
REMARK  Name = 
REMARK  6 active torsions:
REMARK  status: ('A' for Active; 'I' for Inactive)
REMARK    1  A    between atoms: O_2  and  C_3
REMARK    2  A    between atoms: N_14  and  C_15
REMARK    3  A    between atoms: C_15  and  C_18
REMARK    4  A    between atoms: C_29  and  C_31
REMARK    5  A    between atoms: C_31  and  C_34
REMARK    6  A    between atoms: C_50  and  C_52
REMARK                            x       y       z     vdW  Elec       q    Type
REMARK                         _______ _______ _______ _____ _____    ______ ____
ROOT
ATOM      1  C   UNL     1       9.214  -2.718  24.457  0.00  0.00    +0.000 C 
ATOM      2  O   UNL     1       9.670  -3.900  24.389  0.00  0.00    +0.000 OA
ATOM      3  N   UNL     1       7.847  -2.657  24.124  0.00  0.00    +0.000 N 
ATOM      4  C   UNL     1       7.512  -3.049  22.742  0.00  0.00    +0.000 C 
ATOM      5  C   UNL     1       6.352  -3.636  22.498  0.00  0.00    +0.000 A 
ATOM      6  C   UNL     1       6.697  -5.102  22.032  0.00  0.00    +0.000 A 
ATOM      7  C   UNL     1       5.840  -6.279  22.142  0.00  0.00    +0.000 A 
ATOM      8  C   UNL     1       4.576  -5.776  22.797  0.00  0.00    +0.000 A 
ATOM      9  C   UNL     1       4.079  -4.568  23.315  0.00  0.00    +0.000 A 
ATOM     10  C   UNL     1       5.269  -3.654  23.525  0.00  0.00    +0.000 A 
ATOM     11  C   UNL     1       5.520  -3.272  24.921  0.00  0.00    +0.000 C 
ATOM     12  C   UNL     1       7.074  -3.272  25.182  0.00  0.00    +0.000 C 
ENDROOT
BRANCH  11  13
ATOM     13  C   UNL     1       5.050  -4.216  25.956  0.00  0.00    +0.000 A 
ATOM     14  C   UNL     1       6.127  -5.173  26.312  0.00  0.00    +0.000 A 
ATOM     15  C   UNL     1       6.501  -5.611  27.679  0.00  0.00    +0.000 A 
ATOM     16  C   UNL     1       5.590  -4.865  28.612  0.00  0.00    +0.000 A 
ATOM     17  C   UNL     1       4.449  -4.016  28.517  0.00  0.00    +0.000 A 
ATOM     18  C   UNL     1       4.095  -3.976  27.032  0.00  0.00    +0.000 A 
ENDBRANCH  11  13
BRANCH   1  19
ATOM     19  C   UNL     1      10.095  -1.591  24.009  0.00  0.00    +0.000 C 
BRANCH  19  25
ATOM     20  C   UNL     1       9.302  -0.974  21.744  0.00  0.00    +0.000 C 
ATOM     21  C   UNL     1       8.542  -0.037  20.848  0.00  0.00    +0.000 C 
ATOM     22  C   UNL     1       8.485   1.342  21.460  0.00  0.00    +0.000 C 
ATOM     23  C   UNL     1       9.829   1.549  22.185  0.00  0.00    +0.000 C 
ATOM     24  N   UNL     1       9.951   0.781  23.363  0.00  0.00    +0.000 NA
ATOM     25  C   UNL     1       9.423  -0.517  23.190  0.00  0.00    +0.000 C 
BRANCH  20  27
ATOM     26  H   UNL     1      11.070  -0.555  21.072  0.00  0.00    +0.000 HD
ATOM     27  O   UNL     1      10.523  -1.284  21.204  0.00  0.00    +0.000 OA
ENDBRANCH  20  27
BRANCH  24  28
ATOM     28  C   UNL     1       9.585   1.423  24.561  0.00  0.00    +0.000 C 
BRANCH  28  29
ATOM     29  C   UNL     1       8.367   1.435  25.200  0.00  0.00    +0.000 A 
ATOM     30  C   UNL     1       7.785   2.759  24.907  0.00  0.00    +0.000 A 
ATOM     31  C   UNL     1       6.567   3.140  24.088  0.00  0.00    +0.000 A 
ATOM     32  C   UNL     1       5.836   1.844  23.973  0.00  0.00    +0.000 A 
ATOM     33  C   UNL     1       6.060   0.526  24.470  0.00  0.00    +0.000 A 
ATOM     34  C   UNL     1       7.260   0.537  25.352  0.00  0.00    +0.000 A 
ENDBRANCH  28  29
ENDBRANCH  24  28
ENDBRANCH  19  25
ENDBRANCH   1  19
TORSDOF 6
ENDMDL
MODEL 9
REMARK VINA RESULT:      -7.2      1.627      6.757
REMARK  Name = 
REMARK  6 active torsions:
REMARK  status: ('A' for Active; 'I' for Inactive)
REMARK    1  A    between atoms: O_2  and  C_3
REMARK    2  A    between atoms: N_14  and  C_15
REMARK    3  A    between atoms: C_15  and  C_18
REMARK    4  A    between atoms: C_29  and  C_31
REMARK    5  A    between atoms: C_31  and  C_34
REMARK    6  A    between atoms: C_50  and  C_52
REMARK                            x       y       z     vdW  Elec       q    Type
REMARK                         _______ _______ _______ _____ _____    ______ ____
ROOT
ATOM      1  C   UNL     1       9.020  -2.303  23.333  0.00  0.00    +0.000 C 
ATOM      2  O   UNL     1       9.512  -3.310  23.928  0.00  0.00    +0.000 OA
ATOM      3  N   UNL     1       7.687  -2.522  22.934  0.00  0.00    +0.000 N 
ATOM      4  C   UNL     1       7.489  -3.602  21.949  0.00  0.00    +0.000 C 
ATOM      5  C   UNL     1       6.372  -4.310  21.980  0.00  0.00    +0.000 A 
ATOM      6  C   UNL     1       6.797  -5.774  22.379  0.00  0.00    +0.000 A 
ATOM      7  C   UNL     1       5.966  -6.777  23.039  0.00  0.00    +0.000 A 
ATOM      8  C   UNL     1       4.635  -6.096  23.251  0.00  0.00    +0.000 A 
ATOM      9  C   UNL     1       4.060  -4.834  23.022  0.00  0.00    +0.000 A 
ATOM     10  C   UNL     1       5.202  -3.863  22.792  0.00  0.00    +0.000 A 
ATOM     11  C   UNL     1       5.315  -2.791  23.789  0.00  0.00    +0.000 C 
ATOM     12  C   UNL     1       6.839  -2.545  24.107  0.00  0.00    +0.000 C 
ENDROOT
BRANCH  11  13
ATOM     13  C   UNL     1       4.779  -3.085  25.135  0.00  0.00    +0.000 A 
ATOM     14  C   UNL     1       5.781  -3.828  25.939  0.00  0.00    +0.000 A 
ATOM     15  C   UNL     1       6.128  -3.581  27.360  0.00  0.00    +0.000 A 
ATOM     16  C   UNL     1       5.286  -2.415  27.792  0.00  0.00    +0.000 A 
ATOM     17  C   UNL     1       4.215  -1.635  27.265  0.00  0.00    +0.000 A 
ATOM     18  C   UNL     1       3.855  -2.288  25.933  0.00  0.00    +0.000 A 
ENDBRANCH  11  13
BRANCH   1  19
ATOM     19  C   UNL     1       9.907  -1.518  22.415  0.00  0.00    +0.000 C 
BRANCH  19  25
ATOM     20  C   UNL     1      10.662   0.424  23.756  0.00  0.00    +0.000 C 
ATOM     21  C   UNL     1      10.768   1.912  23.935  0.00  0.00    +0.000 C 
ATOM     22  C   UNL     1       9.662   2.610  23.182  0.00  0.00    +0.000 C 
ATOM     23  C   UNL     1       8.427   1.694  23.282  0.00  0.00    +0.000 C 
ATOM     24  N   UNL     1       8.535   0.525  22.497  0.00  0.00    +0.000 NA
ATOM     25  C   UNL     1       9.837  -0.018  22.557  0.00  0.00    +0.000 C 
BRANCH  20  27
ATOM     26  H   UNL     1       9.389   0.051  25.166  0.00  0.00    +0.000 HD
ATOM     27  O   UNL     1      10.244  -0.179  24.912  0.00  0.00    +0.000 OA
ENDBRANCH  20  27
BRANCH  24  28
ATOM     28  C   UNL     1       7.970   0.591  21.208  0.00  0.00    +0.000 C 
BRANCH  28  29
ATOM     29  C   UNL     1       6.738   0.156  20.780  0.00  0.00    +0.000 A 
ATOM     30  C   UNL     1       6.132   1.314  20.095  0.00  0.00    +0.000 A 
ATOM     31  C   UNL     1       5.784   1.522  18.634  0.00  0.00    +0.000 A 
ATOM     32  C   UNL     1       5.812   0.130  18.093  0.00  0.00    +0.000 A 
ATOM     33  C   UNL     1       6.044  -1.156  18.663  0.00  0.00    +0.000 A 
ATOM     34  C   UNL     1       6.209  -1.010  20.137  0.00  0.00    +0.000 A 
ENDBRANCH  28  29
ENDBRANCH  24  28
ENDBRANCH  19  25
ENDBRANCH   1  19
TORSDOF 6
ENDMDL
