MODEL 1
REMARK VINA RESULT:      -8.8      0.000      0.000
REMARK  Name = 
REMARK  6 active torsions:
REMARK  status: ('A' for Active; 'I' for Inactive)
REMARK    1  A    between atoms: C_10  and  C_11
REMARK    2  A    between atoms: C_11  and  C_14
REMARK    3  A    between atoms: C_14  and  C_17
REMARK    4  A    between atoms: N_26  and  S_27
REMARK    5  A    between atoms: S_27  and  C_30
REMARK    6  A    between atoms: C_35  and  C_36
REMARK                            x       y       z     vdW  Elec       q    Type
REMARK                         _______ _______ _______ _____ _____    ______ ____
ROOT
ATOM      1  C   UNL     1      10.534   0.956  23.407  0.00  0.00    +0.000 C 
ATOM      2  O   UNL     1      11.338   1.486  24.176  0.00  0.00    +0.000 OA
ATOM      3  N   UNL     1       9.858  -0.134  23.805  0.00  0.00    +0.000 N 
ATOM      4  C   UNL     1       9.484  -0.257  25.221  0.00  0.00    +0.000 C 
ATOM      5  C   UNL     1       8.341  -1.253  25.379  0.00  0.00    +0.000 C 
ATOM      6  N   UNL     1       8.380  -2.380  24.600  0.00  0.00    +0.000 NA
ATOM      7  C   UNL     1       8.709  -2.161  23.254  0.00  0.00    +0.000 C 
ATOM      8  C   UNL     1      10.042  -1.421  23.126  0.00  0.00    +0.000 C 
ENDROOT
BRANCH   6   9
ATOM      9  S   UNL     1       8.514  -3.823  25.161  0.00  0.00    +0.000 S 
ATOM     10  O   UNL     1       9.888  -4.334  24.660  0.00  0.00    +0.000 OA
ATOM     11  O   UNL     1       8.576  -3.947  26.584  0.00  0.00    +0.000 OA
BRANCH   9  12
ATOM     12  C   UNL     1       7.465  -5.054  24.512  0.00  0.00    +0.000 A 
ATOM     13  C   UNL     1       6.125  -4.431  24.521  0.00  0.00    +0.000 A 
ATOM     14  C   UNL     1       5.200  -4.317  23.407  0.00  0.00    +0.000 A 
ATOM     15  C   UNL     1       5.895  -4.646  22.045  0.00  0.00    +0.000 A 
ATOM     16  C   UNL     1       5.725  -3.260  21.271  0.00  0.00    +0.000 C 
ATOM     17  C   UNL     1       7.106  -5.462  21.911  0.00  0.00    +0.000 A 
ATOM     18  C   UNL     1       7.880  -5.674  23.254  0.00  0.00    +0.000 A 
ENDBRANCH   9  12
ENDBRANCH   6   9
BRANCH   1  19
ATOM     19  C   UNL     1      10.048   1.698  22.199  0.00  0.00    +0.000 C 
BRANCH  19  20
ATOM     20  C   UNL     1       8.809   2.488  22.536  0.00  0.00    +0.000 C 
BRANCH  20  27
ATOM     21  C   UNL     1       6.374   0.799  18.321  0.00  0.00    +0.000 A 
ATOM     22  N   UNL     1       5.376   1.269  19.308  0.00  0.00    +0.000 NA
ATOM     23  C   UNL     1       5.975   1.306  20.429  0.00  0.00    +0.000 A 
ATOM     24  C   UNL     1       7.289   0.887  21.185  0.00  0.00    +0.000 A 
ATOM     25  C   UNL     1       8.196   0.225  20.212  0.00  0.00    +0.000 A 
ATOM     26  C   UNL     1       7.451   0.065  18.881  0.00  0.00    +0.000 A 
ATOM     27  C   UNL     1       7.527   1.949  22.183  0.00  0.00    +0.000 C 
ATOM     28  C   UNL     1       6.472   3.031  21.903  0.00  0.00    +0.000 C 
ATOM     29  N   UNL     1       5.511   2.491  21.044  0.00  0.00    +0.000 N 
ATOM     30  H   UNL     1       5.378   3.123  20.338  0.00  0.00    +0.000 HD
ENDBRANCH  20  27
ENDBRANCH  19  20
ENDBRANCH   1  19
TORSDOF 5
ENDMDL
MODEL 2
REMARK VINA RESULT:      -8.4      0.770      1.208
REMARK  Name = 
REMARK  6 active torsions:
REMARK  status: ('A' for Active; 'I' for Inactive)
REMARK    1  A    between atoms: C_10  and  C_11
REMARK    2  A    between atoms: C_11  and  C_14
REMARK    3  A    between atoms: C_14  and  C_17
REMARK    4  A    between atoms: N_26  and  S_27
REMARK    5  A    between atoms: S_27  and  C_30
REMARK    6  A    between atoms: C_35  and  C_36
REMARK                            x       y       z     vdW  Elec       q    Type
REMARK                         _______ _______ _______ _____ _____    ______ ____
ROOT
ATOM      1  C   UNL     1      10.363   0.844  23.324  0.00  0.00    +0.000 C 
ATOM      2  O   UNL     1      11.019   1.505  24.131  0.00  0.00    +0.000 OA
ATOM      3  N   UNL     1       9.755  -0.282  23.732  0.00  0.00    +0.000 N 
ATOM      4  C   UNL     1       9.234  -0.348  25.105  0.00  0.00    +0.000 C 
ATOM      5  C   UNL     1       8.182  -1.445  25.217  0.00  0.00    +0.000 C 
ATOM      6  N   UNL     1       8.418  -2.611  24.536  0.00  0.00    +0.000 NA
ATOM      7  C   UNL     1       8.877  -2.450  23.221  0.00  0.00    +0.000 C 
ATOM      8  C   UNL     1      10.139  -1.585  23.179  0.00  0.00    +0.000 C 
ENDROOT
BRANCH   6   9
ATOM      9  S   UNL     1       8.626  -3.992  25.220  0.00  0.00    +0.000 S 
ATOM     10  O   UNL     1       9.973  -4.525  24.672  0.00  0.00    +0.000 OA
ATOM     11  O   UNL     1       8.790  -3.978  26.640  0.00  0.00    +0.000 OA
BRANCH   9  12
ATOM     12  C   UNL     1       7.563  -5.297  24.767  0.00  0.00    +0.000 A 
ATOM     13  C   UNL     1       6.624  -5.411  25.902  0.00  0.00    +0.000 A 
ATOM     14  C   UNL     1       5.172  -5.401  25.849  0.00  0.00    +0.000 A 
ATOM     15  C   UNL     1       4.651  -4.921  24.454  0.00  0.00    +0.000 A 
ATOM     16  C   UNL     1       3.833  -3.614  24.866  0.00  0.00    +0.000 C 
ATOM     17  C   UNL     1       5.429  -4.988  23.213  0.00  0.00    +0.000 A 
ATOM     18  C   UNL     1       6.960  -5.221  23.437  0.00  0.00    +0.000 A 
ENDBRANCH   9  12
ENDBRANCH   6   9
BRANCH   1  19
ATOM     19  C   UNL     1       9.950   1.449  22.018  0.00  0.00    +0.000 C 
BRANCH  19  20
ATOM     20  C   UNL     1       8.763   2.356  22.215  0.00  0.00    +0.000 C 
BRANCH  20  27
ATOM     21  C   UNL     1       5.990   0.944  18.108  0.00  0.00    +0.000 A 
ATOM     22  N   UNL     1       5.077   1.362  19.195  0.00  0.00    +0.000 NA
ATOM     23  C   UNL     1       5.760   1.326  20.267  0.00  0.00    +0.000 A 
ATOM     24  C   UNL     1       7.122   0.852  20.893  0.00  0.00    +0.000 A 
ATOM     25  C   UNL     1       7.944   0.242  19.815  0.00  0.00    +0.000 A 
ATOM     26  C   UNL     1       7.097   0.169  18.539  0.00  0.00    +0.000 A 
ATOM     27  C   UNL     1       7.450   1.850  21.931  0.00  0.00    +0.000 C 
ATOM     28  C   UNL     1       6.390   2.956  21.798  0.00  0.00    +0.000 C 
ATOM     29  N   UNL     1       5.360   2.476  20.985  0.00  0.00    +0.000 N 
ATOM     30  H   UNL     1       5.182   3.151  20.330  0.00  0.00    +0.000 HD
ENDBRANCH  20  27
ENDBRANCH  19  20
ENDBRANCH   1  19
TORSDOF 5
ENDMDL
MODEL 3
REMARK VINA RESULT:      -8.2      2.512      6.484
REMARK  Name = 
REMARK  6 active torsions:
REMARK  status: ('A' for Active; 'I' for Inactive)
REMARK    1  A    between atoms: C_10  and  C_11
REMARK    2  A    between atoms: C_11  and  C_14
REMARK    3  A    between atoms: C_14  and  C_17
REMARK    4  A    between atoms: N_26  and  S_27
REMARK    5  A    between atoms: S_27  and  C_30
REMARK    6  A    between atoms: C_35  and  C_36
REMARK                            x       y       z     vdW  Elec       q    Type
REMARK                         _______ _______ _______ _____ _____    ______ ____
ROOT
ATOM      1  C   UNL     1       6.148  -5.119  27.664  0.00  0.00    +0.000 C 
ATOM      2  O   UNL     1       6.715  -5.596  28.648  0.00  0.00    +0.000 OA
ATOM      3  N   UNL     1       6.784  -4.206  26.912  0.00  0.00    +0.000 N 
ATOM      4  C   UNL     1       8.241  -4.311  26.755  0.00  0.00    +0.000 C 
ATOM      5  C   UNL     1       8.695  -3.540  25.522  0.00  0.00    +0.000 C 
ATOM      6  N   UNL     1       8.082  -2.339  25.273  0.00  0.00    +0.000 NA
ATOM      7  C   UNL     1       6.687  -2.344  25.411  0.00  0.00    +0.000 C 
ATOM      8  C   UNL     1       6.271  -2.837  26.799  0.00  0.00    +0.000 C 
ENDROOT
BRANCH   6   9
ATOM      9  S   UNL     1       8.815  -0.968  25.287  0.00  0.00    +0.000 S 
ATOM     10  O   UNL     1       7.753   0.071  24.847  0.00  0.00    +0.000 OA
ATOM     11  O   UNL     1       9.271  -0.506  26.560  0.00  0.00    +0.000 OA
BRANCH   9  12
ATOM     12  C   UNL     1      10.047  -0.687  24.087  0.00  0.00    +0.000 A 
ATOM     13  C   UNL     1       9.575  -1.433  22.901  0.00  0.00    +0.000 A 
ATOM     14  C   UNL     1       9.405  -0.924  21.552  0.00  0.00    +0.000 A 
ATOM     15  C   UNL     1       9.466   0.638  21.513  0.00  0.00    +0.000 A 
ATOM     16  C   UNL     1       8.012   0.988  20.956  0.00  0.00    +0.000 C 
ATOM     17  C   UNL     1      10.124   1.466  22.530  0.00  0.00    +0.000 A 
ATOM     18  C   UNL     1      10.438   0.704  23.861  0.00  0.00    +0.000 A 
ENDBRANCH   9  12
ENDBRANCH   6   9
BRANCH   1  19
ATOM     19  C   UNL     1       4.929  -5.786  27.104  0.00  0.00    +0.000 C 
BRANCH  19  20
ATOM     20  C   UNL     1       5.281  -6.550  25.853  0.00  0.00    +0.000 C 
BRANCH  20  27
ATOM     21  C   UNL     1       6.610  -3.374  22.018  0.00  0.00    +0.000 A 
ATOM     22  N   UNL     1       5.137  -3.506  22.057  0.00  0.00    +0.000 NA
ATOM     23  C   UNL     1       4.891  -4.555  22.732  0.00  0.00    +0.000 A 
ATOM     24  C   UNL     1       5.538  -5.833  23.377  0.00  0.00    +0.000 A 
ATOM     25  C   UNL     1       7.005  -5.784  23.143  0.00  0.00    +0.000 A 
ATOM     26  C   UNL     1       7.312  -4.588  22.232  0.00  0.00    +0.000 A 
ATOM     27  C   UNL     1       4.749  -6.105  24.597  0.00  0.00    +0.000 C 
ATOM     28  C   UNL     1       3.775  -4.923  24.736  0.00  0.00    +0.000 C 
ATOM     29  N   UNL     1       3.778  -4.212  23.532  0.00  0.00    +0.000 N 
ATOM     30  H   UNL     1       3.883  -3.287  23.753  0.00  0.00    +0.000 HD
ENDBRANCH  20  27
ENDBRANCH  19  20
ENDBRANCH   1  19
TORSDOF 5
ENDMDL
MODEL 4
REMARK VINA RESULT:      -7.8      2.363      3.759
REMARK  Name = 
REMARK  6 active torsions:
REMARK  status: ('A' for Active; 'I' for Inactive)
REMARK    1  A    between atoms: C_10  and  C_11
REMARK    2  A    between atoms: C_11  and  C_14
REMARK    3  A    between atoms: C_14  and  C_17
REMARK    4  A    between atoms: N_26  and  S_27
REMARK    5  A    between atoms: S_27  and  C_30
REMARK    6  A    between atoms: C_35  and  C_36
REMARK                            x       y       z     vdW  Elec       q    Type
REMARK                         _______ _______ _______ _____ _____    ______ ____
ROOT
ATOM      1  C   UNL     1       8.342  -0.460  25.304  0.00  0.00    +0.000 C 
ATOM      2  O   UNL     1       7.530   0.340  25.772  0.00  0.00    +0.000 OA
ATOM      3  N   UNL     1       7.905  -1.475  24.540  0.00  0.00    +0.000 N 
ATOM      4  C   UNL     1       6.731  -1.260  23.682  0.00  0.00    +0.000 C 
ATOM      5  C   UNL     1       6.696  -2.299  22.567  0.00  0.00    +0.000 C 
ATOM      6  N   UNL     1       7.057  -3.580  22.894  0.00  0.00    +0.000 NA
ATOM      7  C   UNL     1       8.211  -3.690  23.684  0.00  0.00    +0.000 C 
ATOM      8  C   UNL     1       8.081  -2.866  24.967  0.00  0.00    +0.000 C 
ENDROOT
BRANCH   6   9
ATOM      9  S   UNL     1       6.096  -4.799  22.830  0.00  0.00    +0.000 S 
ATOM     10  O   UNL     1       5.274  -4.608  21.530  0.00  0.00    +0.000 OA
ATOM     11  O   UNL     1       6.708  -6.083  22.689  0.00  0.00    +0.000 OA
BRANCH   9  12
ATOM     12  C   UNL     1       4.810  -4.890  24.004  0.00  0.00    +0.000 A 
ATOM     13  C   UNL     1       5.010  -6.199  24.660  0.00  0.00    +0.000 A 
ATOM     14  C   UNL     1       5.121  -6.461  26.085  0.00  0.00    +0.000 A 
ATOM     15  C   UNL     1       5.335  -5.143  26.898  0.00  0.00    +0.000 A 
ATOM     16  C   UNL     1       6.759  -5.421  27.563  0.00  0.00    +0.000 C 
ATOM     17  C   UNL     1       4.949  -3.809  26.428  0.00  0.00    +0.000 A 
ATOM     18  C   UNL     1       4.651  -3.740  24.893  0.00  0.00    +0.000 A 
ENDBRANCH   9  12
ENDBRANCH   6   9
BRANCH   1  19
ATOM     19  C   UNL     1       9.801  -0.122  25.279  0.00  0.00    +0.000 C 
BRANCH  19  20
ATOM     20  C   UNL     1      10.041   1.090  24.415  0.00  0.00    +0.000 C 
BRANCH  20  27
ATOM     21  C   UNL     1       6.787   0.540  20.457  0.00  0.00    +0.000 A 
ATOM     22  N   UNL     1       8.088  -0.075  20.111  0.00  0.00    +0.000 NA
ATOM     23  C   UNL     1       8.938   0.410  20.923  0.00  0.00    +0.000 A 
ATOM     24  C   UNL     1       9.167   1.517  22.015  0.00  0.00    +0.000 A 
ATOM     25  C   UNL     1       7.895   2.264  22.197  0.00  0.00    +0.000 A 
ATOM     26  C   UNL     1       6.889   1.775  21.148  0.00  0.00    +0.000 A 
ATOM     27  C   UNL     1      10.104   0.923  22.991  0.00  0.00    +0.000 C 
ATOM     28  C   UNL     1      10.284  -0.541  22.560  0.00  0.00    +0.000 C 
ATOM     29  N   UNL     1       9.764  -0.684  21.271  0.00  0.00    +0.000 N 
ATOM     30  H   UNL     1       9.196  -1.454  21.281  0.00  0.00    +0.000 HD
ENDBRANCH  20  27
ENDBRANCH  19  20
ENDBRANCH   1  19
TORSDOF 5
ENDMDL
MODEL 5
REMARK VINA RESULT:      -7.6      2.273      6.313
REMARK  Name = 
REMARK  6 active torsions:
REMARK  status: ('A' for Active; 'I' for Inactive)
REMARK    1  A    between atoms: C_10  and  C_11
REMARK    2  A    between atoms: C_11  and  C_14
REMARK    3  A    between atoms: C_14  and  C_17
REMARK    4  A    between atoms: N_26  and  S_27
REMARK    5  A    between atoms: S_27  and  C_30
REMARK    6  A    between atoms: C_35  and  C_36
REMARK                            x       y       z     vdW  Elec       q    Type
REMARK                         _______ _______ _______ _____ _____    ______ ____
ROOT
ATOM      1  C   UNL     1       7.668  -4.544  26.461  0.00  0.00    +0.000 C 
ATOM      2  O   UNL     1       8.168  -5.669  26.478  0.00  0.00    +0.000 OA
ATOM      3  N   UNL     1       8.047  -3.666  25.517  0.00  0.00    +0.000 N 
ATOM      4  C   UNL     1       8.401  -4.172  24.183  0.00  0.00    +0.000 C 
ATOM      5  C   UNL     1       8.313  -3.051  23.154  0.00  0.00    +0.000 C 
ATOM      6  N   UNL     1       8.758  -1.812  23.538  0.00  0.00    +0.000 NA
ATOM      7  C   UNL     1       8.340  -1.397  24.811  0.00  0.00    +0.000 C 
ATOM      8  C   UNL     1       8.730  -2.420  25.880  0.00  0.00    +0.000 C 
ENDROOT
BRANCH   6   9
ATOM      9  S   UNL     1       9.971  -1.084  22.893  0.00  0.00    +0.000 S 
ATOM     10  O   UNL     1      10.562  -0.194  24.015  0.00  0.00    +0.000 OA
ATOM     11  O   UNL     1      11.057  -1.912  22.474  0.00  0.00    +0.000 OA
BRANCH   9  12
ATOM     12  C   UNL     1       9.648   0.119  21.674  0.00  0.00    +0.000 A 
ATOM     13  C   UNL     1       8.280  -0.192  21.209  0.00  0.00    +0.000 A 
ATOM     14  C   UNL     1       7.149   0.716  21.131  0.00  0.00    +0.000 A 
ATOM     15  C   UNL     1       7.421   2.044  21.910  0.00  0.00    +0.000 A 
ATOM     16  C   UNL     1       6.265   1.997  23.010  0.00  0.00    +0.000 C 
ATOM     17  C   UNL     1       8.758   2.564  22.215  0.00  0.00    +0.000 A 
ATOM     18  C   UNL     1       9.903   1.511  22.042  0.00  0.00    +0.000 A 
ENDBRANCH   9  12
ENDBRANCH   6   9
BRANCH   1  19
ATOM     19  C   UNL     1       6.417  -4.265  27.237  0.00  0.00    +0.000 C 
BRANCH  19  20
ATOM     20  C   UNL     1       5.281  -5.105  26.713  0.00  0.00    +0.000 C 
BRANCH  20  27
ATOM     21  C   UNL     1       6.014  -5.029  21.613  0.00  0.00    +0.000 A 
ATOM     22  N   UNL     1       5.084  -3.942  21.991  0.00  0.00    +0.000 NA
ATOM     23  C   UNL     1       4.646  -4.235  23.148  0.00  0.00    +0.000 A 
ATOM     24  C   UNL     1       4.580  -5.369  24.234  0.00  0.00    +0.000 A 
ATOM     25  C   UNL     1       5.354  -6.536  23.739  0.00  0.00    +0.000 A 
ATOM     26  C   UNL     1       5.794  -6.252  22.298  0.00  0.00    +0.000 A 
ATOM     27  C   UNL     1       4.584  -4.670  25.537  0.00  0.00    +0.000 C 
ATOM     28  C   UNL     1       4.808  -3.184  25.214  0.00  0.00    +0.000 C 
ATOM     29  N   UNL     1       4.618  -3.003  23.841  0.00  0.00    +0.000 N 
ATOM     30  H   UNL     1       5.364  -2.498  23.519  0.00  0.00    +0.000 HD
ENDBRANCH  20  27
ENDBRANCH  19  20
ENDBRANCH   1  19
TORSDOF 5
ENDMDL
MODEL 6
REMARK VINA RESULT:      -7.6      2.084      2.961
REMARK  Name = 
REMARK  6 active torsions:
REMARK  status: ('A' for Active; 'I' for Inactive)
REMARK    1  A    between atoms: C_10  and  C_11
REMARK    2  A    between atoms: C_11  and  C_14
REMARK    3  A    between atoms: C_14  and  C_17
REMARK    4  A    between atoms: N_26  and  S_27
REMARK    5  A    between atoms: S_27  and  C_30
REMARK    6  A    between atoms: C_35  and  C_36
REMARK                            x       y       z     vdW  Elec       q    Type
REMARK                         _______ _______ _______ _____ _____    ______ ____
ROOT
ATOM      1  C   UNL     1       9.793  -1.908  23.754  0.00  0.00    +0.000 C 
ATOM      2  O   UNL     1      10.210  -2.508  22.762  0.00  0.00    +0.000 OA
ATOM      3  N   UNL     1       9.139  -2.587  24.712  0.00  0.00    +0.000 N 
ATOM      4  C   UNL     1       9.534  -3.976  24.988  0.00  0.00    +0.000 C 
ATOM      5  C   UNL     1       9.058  -4.393  26.374  0.00  0.00    +0.000 C 
ATOM      6  N   UNL     1       7.818  -3.961  26.767  0.00  0.00    +0.000 NA
ATOM      7  C   UNL     1       7.544  -2.613  26.496  0.00  0.00    +0.000 C 
ATOM      8  C   UNL     1       7.733  -2.299  25.010  0.00  0.00    +0.000 C 
ENDROOT
BRANCH   6   9
ATOM      9  S   UNL     1       6.620  -4.907  27.061  0.00  0.00    +0.000 S 
ATOM     10  O   UNL     1       7.167  -5.972  28.044  0.00  0.00    +0.000 OA
ATOM     11  O   UNL     1       5.504  -4.325  27.738  0.00  0.00    +0.000 OA
BRANCH   9  12
ATOM     12  C   UNL     1       6.051  -5.933  25.771  0.00  0.00    +0.000 A 
ATOM     13  C   UNL     1       4.840  -6.574  26.325  0.00  0.00    +0.000 A 
ATOM     14  C   UNL     1       3.515  -6.609  25.732  0.00  0.00    +0.000 A 
ATOM     15  C   UNL     1       3.385  -5.596  24.549  0.00  0.00    +0.000 A 
ATOM     16  C   UNL     1       2.229  -4.638  25.090  0.00  0.00    +0.000 C 
ATOM     17  C   UNL     1       4.518  -5.078  23.775  0.00  0.00    +0.000 A 
ATOM     18  C   UNL     1       5.909  -5.314  24.455  0.00  0.00    +0.000 A 
ENDBRANCH   9  12
ENDBRANCH   6   9
BRANCH   1  19
ATOM     19  C   UNL     1      10.301  -0.535  24.071  0.00  0.00    +0.000 C 
BRANCH  19  20
ATOM     20  C   UNL     1       9.959   0.418  22.954  0.00  0.00    +0.000 C 
BRANCH  20  27
ATOM     21  C   UNL     1       6.170   0.796  19.481  0.00  0.00    +0.000 A 
ATOM     22  N   UNL     1       6.031   1.880  20.479  0.00  0.00    +0.000 NA
ATOM     23  C   UNL     1       6.720   1.527  21.487  0.00  0.00    +0.000 A 
ATOM     24  C   UNL     1       7.504   0.329  22.136  0.00  0.00    +0.000 A 
ATOM     25  C   UNL     1       7.452  -0.825  21.201  0.00  0.00    +0.000 A 
ATOM     26  C   UNL     1       6.530  -0.461  20.031  0.00  0.00    +0.000 A 
ATOM     27  C   UNL     1       8.626   0.943  22.875  0.00  0.00    +0.000 C 
ATOM     28  C   UNL     1       8.585   2.440  22.530  0.00  0.00    +0.000 C 
ATOM     29  N   UNL     1       7.358   2.713  21.918  0.00  0.00    +0.000 N 
ATOM     30  H   UNL     1       7.544   3.217  21.127  0.00  0.00    +0.000 HD
ENDBRANCH  20  27
ENDBRANCH  19  20
ENDBRANCH   1  19
TORSDOF 5
ENDMDL
MODEL 7
REMARK VINA RESULT:      -7.5      2.550      6.768
REMARK  Name = 
REMARK  6 active torsions:
REMARK  status: ('A' for Active; 'I' for Inactive)
REMARK    1  A    between atoms: C_10  and  C_11
REMARK    2  A    between atoms: C_11  and  C_14
REMARK    3  A    between atoms: C_14  and  C_17
REMARK    4  A    between atoms: N_26  and  S_27
REMARK    5  A    between atoms: S_27  and  C_30
REMARK    6  A    between atoms: C_35  and  C_36
REMARK                            x       y       z     vdW  Elec       q    Type
REMARK                         _______ _______ _______ _____ _____    ______ ____
ROOT
ATOM      1  C   UNL     1       9.021  -4.478  24.857  0.00  0.00    +0.000 C 
ATOM      2  O   UNL     1       9.006  -5.557  24.264  0.00  0.00    +0.000 OA
ATOM      3  N   UNL     1       8.755  -3.348  24.180  0.00  0.00    +0.000 N 
ATOM      4  C   UNL     1       7.788  -3.397  23.074  0.00  0.00    +0.000 C 
ATOM      5  C   UNL     1       7.258  -2.000  22.776  0.00  0.00    +0.000 C 
ATOM      6  N   UNL     1       8.154  -0.964  22.834  0.00  0.00    +0.000 NA
ATOM      7  C   UNL     1       9.011  -0.980  23.943  0.00  0.00    +0.000 C 
ATOM      8  C   UNL     1       9.773  -2.303  24.033  0.00  0.00    +0.000 C 
ENDROOT
BRANCH   6   9
ATOM      9  S   UNL     1       8.554  -0.090  21.612  0.00  0.00    +0.000 S 
ATOM     10  O   UNL     1      10.080  -0.292  21.443  0.00  0.00    +0.000 OA
ATOM     11  O   UNL     1       7.995  -0.468  20.352  0.00  0.00    +0.000 OA
BRANCH   9  12
ATOM     12  C   UNL     1       8.484   1.642  21.788  0.00  0.00    +0.000 A 
ATOM     13  C   UNL     1       7.139   1.896  22.347  0.00  0.00    +0.000 A 
ATOM     14  C   UNL     1       6.812   2.659  23.539  0.00  0.00    +0.000 A 
ATOM     15  C   UNL     1       8.081   2.945  24.406  0.00  0.00    +0.000 A 
ATOM     16  C   UNL     1       7.698   2.201  25.766  0.00  0.00    +0.000 C 
ATOM     17  C   UNL     1       9.453   2.951  23.888  0.00  0.00    +0.000 A 
ATOM     18  C   UNL     1       9.602   2.277  22.483  0.00  0.00    +0.000 A 
ENDBRANCH   9  12
ENDBRANCH   6   9
BRANCH   1  19
ATOM     19  C   UNL     1       8.981  -4.442  26.354  0.00  0.00    +0.000 C 
BRANCH  19  20
ATOM     20  C   UNL     1       7.834  -5.277  26.865  0.00  0.00    +0.000 C 
BRANCH  20  27
ATOM     21  C   UNL     1       4.217  -3.968  23.435  0.00  0.00    +0.000 A 
ATOM     22  N   UNL     1       4.047  -3.156  24.661  0.00  0.00    +0.000 NA
ATOM     23  C   UNL     1       4.683  -3.762  25.580  0.00  0.00    +0.000 A 
ATOM     24  C   UNL     1       5.418  -5.102  25.949  0.00  0.00    +0.000 A 
ATOM     25  C   UNL     1       5.394  -5.991  24.758  0.00  0.00    +0.000 A 
ATOM     26  C   UNL     1       4.533  -5.330  23.675  0.00  0.00    +0.000 A 
ATOM     27  C   UNL     1       6.514  -4.714  26.861  0.00  0.00    +0.000 C 
ATOM     28  C   UNL     1       6.510  -3.177  26.891  0.00  0.00    +0.000 C 
ATOM     29  N   UNL     1       5.317  -2.733  26.314  0.00  0.00    +0.000 N 
ATOM     30  H   UNL     1       5.548  -2.056  25.679  0.00  0.00    +0.000 HD
ENDBRANCH  20  27
ENDBRANCH  19  20
ENDBRANCH   1  19
TORSDOF 5
ENDMDL
MODEL 8
REMARK VINA RESULT:      -7.4      2.211      3.546
REMARK  Name = 
REMARK  6 active torsions:
REMARK  status: ('A' for Active; 'I' for Inactive)
REMARK    1  A    between atoms: C_10  and  C_11
REMARK    2  A    between atoms: C_11  and  C_14
REMARK    3  A    between atoms: C_14  and  C_17
REMARK    4  A    between atoms: N_26  and  S_27
REMARK    5  A    between atoms: S_27  and  C_30
REMARK    6  A    between atoms: C_35  and  C_36
REMARK                            x       y       z     vdW  Elec       q    Type
REMARK                         _______ _______ _______ _____ _____    ______ ____
ROOT
ATOM      1  C   UNL     1      10.350  -0.130  23.548  0.00  0.00    +0.000 C 
ATOM      2  O   UNL     1      11.087   0.548  24.266  0.00  0.00    +0.000 OA
ATOM      3  N   UNL     1       9.524  -1.028  24.110  0.00  0.00    +0.000 N 
ATOM      4  C   UNL     1       8.946  -0.730  25.428  0.00  0.00    +0.000 C 
ATOM      5  C   UNL     1       7.701  -1.578  25.661  0.00  0.00    +0.000 C 
ATOM      6  N   UNL     1       7.739  -2.878  25.229  0.00  0.00    +0.000 NA
ATOM      7  C   UNL     1       8.273  -3.063  23.945  0.00  0.00    +0.000 C 
ATOM      8  C   UNL     1       9.676  -2.462  23.839  0.00  0.00    +0.000 C 
ENDROOT
BRANCH   6   9
ATOM      9  S   UNL     1       7.654  -4.112  26.170  0.00  0.00    +0.000 S 
ATOM     10  O   UNL     1       7.552  -5.340  25.232  0.00  0.00    +0.000 OA
ATOM     11  O   UNL     1       8.800  -4.369  26.984  0.00  0.00    +0.000 OA
BRANCH   9  12
ATOM     12  C   UNL     1       6.206  -4.319  27.118  0.00  0.00    +0.000 A 
ATOM     13  C   UNL     1       5.107  -4.057  26.164  0.00  0.00    +0.000 A 
ATOM     14  C   UNL     1       3.969  -4.911  25.876  0.00  0.00    +0.000 A 
ATOM     15  C   UNL     1       4.167  -6.350  26.456  0.00  0.00    +0.000 A 
ATOM     16  C   UNL     1       4.127  -7.226  25.122  0.00  0.00    +0.000 C 
ATOM     17  C   UNL     1       5.064  -6.676  27.569  0.00  0.00    +0.000 A 
ATOM     18  C   UNL     1       6.102  -5.551  27.897  0.00  0.00    +0.000 A 
ENDBRANCH   9  12
ENDBRANCH   6   9
BRANCH   1  19
ATOM     19  C   UNL     1      10.112   0.270  22.125  0.00  0.00    +0.000 C 
BRANCH  19  20
ATOM     20  C   UNL     1       9.802   1.743  22.042  0.00  0.00    +0.000 C 
BRANCH  20  27
ATOM     21  C   UNL     1       6.335   1.882  25.852  0.00  0.00    +0.000 A 
ATOM     22  N   UNL     1       5.632   1.860  24.550  0.00  0.00    +0.000 NA
ATOM     23  C   UNL     1       6.488   2.208  23.677  0.00  0.00    +0.000 A 
ATOM     24  C   UNL     1       7.927   2.809  23.474  0.00  0.00    +0.000 A 
ATOM     25  C   UNL     1       8.538   3.019  24.812  0.00  0.00    +0.000 A 
ATOM     26  C   UNL     1       7.483   2.715  25.883  0.00  0.00    +0.000 A 
ATOM     27  C   UNL     1       8.450   2.178  22.245  0.00  0.00    +0.000 C 
ATOM     28  C   UNL     1       7.407   1.124  21.840  0.00  0.00    +0.000 C 
ATOM     29  N   UNL     1       6.242   1.358  22.575  0.00  0.00    +0.000 N 
ATOM     30  H   UNL     1       5.969   0.518  22.943  0.00  0.00    +0.000 HD
ENDBRANCH  20  27
ENDBRANCH  19  20
ENDBRANCH   1  19
TORSDOF 5
ENDMDL
MODEL 9
REMARK VINA RESULT:      -7.4      2.058      3.276
REMARK  Name = 
REMARK  6 active torsions:
REMARK  status: ('A' for Active; 'I' for Inactive)
REMARK    1  A    between atoms: C_10  and  C_11
REMARK    2  A    between atoms: C_11  and  C_14
REMARK    3  A    between atoms: C_14  and  C_17
REMARK    4  A    between atoms: N_26  and  S_27
REMARK    5  A    between atoms: S_27  and  C_30
REMARK    6  A    between atoms: C_35  and  C_36
REMARK                            x       y       z     vdW  Elec       q    Type
REMARK                         _______ _______ _______ _____ _____    ______ ____
ROOT
ATOM      1  C   UNL     1       9.917  -1.097  22.921  0.00  0.00    +0.000 C 
ATOM      2  O   UNL     1      10.444  -1.753  22.021  0.00  0.00    +0.000 OA
ATOM      3  N   UNL     1       9.208  -1.728  23.871  0.00  0.00    +0.000 N 
ATOM      4  C   UNL     1       9.629  -3.072  24.293  0.00  0.00    +0.000 C 
ATOM      5  C   UNL     1       9.048  -3.400  25.663  0.00  0.00    +0.000 C 
ATOM      6  N   UNL     1       7.762  -2.996  25.911  0.00  0.00    +0.000 NA
ATOM      7  C   UNL     1       7.461  -1.687  25.508  0.00  0.00    +0.000 C 
ATOM      8  C   UNL     1       7.770  -1.482  24.024  0.00  0.00    +0.000 C 
ENDROOT
BRANCH   6   9
ATOM      9  S   UNL     1       6.580  -3.970  26.178  0.00  0.00    +0.000 S 
ATOM     10  O   UNL     1       6.852  -4.575  27.578  0.00  0.00    +0.000 OA
ATOM     11  O   UNL     1       5.283  -3.379  26.282  0.00  0.00    +0.000 OA
BRANCH   9  12
ATOM     12  C   UNL     1       6.486  -5.424  25.221  0.00  0.00    +0.000 A 
ATOM     13  C   UNL     1       5.289  -6.121  25.737  0.00  0.00    +0.000 A 
ATOM     14  C   UNL     1       4.157  -6.612  24.971  0.00  0.00    +0.000 A 
ATOM     15  C   UNL     1       4.155  -6.039  23.516  0.00  0.00    +0.000 A 
ATOM     16  C   UNL     1       2.775  -5.237  23.504  0.00  0.00    +0.000 C 
ATOM     17  C   UNL     1       5.347  -5.538  22.822  0.00  0.00    +0.000 A 
ATOM     18  C   UNL     1       6.561  -5.260  23.770  0.00  0.00    +0.000 A 
ENDBRANCH   9  12
ENDBRANCH   6   9
BRANCH   1  19
ATOM     19  C   UNL     1      10.341   0.319  23.167  0.00  0.00    +0.000 C 
BRANCH  19  20
ATOM     20  C   UNL     1       9.935   1.193  22.008  0.00  0.00    +0.000 C 
BRANCH  20  27
ATOM     21  C   UNL     1       5.999   1.737  25.289  0.00  0.00    +0.000 A 
ATOM     22  N   UNL     1       5.526   1.992  23.910  0.00  0.00    +0.000 NA
ATOM     23  C   UNL     1       6.565   2.223  23.215  0.00  0.00    +0.000 A 
ATOM     24  C   UNL     1       8.109   2.508  23.290  0.00  0.00    +0.000 A 
ATOM     25  C   UNL     1       8.526   2.453  24.715  0.00  0.00    +0.000 A 
ATOM     26  C   UNL     1       7.272   2.291  25.583  0.00  0.00    +0.000 A 
ATOM     27  C   UNL     1       8.685   1.895  22.075  0.00  0.00    +0.000 C 
ATOM     28  C   UNL     1       7.529   1.139  21.400  0.00  0.00    +0.000 C 
ATOM     29  N   UNL     1       6.332   1.554  21.992  0.00  0.00    +0.000 N 
ATOM     30  H   UNL     1       5.838   0.765  22.209  0.00  0.00    +0.000 HD
ENDBRANCH  20  27
ENDBRANCH  19  20
ENDBRANCH   1  19
TORSDOF 5
ENDMDL
