MODEL 1
REMARK VINA RESULT:      -8.6      0.000      0.000
REMARK  Name = 
REMARK  6 active torsions:
REMARK  status: ('A' for Active; 'I' for Inactive)
REMARK    1  A    between atoms: C_7  and  C_8
REMARK    2  A    between atoms: C_8  and  N_11
REMARK    3  A    between atoms: C_21  and  N_23
REMARK    4  A    between atoms: N_30  and  C_31
REMARK    5  A    between atoms: C_31  and  C_34
REMARK    6  A    between atoms: C_57  and  C_59
REMARK                            x       y       z     vdW  Elec       q    Type
REMARK                         _______ _______ _______ _____ _____    ______ ____
ROOT
ATOM      1  N   UNL     1       9.295  -1.047  24.619  0.00  0.00    +0.000 NA
ATOM      2  C   UNL     1       9.431  -2.241  23.962  0.00  0.00    +0.000 C 
ATOM      3  C   UNL     1       8.943  -3.476  24.769  0.00  0.00    +0.000 C 
ATOM      4  N   UNL     1       7.784  -3.202  25.515  0.00  0.00    +0.000 NA
ATOM      5  C   UNL     1       8.063  -2.218  26.450  0.00  0.00    +0.000 C 
ATOM      6  C   UNL     1       9.099  -1.173  25.992  0.00  0.00    +0.000 C 
ENDROOT
BRANCH   1  11
ATOM      7  N   UNL     1       8.736   2.045  22.777  0.00  0.00    +0.000 NA
ATOM      8  C   UNL     1       9.890   2.765  23.011  0.00  0.00    +0.000 C 
ATOM      9  C   UNL     1      10.963   2.182  23.858  0.00  0.00    +0.000 C 
ATOM     10  C   UNL     1      10.828   0.785  24.326  0.00  0.00    +0.000 C 
ATOM     11  C   UNL     1       9.508   0.100  23.962  0.00  0.00    +0.000 C 
ATOM     12  C   UNL     1       8.396   1.138  23.842  0.00  0.00    +0.000 C 
ATOM     13  C   UNL     1       8.104   1.930  25.077  0.00  0.00    +0.000 C 
BRANCH   7  14
ATOM     14  C   UNL     1       7.931   2.399  21.796  0.00  0.00    +0.000 C 
BRANCH  14  18
ATOM     15  C   UNL     1       6.172   0.420  18.362  0.00  0.00    +0.000 A 
ATOM     16  C   UNL     1       5.501   1.445  19.244  0.00  0.00    +0.000 A 
ATOM     17  C   UNL     1       5.758   1.767  20.642  0.00  0.00    +0.000 A 
ATOM     18  C   UNL     1       7.157   1.210  21.077  0.00  0.00    +0.000 A 
ATOM     19  C   UNL     1       7.878   0.167  20.375  0.00  0.00    +0.000 A 
ATOM     20  C   UNL     1       7.486   0.012  18.887  0.00  0.00    +0.000 A 
ENDBRANCH  14  18
ENDBRANCH   7  14
ENDBRANCH   1  11
BRANCH   4  21
ATOM     21  C   UNL     1       6.618  -3.660  25.167  0.00  0.00    +0.000 C 
BRANCH  21  22
ATOM     22  C   UNL     1       5.605  -3.258  24.161  0.00  0.00    +0.000 A 
ATOM     23  C   UNL     1       4.418  -3.433  24.879  0.00  0.00    +0.000 A 
ATOM     24  C   UNL     1       3.379  -4.601  25.017  0.00  0.00    +0.000 A 
ATOM     25  C   UNL     1       3.772  -5.370  23.708  0.00  0.00    +0.000 A 
ATOM     26  C   UNL     1       4.394  -5.183  22.674  0.00  0.00    +0.000 A 
ATOM     27  C   UNL     1       5.634  -5.899  22.769  0.00  0.00    +0.000 A 
ATOM     28  C   UNL     1       6.870  -6.100  22.207  0.00  0.00    +0.000 A 
ATOM     29  C   UNL     1       7.038  -4.587  21.806  0.00  0.00    +0.000 A 
ATOM     30  C   UNL     1       6.031  -3.635  21.867  0.00  0.00    +0.000 A 
ATOM     31  C   UNL     1       5.092  -3.675  22.841  0.00  0.00    +0.000 A 
ENDBRANCH  21  22
ENDBRANCH   4  21
TORSDOF 5
ENDMDL
MODEL 2
REMARK VINA RESULT:      -8.2      1.547      7.320
REMARK  Name = 
REMARK  6 active torsions:
REMARK  status: ('A' for Active; 'I' for Inactive)
REMARK    1  A    between atoms: C_7  and  C_8
REMARK    2  A    between atoms: C_8  and  N_11
REMARK    3  A    between atoms: C_21  and  N_23
REMARK    4  A    between atoms: N_30  and  C_31
REMARK    5  A    between atoms: C_31  and  C_34
REMARK    6  A    between atoms: C_57  and  C_59
REMARK                            x       y       z     vdW  Elec       q    Type
REMARK                         _______ _______ _______ _____ _____    ______ ____
ROOT
ATOM      1  N   UNL     1       7.823  -3.538  24.436  0.00  0.00    +0.000 NA
ATOM      2  C   UNL     1       7.365  -2.891  25.552  0.00  0.00    +0.000 C 
ATOM      3  C   UNL     1       8.305  -1.769  26.074  0.00  0.00    +0.000 C 
ATOM      4  N   UNL     1       8.907  -1.047  25.029  0.00  0.00    +0.000 NA
ATOM      5  C   UNL     1       9.704  -1.900  24.283  0.00  0.00    +0.000 C 
ATOM      6  C   UNL     1       9.180  -3.346  24.185  0.00  0.00    +0.000 C 
ENDROOT
BRANCH   1  11
ATOM      7  N   UNL     1       4.864  -5.090  22.985  0.00  0.00    +0.000 NA
ATOM      8  C   UNL     1       5.387  -5.914  22.008  0.00  0.00    +0.000 C 
ATOM      9  C   UNL     1       6.857  -5.969  21.801  0.00  0.00    +0.000 C 
ATOM     10  C   UNL     1       7.742  -5.239  22.735  0.00  0.00    +0.000 C 
ATOM     11  C   UNL     1       7.021  -4.393  23.788  0.00  0.00    +0.000 C 
ATOM     12  C   UNL     1       5.671  -3.928  23.251  0.00  0.00    +0.000 C 
ATOM     13  C   UNL     1       5.714  -3.077  22.021  0.00  0.00    +0.000 C 
BRANCH   7  14
ATOM     14  C   UNL     1       3.622  -5.260  23.390  0.00  0.00    +0.000 C 
BRANCH  14  18
ATOM     15  C   UNL     1       4.976  -5.347  27.508  0.00  0.00    +0.000 A 
ATOM     16  C   UNL     1       5.154  -6.443  26.485  0.00  0.00    +0.000 A 
ATOM     17  C   UNL     1       4.341  -6.752  25.316  0.00  0.00    +0.000 A 
ATOM     18  C   UNL     1       3.436  -5.527  24.947  0.00  0.00    +0.000 A 
ATOM     19  C   UNL     1       3.110  -4.445  25.855  0.00  0.00    +0.000 A 
ATOM     20  C   UNL     1       4.122  -4.256  27.009  0.00  0.00    +0.000 A 
ENDBRANCH  14  18
ENDBRANCH   7  14
ENDBRANCH   1  11
BRANCH   4  21
ATOM     21  C   UNL     1       8.539   0.163  24.729  0.00  0.00    +0.000 C 
BRANCH  21  22
ATOM     22  C   UNL     1       9.232   1.346  24.160  0.00  0.00    +0.000 A 
ATOM     23  C   UNL     1       8.622   2.388  24.864  0.00  0.00    +0.000 A 
ATOM     24  C   UNL     1       7.407   3.341  24.585  0.00  0.00    +0.000 A 
ATOM     25  C   UNL     1       7.352   3.140  23.031  0.00  0.00    +0.000 A 
ATOM     26  C   UNL     1       8.049   2.706  22.127  0.00  0.00    +0.000 A 
ATOM     27  C   UNL     1       7.511   1.439  21.722  0.00  0.00    +0.000 A 
ATOM     28  C   UNL     1       7.722   0.307  20.976  0.00  0.00    +0.000 A 
ATOM     29  C   UNL     1       9.263   0.270  21.294  0.00  0.00    +0.000 A 
ATOM     30  C   UNL     1       9.968   1.291  21.914  0.00  0.00    +0.000 A 
ATOM     31  C   UNL     1       9.392   2.054  22.874  0.00  0.00    +0.000 A 
ENDBRANCH  21  22
ENDBRANCH   4  21
TORSDOF 5
ENDMDL
MODEL 3
REMARK VINA RESULT:      -8.0      0.858      2.098
REMARK  Name = 
REMARK  6 active torsions:
REMARK  status: ('A' for Active; 'I' for Inactive)
REMARK    1  A    between atoms: C_7  and  C_8
REMARK    2  A    between atoms: C_8  and  N_11
REMARK    3  A    between atoms: C_21  and  N_23
REMARK    4  A    between atoms: N_30  and  C_31
REMARK    5  A    between atoms: C_31  and  C_34
REMARK    6  A    between atoms: C_57  and  C_59
REMARK                            x       y       z     vdW  Elec       q    Type
REMARK                         _______ _______ _______ _____ _____    ______ ____
ROOT
ATOM      1  N   UNL     1       9.360  -0.660  24.321  0.00  0.00    +0.000 NA
ATOM      2  C   UNL     1       9.738  -1.755  23.592  0.00  0.00    +0.000 C 
ATOM      3  C   UNL     1       9.477  -3.116  24.295  0.00  0.00    +0.000 C 
ATOM      4  N   UNL     1       8.269  -3.122  25.016  0.00  0.00    +0.000 NA
ATOM      5  C   UNL     1       8.332  -2.174  26.023  0.00  0.00    +0.000 C 
ATOM      6  C   UNL     1       9.159  -0.920  25.675  0.00  0.00    +0.000 C 
ENDROOT
BRANCH   1  11
ATOM      7  N   UNL     1       8.260   2.395  22.669  0.00  0.00    +0.000 NA
ATOM      8  C   UNL     1       9.247   3.303  22.995  0.00  0.00    +0.000 C 
ATOM      9  C   UNL     1      10.391   2.875  23.843  0.00  0.00    +0.000 C 
ATOM     10  C   UNL     1      10.516   1.448  24.211  0.00  0.00    +0.000 C 
ATOM     11  C   UNL     1       9.363   0.552  23.751  0.00  0.00    +0.000 C 
ATOM     12  C   UNL     1       8.075   1.365  23.657  0.00  0.00    +0.000 C 
ATOM     13  C   UNL     1       7.605   1.994  24.930  0.00  0.00    +0.000 C 
BRANCH   7  14
ATOM     14  C   UNL     1       7.427   2.659  21.684  0.00  0.00    +0.000 C 
BRANCH  14  18
ATOM     15  C   UNL     1       6.087   0.474  18.186  0.00  0.00    +0.000 A 
ATOM     16  C   UNL     1       5.269   1.445  19.001  0.00  0.00    +0.000 A 
ATOM     17  C   UNL     1       5.402   1.811  20.406  0.00  0.00    +0.000 A 
ATOM     18  C   UNL     1       6.814   1.392  20.942  0.00  0.00    +0.000 A 
ATOM     19  C   UNL     1       7.672   0.410  20.310  0.00  0.00    +0.000 A 
ATOM     20  C   UNL     1       7.395   0.197  18.803  0.00  0.00    +0.000 A 
ENDBRANCH  14  18
ENDBRANCH   7  14
ENDBRANCH   1  11
BRANCH   4  21
ATOM     21  C   UNL     1       7.222  -3.767  24.595  0.00  0.00    +0.000 C 
BRANCH  21  22
ATOM     22  C   UNL     1       6.886  -5.203  24.430  0.00  0.00    +0.000 A 
ATOM     23  C   UNL     1       7.454  -5.477  23.182  0.00  0.00    +0.000 A 
ATOM     24  C   UNL     1       6.914  -5.491  21.708  0.00  0.00    +0.000 A 
ATOM     25  C   UNL     1       5.390  -5.598  22.057  0.00  0.00    +0.000 A 
ATOM     26  C   UNL     1       4.672  -5.878  23.006  0.00  0.00    +0.000 A 
ATOM     27  C   UNL     1       4.101  -4.659  23.502  0.00  0.00    +0.000 A 
ATOM     28  C   UNL     1       3.391  -4.075  24.521  0.00  0.00    +0.000 A 
ATOM     29  C   UNL     1       4.083  -4.951  25.631  0.00  0.00    +0.000 A 
ATOM     30  C   UNL     1       4.895  -6.048  25.383  0.00  0.00    +0.000 A 
ATOM     31  C   UNL     1       5.707  -6.083  24.300  0.00  0.00    +0.000 A 
ENDBRANCH  21  22
ENDBRANCH   4  21
TORSDOF 5
ENDMDL
MODEL 4
REMARK VINA RESULT:      -8.0      1.588      6.799
REMARK  Name = 
REMARK  6 active torsions:
REMARK  status: ('A' for Active; 'I' for Inactive)
REMARK    1  A    between atoms: C_7  and  C_8
REMARK    2  A    between atoms: C_8  and  N_11
REMARK    3  A    between atoms: C_21  and  N_23
REMARK    4  A    between atoms: N_30  and  C_31
REMARK    5  A    between atoms: C_31  and  C_34
REMARK    6  A    between atoms: C_57  and  C_59
REMARK                            x       y       z     vdW  Elec       q    Type
REMARK                         _______ _______ _______ _____ _____    ______ ____
ROOT
ATOM      1  N   UNL     1       7.478  -2.745  26.061  0.00  0.00    +0.000 NA
ATOM      2  C   UNL     1       7.676  -1.731  26.958  0.00  0.00    +0.000 C 
ATOM      3  C   UNL     1       8.936  -0.864  26.680  0.00  0.00    +0.000 C 
ATOM      4  N   UNL     1       9.146  -0.651  25.307  0.00  0.00    +0.000 NA
ATOM      5  C   UNL     1       9.370  -1.868  24.684  0.00  0.00    +0.000 C 
ATOM      6  C   UNL     1       8.602  -3.055  25.297  0.00  0.00    +0.000 C 
ENDROOT
BRANCH   1  11
ATOM      7  N   UNL     1       5.048  -5.430  25.672  0.00  0.00    +0.000 NA
ATOM      8  C   UNL     1       4.065  -5.101  26.583  0.00  0.00    +0.000 C 
ATOM      9  C   UNL     1       4.209  -3.875  27.411  0.00  0.00    +0.000 C 
ATOM     10  C   UNL     1       5.342  -2.961  27.148  0.00  0.00    +0.000 C 
ATOM     11  C   UNL     1       6.335  -3.441  26.086  0.00  0.00    +0.000 C 
ATOM     12  C   UNL     1       6.359  -4.967  26.045  0.00  0.00    +0.000 C 
ATOM     13  C   UNL     1       6.771  -5.649  27.310  0.00  0.00    +0.000 C 
BRANCH   7  14
ATOM     14  C   UNL     1       4.797  -6.314  24.727  0.00  0.00    +0.000 C 
BRANCH  14  18
ATOM     15  C   UNL     1       6.613  -3.731  21.756  0.00  0.00    +0.000 A 
ATOM     16  C   UNL     1       5.323  -3.474  22.495  0.00  0.00    +0.000 A 
ATOM     17  C   UNL     1       4.387  -4.429  23.075  0.00  0.00    +0.000 A 
ATOM     18  C   UNL     1       5.073  -5.828  23.238  0.00  0.00    +0.000 A 
ATOM     19  C   UNL     1       6.267  -6.243  22.527  0.00  0.00    +0.000 A 
ATOM     20  C   UNL     1       7.149  -5.076  22.026  0.00  0.00    +0.000 A 
ENDBRANCH  14  18
ENDBRANCH   7  14
ENDBRANCH   1  11
BRANCH   4  21
ATOM     21  C   UNL     1       8.911   0.498  24.746  0.00  0.00    +0.000 C 
BRANCH  21  22
ATOM     22  C   UNL     1       9.594   1.300  23.702  0.00  0.00    +0.000 A 
ATOM     23  C   UNL     1       9.394   2.600  24.177  0.00  0.00    +0.000 A 
ATOM     24  C   UNL     1       8.324   3.716  23.908  0.00  0.00    +0.000 A 
ATOM     25  C   UNL     1       7.791   3.153  22.545  0.00  0.00    +0.000 A 
ATOM     26  C   UNL     1       8.116   2.354  21.680  0.00  0.00    +0.000 A 
ATOM     27  C   UNL     1       7.283   1.194  21.815  0.00  0.00    +0.000 A 
ATOM     28  C   UNL     1       7.081  -0.105  21.420  0.00  0.00    +0.000 A 
ATOM     29  C   UNL     1       8.620  -0.429  21.372  0.00  0.00    +0.000 A 
ATOM     30  C   UNL     1       9.632   0.514  21.472  0.00  0.00    +0.000 A 
ATOM     31  C   UNL     1       9.491   1.606  22.261  0.00  0.00    +0.000 A 
ENDBRANCH  21  22
ENDBRANCH   4  21
TORSDOF 5
ENDMDL
MODEL 5
REMARK VINA RESULT:      -7.8      1.746      2.619
REMARK  Name = 
REMARK  6 active torsions:
REMARK  status: ('A' for Active; 'I' for Inactive)
REMARK    1  A    between atoms: C_7  and  C_8
REMARK    2  A    between atoms: C_8  and  N_11
REMARK    3  A    between atoms: C_21  and  N_23
REMARK    4  A    between atoms: N_30  and  C_31
REMARK    5  A    between atoms: C_31  and  C_34
REMARK    6  A    between atoms: C_57  and  C_59
REMARK                            x       y       z     vdW  Elec       q    Type
REMARK                         _______ _______ _______ _____ _____    ______ ____
ROOT
ATOM      1  N   UNL     1       8.919  -1.702  24.631  0.00  0.00    +0.000 NA
ATOM      2  C   UNL     1       9.356  -2.928  24.208  0.00  0.00    +0.000 C 
ATOM      3  C   UNL     1       9.093  -4.084  25.213  0.00  0.00    +0.000 C 
ATOM      4  N   UNL     1       7.854  -3.955  25.863  0.00  0.00    +0.000 NA
ATOM      5  C   UNL     1       7.847  -2.788  26.609  0.00  0.00    +0.000 C 
ATOM      6  C   UNL     1       8.660  -1.630  25.998  0.00  0.00    +0.000 C 
ENDROOT
BRANCH   1  11
ATOM      7  N   UNL     1       9.008   1.688  23.301  0.00  0.00    +0.000 NA
ATOM      8  C   UNL     1       9.432   1.507  22.000  0.00  0.00    +0.000 C 
ATOM      9  C   UNL     1       9.719   0.135  21.504  0.00  0.00    +0.000 C 
ATOM     10  C   UNL     1       9.418  -1.021  22.377  0.00  0.00    +0.000 C 
ATOM     11  C   UNL     1       8.922  -0.667  23.781  0.00  0.00    +0.000 C 
ATOM     12  C   UNL     1       9.490   0.683  24.211  0.00  0.00    +0.000 C 
ATOM     13  C   UNL     1      10.982   0.771  24.283  0.00  0.00    +0.000 C 
BRANCH   7  14
ATOM     14  C   UNL     1       8.456   2.831  23.657  0.00  0.00    +0.000 C 
BRANCH  14  18
ATOM     15  C   UNL     1       4.615   4.694  22.899  0.00  0.00    +0.000 A 
ATOM     16  C   UNL     1       4.857   3.236  23.205  0.00  0.00    +0.000 A 
ATOM     17  C   UNL     1       6.046   2.429  22.964  0.00  0.00    +0.000 A 
ATOM     18  C   UNL     1       7.286   3.353  22.714  0.00  0.00    +0.000 A 
ATOM     19  C   UNL     1       7.204   4.749  22.331  0.00  0.00    +0.000 A 
ATOM     20  C   UNL     1       5.872   5.437  22.713  0.00  0.00    +0.000 A 
ENDBRANCH  14  18
ENDBRANCH   7  14
ENDBRANCH   1  11
BRANCH   4  21
ATOM     21  C   UNL     1       6.842  -4.718  25.572  0.00  0.00    +0.000 C 
BRANCH  21  22
ATOM     22  C   UNL     1       5.480  -4.474  25.036  0.00  0.00    +0.000 A 
ATOM     23  C   UNL     1       4.743  -5.462  25.696  0.00  0.00    +0.000 A 
ATOM     24  C   UNL     1       4.295  -6.923  25.338  0.00  0.00    +0.000 A 
ATOM     25  C   UNL     1       4.480  -6.810  23.785  0.00  0.00    +0.000 A 
ATOM     26  C   UNL     1       4.615  -5.952  22.926  0.00  0.00    +0.000 A 
ATOM     27  C   UNL     1       5.985  -5.966  22.500  0.00  0.00    +0.000 A 
ATOM     28  C   UNL     1       6.951  -5.314  21.775  0.00  0.00    +0.000 A 
ATOM     29  C   UNL     1       6.428  -3.887  22.185  0.00  0.00    +0.000 A 
ATOM     30  C   UNL     1       5.229  -3.640  22.838  0.00  0.00    +0.000 A 
ATOM     31  C   UNL     1       4.744  -4.509  23.756  0.00  0.00    +0.000 A 
ENDBRANCH  21  22
ENDBRANCH   4  21
TORSDOF 5
ENDMDL
MODEL 6
REMARK VINA RESULT:      -7.6      1.581      2.473
REMARK  Name = 
REMARK  6 active torsions:
REMARK  status: ('A' for Active; 'I' for Inactive)
REMARK    1  A    between atoms: C_7  and  C_8
REMARK    2  A    between atoms: C_8  and  N_11
REMARK    3  A    between atoms: C_21  and  N_23
REMARK    4  A    between atoms: N_30  and  C_31
REMARK    5  A    between atoms: C_31  and  C_34
REMARK    6  A    between atoms: C_57  and  C_59
REMARK                            x       y       z     vdW  Elec       q    Type
REMARK                         _______ _______ _______ _____ _____    ______ ____
ROOT
ATOM      1  N   UNL     1       8.733  -2.510  23.653  0.00  0.00    +0.000 NA
ATOM      2  C   UNL     1       7.832  -3.247  22.933  0.00  0.00    +0.000 C 
ATOM      3  C   UNL     1       7.827  -4.764  23.270  0.00  0.00    +0.000 C 
ATOM      4  N   UNL     1       8.010  -5.007  24.642  0.00  0.00    +0.000 NA
ATOM      5  C   UNL     1       9.251  -4.530  25.031  0.00  0.00    +0.000 C 
ATOM      6  C   UNL     1       9.721  -3.271  24.275  0.00  0.00    +0.000 C 
ENDROOT
BRANCH   1  11
ATOM      7  N   UNL     1       7.532   0.919  23.402  0.00  0.00    +0.000 NA
ATOM      8  C   UNL     1       8.568   1.657  23.940  0.00  0.00    +0.000 C 
ATOM      9  C   UNL     1       9.785   0.963  24.437  0.00  0.00    +0.000 C 
ATOM     10  C   UNL     1       9.917  -0.495  24.223  0.00  0.00    +0.000 C 
ATOM     11  C   UNL     1       8.703  -1.174  23.585  0.00  0.00    +0.000 C 
ATOM     12  C   UNL     1       7.430  -0.411  23.942  0.00  0.00    +0.000 C 
ATOM     13  C   UNL     1       7.111  -0.318  25.401  0.00  0.00    +0.000 C 
BRANCH   7  14
ATOM     14  C   UNL     1       6.605   1.519  22.684  0.00  0.00    +0.000 C 
BRANCH  14  18
ATOM     15  C   UNL     1       6.915  -0.151  18.695  0.00  0.00    +0.000 A 
ATOM     16  C   UNL     1       7.998  -0.141  19.747  0.00  0.00    +0.000 A 
ATOM     17  C   UNL     1       8.202   0.789  20.849  0.00  0.00    +0.000 A 
ATOM     18  C   UNL     1       6.891   1.603  21.122  0.00  0.00    +0.000 A 
ATOM     19  C   UNL     1       5.807   1.751  20.171  0.00  0.00    +0.000 A 
ATOM     20  C   UNL     1       5.739   0.635  19.102  0.00  0.00    +0.000 A 
ENDBRANCH  14  18
ENDBRANCH   7  14
ENDBRANCH   1  11
BRANCH   4  21
ATOM     21  C   UNL     1       7.034  -5.398  25.407  0.00  0.00    +0.000 C 
BRANCH  21  22
ATOM     22  C   UNL     1       5.889  -4.713  26.058  0.00  0.00    +0.000 A 
ATOM     23  C   UNL     1       5.749  -5.463  27.228  0.00  0.00    +0.000 A 
ATOM     24  C   UNL     1       4.865  -6.690  27.649  0.00  0.00    +0.000 A 
ATOM     25  C   UNL     1       3.781  -6.546  26.525  0.00  0.00    +0.000 A 
ATOM     26  C   UNL     1       3.389  -5.720  25.714  0.00  0.00    +0.000 A 
ATOM     27  C   UNL     1       3.838  -6.130  24.415  0.00  0.00    +0.000 A 
ATOM     28  C   UNL     1       3.981  -5.764  23.099  0.00  0.00    +0.000 A 
ATOM     29  C   UNL     1       4.339  -4.273  23.455  0.00  0.00    +0.000 A 
ATOM     30  C   UNL     1       4.220  -3.709  24.717  0.00  0.00    +0.000 A 
ATOM     31  C   UNL     1       4.455  -4.441  25.832  0.00  0.00    +0.000 A 
ENDBRANCH  21  22
ENDBRANCH   4  21
TORSDOF 5
ENDMDL
MODEL 7
REMARK VINA RESULT:      -7.6      1.727      7.016
REMARK  Name = 
REMARK  6 active torsions:
REMARK  status: ('A' for Active; 'I' for Inactive)
REMARK    1  A    between atoms: C_7  and  C_8
REMARK    2  A    between atoms: C_8  and  N_11
REMARK    3  A    between atoms: C_21  and  N_23
REMARK    4  A    between atoms: N_30  and  C_31
REMARK    5  A    between atoms: C_31  and  C_34
REMARK    6  A    between atoms: C_57  and  C_59
REMARK                            x       y       z     vdW  Elec       q    Type
REMARK                         _______ _______ _______ _____ _____    ______ ____
ROOT
ATOM      1  N   UNL     1       6.738  -2.526  25.956  0.00  0.00    +0.000 NA
ATOM      2  C   UNL     1       6.448  -1.333  26.561  0.00  0.00    +0.000 C 
ATOM      3  C   UNL     1       7.268  -0.126  26.027  0.00  0.00    +0.000 C 
ATOM      4  N   UNL     1       7.467  -0.189  24.637  0.00  0.00    +0.000 NA
ATOM      5  C   UNL     1       8.204  -1.321  24.330  0.00  0.00    +0.000 C 
ATOM      6  C   UNL     1       7.940  -2.529  25.251  0.00  0.00    +0.000 C 
ENDROOT
BRANCH   1  11
ATOM      7  N   UNL     1       5.291  -5.864  25.770  0.00  0.00    +0.000 NA
ATOM      8  C   UNL     1       4.721  -6.031  27.016  0.00  0.00    +0.000 C 
ATOM      9  C   UNL     1       4.819  -4.942  28.022  0.00  0.00    +0.000 C 
ATOM     10  C   UNL     1       5.412  -3.646  27.622  0.00  0.00    +0.000 C 
ATOM     11  C   UNL     1       5.972  -3.597  26.199  0.00  0.00    +0.000 C 
ATOM     12  C   UNL     1       6.433  -4.988  25.771  0.00  0.00    +0.000 C 
ATOM     13  C   UNL     1       7.514  -5.604  26.601  0.00  0.00    +0.000 C 
BRANCH   7  14
ATOM     14  C   UNL     1       4.950  -6.665  24.781  0.00  0.00    +0.000 C 
BRANCH  14  18
ATOM     15  C   UNL     1       6.285  -3.681  21.932  0.00  0.00    +0.000 A 
ATOM     16  C   UNL     1       4.996  -3.655  22.717  0.00  0.00    +0.000 A 
ATOM     17  C   UNL     1       4.224  -4.766  23.259  0.00  0.00    +0.000 A 
ATOM     18  C   UNL     1       5.106  -6.059  23.318  0.00  0.00    +0.000 A 
ATOM     19  C   UNL     1       6.322  -6.258  22.554  0.00  0.00    +0.000 A 
ATOM     20  C   UNL     1       7.014  -4.949  22.106  0.00  0.00    +0.000 A 
ENDBRANCH  14  18
ENDBRANCH   7  14
ENDBRANCH   1  11
BRANCH   4  21
ATOM     21  C   UNL     1       6.828   0.590  23.816  0.00  0.00    +0.000 C 
BRANCH  21  22
ATOM     22  C   UNL     1       7.236   1.472  22.694  0.00  0.00    +0.000 A 
ATOM     23  C   UNL     1       7.076   0.617  21.600  0.00  0.00    +0.000 A 
ATOM     24  C   UNL     1       8.032  -0.337  20.801  0.00  0.00    +0.000 A 
ATOM     25  C   UNL     1       9.384   0.310  21.259  0.00  0.00    +0.000 A 
ATOM     26  C   UNL     1       9.792   1.337  21.782  0.00  0.00    +0.000 A 
ATOM     27  C   UNL     1      10.155   1.030  23.135  0.00  0.00    +0.000 A 
ATOM     28  C   UNL     1      10.512   1.546  24.356  0.00  0.00    +0.000 A 
ATOM     29  C   UNL     1       9.543   2.780  24.222  0.00  0.00    +0.000 A 
ATOM     30  C   UNL     1       8.872   3.138  23.062  0.00  0.00    +0.000 A 
ATOM     31  C   UNL     1       8.423   2.197  22.198  0.00  0.00    +0.000 A 
ENDBRANCH  21  22
ENDBRANCH   4  21
TORSDOF 5
ENDMDL
MODEL 8
REMARK VINA RESULT:      -7.5      1.873      3.619
REMARK  Name = 
REMARK  6 active torsions:
REMARK  status: ('A' for Active; 'I' for Inactive)
REMARK    1  A    between atoms: C_7  and  C_8
REMARK    2  A    between atoms: C_8  and  N_11
REMARK    3  A    between atoms: C_21  and  N_23
REMARK    4  A    between atoms: N_30  and  C_31
REMARK    5  A    between atoms: C_31  and  C_34
REMARK    6  A    between atoms: C_57  and  C_59
REMARK                            x       y       z     vdW  Elec       q    Type
REMARK                         _______ _______ _______ _____ _____    ______ ____
ROOT
ATOM      1  N   UNL     1       8.625  -2.095  24.734  0.00  0.00    +0.000 NA
ATOM      2  C   UNL     1       9.066  -3.383  24.589  0.00  0.00    +0.000 C 
ATOM      3  C   UNL     1       8.685  -4.328  25.762  0.00  0.00    +0.000 C 
ATOM      4  N   UNL     1       7.397  -4.068  26.261  0.00  0.00    +0.000 NA
ATOM      5  C   UNL     1       7.355  -2.781  26.773  0.00  0.00    +0.000 C 
ATOM      6  C   UNL     1       8.250  -1.767  26.034  0.00  0.00    +0.000 C 
ENDROOT
BRANCH   1  11
ATOM      7  N   UNL     1       9.045   0.970  22.812  0.00  0.00    +0.000 NA
ATOM      8  C   UNL     1       9.453   0.515  21.575  0.00  0.00    +0.000 C 
ATOM      9  C   UNL     1       9.608  -0.945  21.343  0.00  0.00    +0.000 C 
ATOM     10  C   UNL     1       9.194  -1.888  22.404  0.00  0.00    +0.000 C 
ATOM     11  C   UNL     1       8.731  -1.238  23.710  0.00  0.00    +0.000 C 
ATOM     12  C   UNL     1       9.426   0.107  23.899  0.00  0.00    +0.000 C 
ATOM     13  C   UNL     1      10.919   0.066  23.985  0.00  0.00    +0.000 C 
BRANCH   7  14
ATOM     14  C   UNL     1       8.605   2.206  22.943  0.00  0.00    +0.000 C 
BRANCH  14  18
ATOM     15  C   UNL     1      10.428   5.858  24.405  0.00  0.00    +0.000 A 
ATOM     16  C   UNL     1      11.108   4.783  23.593  0.00  0.00    +0.000 A 
ATOM     17  C   UNL     1      10.796   3.362  23.503  0.00  0.00    +0.000 A 
ATOM     18  C   UNL     1       9.349   3.090  24.036  0.00  0.00    +0.000 A 
ATOM     19  C   UNL     1       8.608   3.994  24.894  0.00  0.00    +0.000 A 
ATOM     20  C   UNL     1       9.068   5.469  24.814  0.00  0.00    +0.000 A 
ENDBRANCH  14  18
ENDBRANCH   7  14
ENDBRANCH   1  11
BRANCH   4  21
ATOM     21  C   UNL     1       6.396  -4.863  26.025  0.00  0.00    +0.000 C 
BRANCH  21  22
ATOM     22  C   UNL     1       5.023  -4.671  25.495  0.00  0.00    +0.000 A 
ATOM     23  C   UNL     1       4.380  -5.817  25.972  0.00  0.00    +0.000 A 
ATOM     24  C   UNL     1       4.086  -7.240  25.380  0.00  0.00    +0.000 A 
ATOM     25  C   UNL     1       4.278  -6.867  23.869  0.00  0.00    +0.000 A 
ATOM     26  C   UNL     1       4.338  -5.875  23.158  0.00  0.00    +0.000 A 
ATOM     27  C   UNL     1       5.708  -5.689  22.773  0.00  0.00    +0.000 A 
ATOM     28  C   UNL     1       6.612  -4.840  22.187  0.00  0.00    +0.000 A 
ATOM     29  C   UNL     1       5.942  -3.553  22.798  0.00  0.00    +0.000 A 
ATOM     30  C   UNL     1       4.717  -3.530  23.447  0.00  0.00    +0.000 A 
ATOM     31  C   UNL     1       4.310  -4.576  24.205  0.00  0.00    +0.000 A 
ENDBRANCH  21  22
ENDBRANCH   4  21
TORSDOF 5
ENDMDL
MODEL 9
REMARK VINA RESULT:      -7.4      2.034      3.327
REMARK  Name = 
REMARK  6 active torsions:
REMARK  status: ('A' for Active; 'I' for Inactive)
REMARK    1  A    between atoms: C_7  and  C_8
REMARK    2  A    between atoms: C_8  and  N_11
REMARK    3  A    between atoms: C_21  and  N_23
REMARK    4  A    between atoms: N_30  and  C_31
REMARK    5  A    between atoms: C_31  and  C_34
REMARK    6  A    between atoms: C_57  and  C_59
REMARK                            x       y       z     vdW  Elec       q    Type
REMARK                         _______ _______ _______ _____ _____    ______ ____
ROOT
ATOM      1  N   UNL     1       9.097  -1.874  24.675  0.00  0.00    +0.000 NA
ATOM      2  C   UNL     1       9.526  -3.058  24.140  0.00  0.00    +0.000 C 
ATOM      3  C   UNL     1       9.318  -4.293  25.061  0.00  0.00    +0.000 C 
ATOM      4  N   UNL     1       8.108  -4.230  25.773  0.00  0.00    +0.000 NA
ATOM      5  C   UNL     1       8.124  -3.124  26.608  0.00  0.00    +0.000 C 
ATOM      6  C   UNL     1       8.899  -1.913  26.054  0.00  0.00    +0.000 C 
ENDROOT
BRANCH   1  11
ATOM      7  N   UNL     1       9.094   1.610  23.612  0.00  0.00    +0.000 NA
ATOM      8  C   UNL     1       9.465   1.536  22.285  0.00  0.00    +0.000 C 
ATOM      9  C   UNL     1       9.747   0.211  21.672  0.00  0.00    +0.000 C 
ATOM     10  C   UNL     1       9.494  -1.013  22.463  0.00  0.00    +0.000 C 
ATOM     11  C   UNL     1       9.054  -0.776  23.910  0.00  0.00    +0.000 C 
ATOM     12  C   UNL     1       9.625   0.543  24.420  0.00  0.00    +0.000 C 
ATOM     13  C   UNL     1      11.117   0.647  24.438  0.00  0.00    +0.000 C 
BRANCH   7  14
ATOM     14  C   UNL     1       8.545   2.713  24.078  0.00  0.00    +0.000 C 
BRANCH  14  18
ATOM     15  C   UNL     1       4.437   3.603  25.145  0.00  0.00    +0.000 A 
ATOM     16  C   UNL     1       5.668   4.311  25.658  0.00  0.00    +0.000 A 
ATOM     17  C   UNL     1       7.029   3.809  25.797  0.00  0.00    +0.000 A 
ATOM     18  C   UNL     1       7.219   2.515  24.934  0.00  0.00    +0.000 A 
ATOM     19  C   UNL     1       6.132   1.689  24.446  0.00  0.00    +0.000 A 
ATOM     20  C   UNL     1       4.775   2.422  24.334  0.00  0.00    +0.000 A 
ENDBRANCH  14  18
ENDBRANCH   7  14
ENDBRANCH   1  11
BRANCH   4  21
ATOM     21  C   UNL     1       7.092  -4.980  25.467  0.00  0.00    +0.000 C 
BRANCH  21  22
ATOM     22  C   UNL     1       5.620  -4.823  25.569  0.00  0.00    +0.000 A 
ATOM     23  C   UNL     1       5.184  -6.125  25.307  0.00  0.00    +0.000 A 
ATOM     24  C   UNL     1       4.712  -6.889  24.021  0.00  0.00    +0.000 A 
ATOM     25  C   UNL     1       4.374  -5.627  23.155  0.00  0.00    +0.000 A 
ATOM     26  C   UNL     1       4.182  -4.428  23.297  0.00  0.00    +0.000 A 
ATOM     27  C   UNL     1       5.337  -3.734  22.803  0.00  0.00    +0.000 A 
ATOM     28  C   UNL     1       5.982  -2.526  22.724  0.00  0.00    +0.000 A 
ATOM     29  C   UNL     1       5.556  -2.097  24.178  0.00  0.00    +0.000 A 
ATOM     30  C   UNL     1       4.626  -2.766  24.960  0.00  0.00    +0.000 A 
ATOM     31  C   UNL     1       4.508  -4.113  24.904  0.00  0.00    +0.000 A 
ENDBRANCH  21  22
ENDBRANCH   4  21
TORSDOF 5
ENDMDL
