MODEL 1
REMARK VINA RESULT:      -8.7      0.000      0.000
REMARK  Name = 
REMARK  4 active torsions:
REMARK  status: ('A' for Active; 'I' for Inactive)
REMARK    1  A    between atoms: N_8  and  S_9
REMARK    2  A    between atoms: S_9  and  C_12
REMARK    3  A    between atoms: C_22  and  N_23
REMARK    4  A    between atoms: C_34  and  C_36
REMARK                            x       y       z     vdW  Elec       q    Type
REMARK                         _______ _______ _______ _____ _____    ______ ____
ROOT
ATOM      1  C   UNL     1       7.496   0.384  25.690  0.00  0.00    +0.000 C 
ATOM      2  C   UNL     1       8.028  -0.514  26.644  0.00  0.00    +0.000 C 
ATOM      3  C   UNL     1       8.241  -1.951  26.738  0.00  0.00    +0.000 C 
ATOM      4  N   UNL     1       8.717  -1.931  25.441  0.00  0.00    +0.000 N 
ATOM      5  C   UNL     1       8.712  -1.166  24.396  0.00  0.00    +0.000 C 
ATOM      6  C   UNL     1       8.394   0.231  24.293  0.00  0.00    +0.000 C 
ENDROOT
BRANCH   6   7
ATOM      7  N   UNL     1       9.222   1.285  24.288  0.00  0.00    +0.000 N 
ATOM      8  H   UNL     1       9.045   1.923  24.963  0.00  0.00    +0.000 HD
ATOM      9  C   UNL     1       9.399   1.806  23.106  0.00  0.00    +0.000 C 
ATOM     10  O   UNL     1      10.442   2.274  22.708  0.00  0.00    +0.000 OA
ATOM     11  N   UNL     1       8.527   1.242  22.176  0.00  0.00    +0.000 N 
ATOM     12  C   UNL     1       7.505   2.159  21.698  0.00  0.00    +0.000 C 
ATOM     13  C   UNL     1       6.525   1.465  20.784  0.00  0.00    +0.000 C 
ATOM     14  C   UNL     1       7.247   0.671  19.714  0.00  0.00    +0.000 C 
ATOM     15  C   UNL     1       8.168  -0.349  20.363  0.00  0.00    +0.000 C 
ATOM     16  C   UNL     1       9.195   0.362  21.219  0.00  0.00    +0.000 C 
BRANCH  14  17
ATOM     17  C   UNL     1       6.226  -0.070  18.894  0.00  0.00    +0.000 C 
ATOM     18  O   UNL     1       6.007   0.201  17.733  0.00  0.00    +0.000 OA
ATOM     19  N   UNL     1       5.548  -1.050  19.523  0.00  0.00    +0.000 N 
ATOM     20  H   UNL     1       4.642  -0.768  19.668  0.00  0.00    +0.000 HD
ATOM     21  H   UNL     1       5.692  -1.881  19.064  0.00  0.00    +0.000 HD
ENDBRANCH  14  17
ENDBRANCH   6   7
BRANCH   4  22
ATOM     22  S   UNL     1       8.838  -3.365  24.839  0.00  0.00    +0.000 S 
ATOM     23  O   UNL     1      10.050  -3.717  24.244  0.00  0.00    +0.000 OA
ATOM     24  O   UNL     1       8.938  -4.141  26.262  0.00  0.00    +0.000 OA
BRANCH  22  25
ATOM     25  C   UNL     1       7.358  -3.851  24.303  0.00  0.00    +0.000 C 
ATOM     26  S   UNL     1       7.561  -4.069  22.553  0.00  0.00    +0.000 S 
ATOM     27  C   UNL     1       6.935  -5.576  22.372  0.00  0.00    +0.000 C 
ATOM     28 CL   UNL     1       6.125  -5.738  20.882  0.00  0.00    +0.000 Cl
ATOM     29  C   UNL     1       6.120  -5.707  23.516  0.00  0.00    +0.000 C 
ATOM     30  C   UNL     1       6.522  -4.860  24.669  0.00  0.00    +0.000 C 
ENDBRANCH  22  25
ENDBRANCH   4  22
TORSDOF 4
ENDMDL
MODEL 2
REMARK VINA RESULT:      -7.8      1.898      2.123
REMARK  Name = 
REMARK  4 active torsions:
REMARK  status: ('A' for Active; 'I' for Inactive)
REMARK    1  A    between atoms: N_8  and  S_9
REMARK    2  A    between atoms: S_9  and  C_12
REMARK    3  A    between atoms: C_22  and  N_23
REMARK    4  A    between atoms: C_34  and  C_36
REMARK                            x       y       z     vdW  Elec       q    Type
REMARK                         _______ _______ _______ _____ _____    ______ ____
ROOT
ATOM      1  C   UNL     1       7.012  -0.790  25.776  0.00  0.00    +0.000 C 
ATOM      2  C   UNL     1       6.788  -1.703  26.831  0.00  0.00    +0.000 C 
ATOM      3  C   UNL     1       6.458  -3.115  26.954  0.00  0.00    +0.000 C 
ATOM      4  N   UNL     1       7.391  -3.384  25.971  0.00  0.00    +0.000 N 
ATOM      5  C   UNL     1       8.059  -2.772  25.046  0.00  0.00    +0.000 C 
ATOM      6  C   UNL     1       8.289  -1.365  24.870  0.00  0.00    +0.000 C 
ENDROOT
BRANCH   6   7
ATOM      7  N   UNL     1       9.347  -0.631  25.246  0.00  0.00    +0.000 N 
ATOM      8  H   UNL     1       9.224  -0.153  26.052  0.00  0.00    +0.000 HD
ATOM      9  C   UNL     1       9.856   0.084  24.282  0.00  0.00    +0.000 C 
ATOM     10  O   UNL     1      11.037   0.308  24.139  0.00  0.00    +0.000 OA
ATOM     11  N   UNL     1       9.046   0.044  23.148  0.00  0.00    +0.000 N 
ATOM     12  C   UNL     1       8.392   1.308  22.848  0.00  0.00    +0.000 C 
ATOM     13  C   UNL     1       7.443   1.174  21.681  0.00  0.00    +0.000 C 
ATOM     14  C   UNL     1       8.115   0.487  20.509  0.00  0.00    +0.000 C 
ATOM     15  C   UNL     1       8.616  -0.883  20.934  0.00  0.00    +0.000 C 
ATOM     16  C   UNL     1       9.624  -0.735  22.054  0.00  0.00    +0.000 C 
BRANCH  14  17
ATOM     17  C   UNL     1       7.098   0.299  19.416  0.00  0.00    +0.000 C 
ATOM     18  O   UNL     1       7.360   0.494  18.248  0.00  0.00    +0.000 OA
ATOM     19  N   UNL     1       5.866  -0.085  19.801  0.00  0.00    +0.000 N 
ATOM     20  H   UNL     1       5.256   0.649  19.695  0.00  0.00    +0.000 HD
ATOM     21  H   UNL     1       5.646  -0.918  19.377  0.00  0.00    +0.000 HD
ENDBRANCH  14  17
ENDBRANCH   6   7
BRANCH   4  22
ATOM     22  S   UNL     1       7.262  -4.839  25.423  0.00  0.00    +0.000 S 
ATOM     23  O   UNL     1       8.099  -5.210  24.369  0.00  0.00    +0.000 OA
ATOM     24  O   UNL     1       7.985  -5.563  26.683  0.00  0.00    +0.000 OA
BRANCH  22  25
ATOM     25  C   UNL     1       5.705  -5.345  25.602  0.00  0.00    +0.000 C 
ATOM     26  S   UNL     1       4.946  -5.036  24.028  0.00  0.00    +0.000 S 
ATOM     27  C   UNL     1       4.261  -6.501  23.741  0.00  0.00    +0.000 C 
ATOM     28 CL   UNL     1       2.781  -6.345  22.911  0.00  0.00    +0.000 Cl
ATOM     29  C   UNL     1       4.169  -7.053  25.035  0.00  0.00    +0.000 C 
ATOM     30  C   UNL     1       5.150  -6.517  26.014  0.00  0.00    +0.000 C 
ENDBRANCH  22  25
ENDBRANCH   4  22
TORSDOF 4
ENDMDL
MODEL 3
REMARK VINA RESULT:      -7.7      2.981      5.903
REMARK  Name = 
REMARK  4 active torsions:
REMARK  status: ('A' for Active; 'I' for Inactive)
REMARK    1  A    between atoms: N_8  and  S_9
REMARK    2  A    between atoms: S_9  and  C_12
REMARK    3  A    between atoms: C_22  and  N_23
REMARK    4  A    between atoms: C_34  and  C_36
REMARK                            x       y       z     vdW  Elec       q    Type
REMARK                         _______ _______ _______ _____ _____    ______ ____
ROOT
ATOM      1  C   UNL     1       9.829  -0.822  25.202  0.00  0.00    +0.000 C 
ATOM      2  C   UNL     1      10.353   0.475  25.003  0.00  0.00    +0.000 C 
ATOM      3  C   UNL     1      10.370   1.453  23.925  0.00  0.00    +0.000 C 
ATOM      4  N   UNL     1       9.032   1.189  23.710  0.00  0.00    +0.000 N 
ATOM      5  C   UNL     1       8.141   0.294  23.995  0.00  0.00    +0.000 C 
ATOM      6  C   UNL     1       8.177  -0.741  24.991  0.00  0.00    +0.000 C 
ENDROOT
BRANCH   6   7
ATOM      7  N   UNL     1       7.662  -0.736  26.229  0.00  0.00    +0.000 N 
ATOM      8  H   UNL     1       8.297  -0.592  26.915  0.00  0.00    +0.000 HD
ATOM      9  C   UNL     1       6.852  -1.731  26.463  0.00  0.00    +0.000 C 
ATOM     10  O   UNL     1       5.856  -1.663  27.146  0.00  0.00    +0.000 OA
ATOM     11  N   UNL     1       6.878  -2.652  25.417  0.00  0.00    +0.000 N 
ATOM     12  C   UNL     1       7.483  -3.927  25.772  0.00  0.00    +0.000 C 
ATOM     13  C   UNL     1       7.586  -4.840  24.574  0.00  0.00    +0.000 C 
ATOM     14  C   UNL     1       6.264  -4.923  23.837  0.00  0.00    +0.000 C 
ATOM     15  C   UNL     1       5.834  -3.533  23.398  0.00  0.00    +0.000 C 
ATOM     16  C   UNL     1       5.659  -2.644  24.611  0.00  0.00    +0.000 C 
BRANCH  14  17
ATOM     17  C   UNL     1       6.453  -5.769  22.607  0.00  0.00    +0.000 C 
ATOM     18  O   UNL     1       7.551  -6.088  22.204  0.00  0.00    +0.000 OA
ATOM     19  N   UNL     1       5.334  -6.146  21.960  0.00  0.00    +0.000 N 
ATOM     20  H   UNL     1       5.267  -5.664  21.132  0.00  0.00    +0.000 HD
ATOM     21  H   UNL     1       5.294  -7.105  21.927  0.00  0.00    +0.000 HD
ENDBRANCH  14  17
ENDBRANCH   6   7
BRANCH   4  22
ATOM     22  S   UNL     1       8.527   1.785  22.359  0.00  0.00    +0.000 S 
ATOM     23  O   UNL     1       8.005   3.080  22.378  0.00  0.00    +0.000 OA
ATOM     24  O   UNL     1       9.998   2.038  21.721  0.00  0.00    +0.000 OA
BRANCH  22  25
ATOM     25  C   UNL     1       7.961   0.565  21.409  0.00  0.00    +0.000 C 
ATOM     26  S   UNL     1       6.510   1.230  20.635  0.00  0.00    +0.000 S 
ATOM     27  C   UNL     1       6.825   0.868  19.065  0.00  0.00    +0.000 C 
ATOM     28 CL   UNL     1       5.397   0.489  18.215  0.00  0.00    +0.000 Cl
ATOM     29  C   UNL     1       7.755  -0.186  19.175  0.00  0.00    +0.000 C 
ATOM     30  C   UNL     1       8.533  -0.201  20.441  0.00  0.00    +0.000 C 
ENDBRANCH  22  25
ENDBRANCH   4  22
TORSDOF 4
ENDMDL
MODEL 4
REMARK VINA RESULT:      -7.4      3.497      6.680
REMARK  Name = 
REMARK  4 active torsions:
REMARK  status: ('A' for Active; 'I' for Inactive)
REMARK    1  A    between atoms: N_8  and  S_9
REMARK    2  A    between atoms: S_9  and  C_12
REMARK    3  A    between atoms: C_22  and  N_23
REMARK    4  A    between atoms: C_34  and  C_36
REMARK                            x       y       z     vdW  Elec       q    Type
REMARK                         _______ _______ _______ _____ _____    ______ ____
ROOT
ATOM      1  C   UNL     1       8.363  -4.693  24.916  0.00  0.00    +0.000 C 
ATOM      2  C   UNL     1       9.488  -3.858  24.725  0.00  0.00    +0.000 C 
ATOM      3  C   UNL     1       9.778  -2.623  24.010  0.00  0.00    +0.000 C 
ATOM      4  N   UNL     1       8.586  -2.109  24.485  0.00  0.00    +0.000 N 
ATOM      5  C   UNL     1       7.477  -2.511  25.017  0.00  0.00    +0.000 C 
ATOM      6  C   UNL     1       7.164  -3.775  25.624  0.00  0.00    +0.000 C 
ENDROOT
BRANCH   6   7
ATOM      7  N   UNL     1       7.181  -4.112  26.922  0.00  0.00    +0.000 N 
ATOM      8  H   UNL     1       7.986  -4.516  27.209  0.00  0.00    +0.000 HD
ATOM      9  C   UNL     1       6.108  -4.742  27.312  0.00  0.00    +0.000 C 
ATOM     10  O   UNL     1       5.592  -4.616  28.400  0.00  0.00    +0.000 OA
ATOM     11  N   UNL     1       5.297  -5.069  26.226  0.00  0.00    +0.000 N 
ATOM     12  C   UNL     1       5.231  -6.495  25.950  0.00  0.00    +0.000 C 
ATOM     13  C   UNL     1       4.434  -6.778  24.700  0.00  0.00    +0.000 C 
ATOM     14  C   UNL     1       3.103  -6.052  24.727  0.00  0.00    +0.000 C 
ATOM     15  C   UNL     1       3.337  -4.557  24.870  0.00  0.00    +0.000 C 
ATOM     16  C   UNL     1       4.071  -4.275  26.164  0.00  0.00    +0.000 C 
BRANCH  14  17
ATOM     17  C   UNL     1       2.397  -6.296  23.421  0.00  0.00    +0.000 C 
ATOM     18  O   UNL     1       1.901  -5.397  22.776  0.00  0.00    +0.000 OA
ATOM     19  N   UNL     1       2.329  -7.576  23.005  0.00  0.00    +0.000 N 
ATOM     20  H   UNL     1       1.426  -7.891  23.094  0.00  0.00    +0.000 HD
ATOM     21  H   UNL     1       2.749  -7.653  22.145  0.00  0.00    +0.000 HD
ENDBRANCH  14  17
ENDBRANCH   6   7
BRANCH   4  22
ATOM     22  S   UNL     1       8.180  -0.797  23.745  0.00  0.00    +0.000 S 
ATOM     23  O   UNL     1       7.153  -0.032  24.302  0.00  0.00    +0.000 OA
ATOM     24  O   UNL     1       9.491   0.057  24.175  0.00  0.00    +0.000 OA
BRANCH  22  25
ATOM     25  C   UNL     1       8.428  -0.990  22.129  0.00  0.00    +0.000 C 
ATOM     26  S   UNL     1       6.822  -1.348  21.464  0.00  0.00    +0.000 S 
ATOM     27  C   UNL     1       6.764  -0.257  20.238  0.00  0.00    +0.000 C 
ATOM     28 CL   UNL     1       5.914  -0.873  18.896  0.00  0.00    +0.000 Cl
ATOM     29  C   UNL     1       8.128   0.019  20.010  0.00  0.00    +0.000 C 
ATOM     30  C   UNL     1       9.016  -0.213  21.179  0.00  0.00    +0.000 C 
ENDBRANCH  22  25
ENDBRANCH   4  22
TORSDOF 4
ENDMDL
MODEL 5
REMARK VINA RESULT:      -7.1      3.095      5.072
REMARK  Name = 
REMARK  4 active torsions:
REMARK  status: ('A' for Active; 'I' for Inactive)
REMARK    1  A    between atoms: N_8  and  S_9
REMARK    2  A    between atoms: S_9  and  C_12
REMARK    3  A    between atoms: C_22  and  N_23
REMARK    4  A    between atoms: C_34  and  C_36
REMARK                            x       y       z     vdW  Elec       q    Type
REMARK                         _______ _______ _______ _____ _____    ______ ____
ROOT
ATOM      1  C   UNL     1       7.371  -3.573  22.122  0.00  0.00    +0.000 C 
ATOM      2  C   UNL     1       6.547  -4.662  22.486  0.00  0.00    +0.000 C 
ATOM      3  C   UNL     1       5.789  -5.067  23.661  0.00  0.00    +0.000 C 
ATOM      4  N   UNL     1       5.337  -3.766  23.776  0.00  0.00    +0.000 N 
ATOM      5  C   UNL     1       5.623  -2.578  23.350  0.00  0.00    +0.000 C 
ATOM      6  C   UNL     1       6.462  -2.181  22.253  0.00  0.00    +0.000 C 
ENDROOT
BRANCH   6   7
ATOM      7  N   UNL     1       6.113  -1.868  20.997  0.00  0.00    +0.000 N 
ATOM      8  H   UNL     1       6.198  -2.579  20.379  0.00  0.00    +0.000 HD
ATOM      9  C   UNL     1       6.623  -0.743  20.577  0.00  0.00    +0.000 C 
ATOM     10  O   UNL     1       6.059   0.040  19.847  0.00  0.00    +0.000 OA
ATOM     11  N   UNL     1       7.557  -0.249  21.486  0.00  0.00    +0.000 N 
ATOM     12  C   UNL     1       8.927  -0.286  20.999  0.00  0.00    +0.000 C 
ATOM     13  C   UNL     1       9.903   0.154  22.064  0.00  0.00    +0.000 C 
ATOM     14  C   UNL     1       9.466   1.460  22.697  0.00  0.00    +0.000 C 
ATOM     15  C   UNL     1       8.077   1.302  23.294  0.00  0.00    +0.000 C 
ATOM     16  C   UNL     1       7.090   0.935  22.206  0.00  0.00    +0.000 C 
BRANCH  14  17
ATOM     17  C   UNL     1      10.421   1.798  23.809  0.00  0.00    +0.000 C 
ATOM     18  O   UNL     1      11.134   2.778  23.773  0.00  0.00    +0.000 OA
ATOM     19  N   UNL     1      10.459   0.943  24.849  0.00  0.00    +0.000 N 
ATOM     20  H   UNL     1      11.284   0.452  24.827  0.00  0.00    +0.000 HD
ATOM     21  H   UNL     1      10.238   1.415  25.656  0.00  0.00    +0.000 HD
ENDBRANCH  14  17
ENDBRANCH   6   7
BRANCH   4  22
ATOM     22  S   UNL     1       4.653  -3.503  25.153  0.00  0.00    +0.000 S 
ATOM     23  O   UNL     1       3.582  -2.608  25.184  0.00  0.00    +0.000 OA
ATOM     24  O   UNL     1       3.885  -4.931  25.240  0.00  0.00    +0.000 OA
BRANCH  22  25
ATOM     25  C   UNL     1       5.774  -3.659  26.349  0.00  0.00    +0.000 C 
ATOM     26  S   UNL     1       5.035  -4.771  27.519  0.00  0.00    +0.000 S 
ATOM     27  C   UNL     1       6.254  -5.855  27.703  0.00  0.00    +0.000 C 
ATOM     28 CL   UNL     1       6.322  -6.451  29.298  0.00  0.00    +0.000 Cl
ATOM     29  C   UNL     1       7.383  -5.118  27.289  0.00  0.00    +0.000 C 
ATOM     30  C   UNL     1       7.091  -4.003  26.351  0.00  0.00    +0.000 C 
ENDBRANCH  22  25
ENDBRANCH   4  22
TORSDOF 4
ENDMDL
MODEL 6
REMARK VINA RESULT:      -7.1      2.054      2.350
REMARK  Name = 
REMARK  4 active torsions:
REMARK  status: ('A' for Active; 'I' for Inactive)
REMARK    1  A    between atoms: N_8  and  S_9
REMARK    2  A    between atoms: S_9  and  C_12
REMARK    3  A    between atoms: C_22  and  N_23
REMARK    4  A    between atoms: C_34  and  C_36
REMARK                            x       y       z     vdW  Elec       q    Type
REMARK                         _______ _______ _______ _____ _____    ______ ____
ROOT
ATOM      1  C   UNL     1       8.141   0.042  25.722  0.00  0.00    +0.000 C 
ATOM      2  C   UNL     1       7.835  -0.863  26.764  0.00  0.00    +0.000 C 
ATOM      3  C   UNL     1       6.747  -1.773  27.087  0.00  0.00    +0.000 C 
ATOM      4  N   UNL     1       6.746  -2.186  25.769  0.00  0.00    +0.000 N 
ATOM      5  C   UNL     1       7.185  -1.805  24.612  0.00  0.00    +0.000 C 
ATOM      6  C   UNL     1       8.185  -0.823  24.296  0.00  0.00    +0.000 C 
ENDROOT
BRANCH   6   7
ATOM      7  N   UNL     1       9.487  -1.003  24.033  0.00  0.00    +0.000 N 
ATOM      8  H   UNL     1      10.071  -0.528  24.606  0.00  0.00    +0.000 HD
ATOM      9  C   UNL     1       9.785  -0.890  22.768  0.00  0.00    +0.000 C 
ATOM     10  O   UNL     1      10.622  -1.551  22.195  0.00  0.00    +0.000 OA
ATOM     11  N   UNL     1       8.694  -0.423  22.037  0.00  0.00    +0.000 N 
ATOM     12  C   UNL     1       8.868   0.924  21.518  0.00  0.00    +0.000 C 
ATOM     13  C   UNL     1       7.616   1.418  20.835  0.00  0.00    +0.000 C 
ATOM     14  C   UNL     1       7.095   0.395  19.846  0.00  0.00    +0.000 C 
ATOM     15  C   UNL     1       6.817  -0.916  20.562  0.00  0.00    +0.000 C 
ATOM     16  C   UNL     1       8.095  -1.444  21.180  0.00  0.00    +0.000 C 
BRANCH  14  17
ATOM     17  C   UNL     1       5.801   0.900  19.268  0.00  0.00    +0.000 C 
ATOM     18  O   UNL     1       5.232   1.875  19.711  0.00  0.00    +0.000 OA
ATOM     19  N   UNL     1       5.291   0.203  18.235  0.00  0.00    +0.000 N 
ATOM     20  H   UNL     1       4.511  -0.275  18.528  0.00  0.00    +0.000 HD
ATOM     21  H   UNL     1       5.204   0.781  17.473  0.00  0.00    +0.000 HD
ENDBRANCH  14  17
ENDBRANCH   6   7
BRANCH   4  22
ATOM     22  S   UNL     1       5.477  -3.023  25.418  0.00  0.00    +0.000 S 
ATOM     23  O   UNL     1       4.362  -2.886  26.246  0.00  0.00    +0.000 OA
ATOM     24  O   UNL     1       5.037  -2.138  24.130  0.00  0.00    +0.000 OA
BRANCH  22  25
ATOM     25  C   UNL     1       5.943  -4.433  24.704  0.00  0.00    +0.000 C 
ATOM     26  S   UNL     1       5.252  -4.362  23.071  0.00  0.00    +0.000 S 
ATOM     27  C   UNL     1       6.582  -4.716  22.176  0.00  0.00    +0.000 C 
ATOM     28 CL   UNL     1       6.177  -5.621  20.790  0.00  0.00    +0.000 Cl
ATOM     29  C   UNL     1       7.409  -5.378  23.106  0.00  0.00    +0.000 C 
ATOM     30  C   UNL     1       7.152  -5.031  24.528  0.00  0.00    +0.000 C 
ENDBRANCH  22  25
ENDBRANCH   4  22
TORSDOF 4
ENDMDL
MODEL 7
REMARK VINA RESULT:      -7.0      3.469      7.299
REMARK  Name = 
REMARK  4 active torsions:
REMARK  status: ('A' for Active; 'I' for Inactive)
REMARK    1  A    between atoms: N_8  and  S_9
REMARK    2  A    between atoms: S_9  and  C_12
REMARK    3  A    between atoms: C_22  and  N_23
REMARK    4  A    between atoms: C_34  and  C_36
REMARK                            x       y       z     vdW  Elec       q    Type
REMARK                         _______ _______ _______ _____ _____    ______ ____
ROOT
ATOM      1  C   UNL     1       5.913  -2.255  21.774  0.00  0.00    +0.000 C 
ATOM      2  C   UNL     1       6.631  -1.360  20.948  0.00  0.00    +0.000 C 
ATOM      3  C   UNL     1       7.753  -0.446  21.106  0.00  0.00    +0.000 C 
ATOM      4  N   UNL     1       8.408  -1.429  21.824  0.00  0.00    +0.000 N 
ATOM      5  C   UNL     1       8.155  -2.537  22.444  0.00  0.00    +0.000 C 
ATOM      6  C   UNL     1       6.994  -3.379  22.365  0.00  0.00    +0.000 C 
ENDROOT
BRANCH   6   7
ATOM      7  N   UNL     1       6.800  -4.479  21.623  0.00  0.00    +0.000 N 
ATOM      8  H   UNL     1       6.175  -4.372  20.922  0.00  0.00    +0.000 HD
ATOM      9  C   UNL     1       6.619  -5.560  22.329  0.00  0.00    +0.000 C 
ATOM     10  O   UNL     1       7.021  -6.660  22.022  0.00  0.00    +0.000 OA
ATOM     11  N   UNL     1       6.485  -5.257  23.683  0.00  0.00    +0.000 N 
ATOM     12  C   UNL     1       5.148  -5.486  24.207  0.00  0.00    +0.000 C 
ATOM     13  C   UNL     1       5.034  -5.035  25.643  0.00  0.00    +0.000 C 
ATOM     14  C   UNL     1       6.172  -5.587  26.479  0.00  0.00    +0.000 C 
ATOM     15  C   UNL     1       7.502  -5.140  25.896  0.00  0.00    +0.000 C 
ATOM     16  C   UNL     1       7.641  -5.662  24.481  0.00  0.00    +0.000 C 
BRANCH  14  17
ATOM     17  C   UNL     1       6.057  -5.030  27.873  0.00  0.00    +0.000 C 
ATOM     18  O   UNL     1       6.596  -5.553  28.824  0.00  0.00    +0.000 OA
ATOM     19  N   UNL     1       5.308  -3.920  28.016  0.00  0.00    +0.000 N 
ATOM     20  H   UNL     1       4.491  -4.144  28.468  0.00  0.00    +0.000 HD
ATOM     21  H   UNL     1       5.848  -3.217  28.386  0.00  0.00    +0.000 HD
ENDBRANCH  14  17
ENDBRANCH   6   7
BRANCH   4  22
ATOM     22  S   UNL     1       9.659  -0.872  22.572  0.00  0.00    +0.000 S 
ATOM     23  O   UNL     1      10.856  -1.579  22.446  0.00  0.00    +0.000 OA
ATOM     24  O   UNL     1       9.915   0.380  21.571  0.00  0.00    +0.000 OA
BRANCH  22  25
ATOM     25  C   UNL     1       9.168  -0.102  23.943  0.00  0.00    +0.000 C 
ATOM     26  S   UNL     1       9.810   1.545  23.791  0.00  0.00    +0.000 S 
ATOM     27  C   UNL     1       8.453   2.417  24.097  0.00  0.00    +0.000 C 
ATOM     28 CL   UNL     1       8.814   3.858  24.932  0.00  0.00    +0.000 Cl
ATOM     29  C   UNL     1       7.652   1.497  24.804  0.00  0.00    +0.000 C 
ATOM     30  C   UNL     1       7.952   0.068  24.529  0.00  0.00    +0.000 C 
ENDBRANCH  22  25
ENDBRANCH   4  22
TORSDOF 4
ENDMDL
MODEL 8
REMARK VINA RESULT:      -6.9      2.558      4.153
REMARK  Name = 
REMARK  4 active torsions:
REMARK  status: ('A' for Active; 'I' for Inactive)
REMARK    1  A    between atoms: N_8  and  S_9
REMARK    2  A    between atoms: S_9  and  C_12
REMARK    3  A    between atoms: C_22  and  N_23
REMARK    4  A    between atoms: C_34  and  C_36
REMARK                            x       y       z     vdW  Elec       q    Type
REMARK                         _______ _______ _______ _____ _____    ______ ____
ROOT
ATOM      1  C   UNL     1       9.898  -1.922  23.738  0.00  0.00    +0.000 C 
ATOM      2  C   UNL     1       9.681  -3.242  24.194  0.00  0.00    +0.000 C 
ATOM      3  C   UNL     1       8.793  -3.899  25.142  0.00  0.00    +0.000 C 
ATOM      4  N   UNL     1       7.752  -3.143  24.638  0.00  0.00    +0.000 N 
ATOM      5  C   UNL     1       7.554  -2.081  23.926  0.00  0.00    +0.000 C 
ATOM      6  C   UNL     1       8.470  -1.372  23.075  0.00  0.00    +0.000 C 
ENDROOT
BRANCH   6   7
ATOM      7  N   UNL     1       8.635  -1.471  21.748  0.00  0.00    +0.000 N 
ATOM      8  H   UNL     1       9.305  -2.084  21.484  0.00  0.00    +0.000 HD
ATOM      9  C   UNL     1       8.708  -0.318  21.143  0.00  0.00    +0.000 C 
ATOM     10  O   UNL     1       8.256  -0.087  20.045  0.00  0.00    +0.000 OA
ATOM     11  N   UNL     1       8.784   0.725  22.064  0.00  0.00    +0.000 N 
ATOM     12  C   UNL     1      10.072   1.400  22.082  0.00  0.00    +0.000 C 
ATOM     13  C   UNL     1      10.133   2.443  23.172  0.00  0.00    +0.000 C 
ATOM     14  C   UNL     1       8.918   3.348  23.129  0.00  0.00    +0.000 C 
ATOM     15  C   UNL     1       7.653   2.517  23.271  0.00  0.00    +0.000 C 
ATOM     16  C   UNL     1       7.562   1.524  22.131  0.00  0.00    +0.000 C 
BRANCH  14  17
ATOM     17  C   UNL     1       8.988   4.302  24.291  0.00  0.00    +0.000 C 
ATOM     18  O   UNL     1       9.692   5.288  24.275  0.00  0.00    +0.000 OA
ATOM     19  N   UNL     1       8.235   3.996  25.365  0.00  0.00    +0.000 N 
ATOM     20  H   UNL     1       8.806   3.708  26.082  0.00  0.00    +0.000 HD
ATOM     21  H   UNL     1       7.623   4.715  25.539  0.00  0.00    +0.000 HD
ENDBRANCH  14  17
ENDBRANCH   6   7
BRANCH   4  22
ATOM     22  S   UNL     1       6.486  -3.211  25.548  0.00  0.00    +0.000 S 
ATOM     23  O   UNL     1       6.569  -2.634  26.816  0.00  0.00    +0.000 OA
ATOM     24  O   UNL     1       5.632  -2.093  24.738  0.00  0.00    +0.000 OA
BRANCH  22  25
ATOM     25  C   UNL     1       5.645  -4.583  25.199  0.00  0.00    +0.000 C 
ATOM     26  S   UNL     1       4.003  -4.024  24.823  0.00  0.00    +0.000 S 
ATOM     27  C   UNL     1       3.755  -4.788  23.391  0.00  0.00    +0.000 C 
ATOM     28 CL   UNL     1       2.127  -5.257  23.210  0.00  0.00    +0.000 Cl
ATOM     29  C   UNL     1       4.683  -5.847  23.446  0.00  0.00    +0.000 C 
ATOM     30  C   UNL     1       5.855  -5.606  24.327  0.00  0.00    +0.000 C 
ENDBRANCH  22  25
ENDBRANCH   4  22
TORSDOF 4
ENDMDL
MODEL 9
REMARK VINA RESULT:      -6.9      3.556      6.627
REMARK  Name = 
REMARK  4 active torsions:
REMARK  status: ('A' for Active; 'I' for Inactive)
REMARK    1  A    between atoms: N_8  and  S_9
REMARK    2  A    between atoms: S_9  and  C_12
REMARK    3  A    between atoms: C_22  and  N_23
REMARK    4  A    between atoms: C_34  and  C_36
REMARK                            x       y       z     vdW  Elec       q    Type
REMARK                         _______ _______ _______ _____ _____    ______ ____
ROOT
ATOM      1  C   UNL     1       9.008  -1.642  21.875  0.00  0.00    +0.000 C 
ATOM      2  C   UNL     1       9.727  -0.470  21.549  0.00  0.00    +0.000 C 
ATOM      3  C   UNL     1       9.600   0.956  21.814  0.00  0.00    +0.000 C 
ATOM      4  N   UNL     1       9.303   0.650  23.128  0.00  0.00    +0.000 N 
ATOM      5  C   UNL     1       8.931  -0.358  23.850  0.00  0.00    +0.000 C 
ATOM      6  C   UNL     1       8.958  -1.760  23.538  0.00  0.00    +0.000 C 
ENDROOT
BRANCH   6   7
ATOM      7  N   UNL     1       9.884  -2.676  23.855  0.00  0.00    +0.000 N 
ATOM      8  H   UNL     1      10.570  -2.775  23.213  0.00  0.00    +0.000 HD
ATOM      9  C   UNL     1       9.382  -3.806  24.268  0.00  0.00    +0.000 C 
ATOM     10  O   UNL     1       9.867  -4.501  25.133  0.00  0.00    +0.000 OA
ATOM     11  N   UNL     1       8.000  -3.833  24.093  0.00  0.00    +0.000 N 
ATOM     12  C   UNL     1       7.555  -4.769  23.073  0.00  0.00    +0.000 C 
ATOM     13  C   UNL     1       6.065  -4.673  22.847  0.00  0.00    +0.000 C 
ATOM     14  C   UNL     1       5.312  -4.726  24.161  0.00  0.00    +0.000 C 
ATOM     15  C   UNL     1       5.777  -3.597  25.066  0.00  0.00    +0.000 C 
ATOM     16  C   UNL     1       7.258  -3.745  25.349  0.00  0.00    +0.000 C 
BRANCH  14  17
ATOM     17  C   UNL     1       3.846  -4.532  23.882  0.00  0.00    +0.000 C 
ATOM     18  O   UNL     1       3.305  -5.010  22.908  0.00  0.00    +0.000 OA
ATOM     19  N   UNL     1       3.160  -3.783  24.766  0.00  0.00    +0.000 N 
ATOM     20  H   UNL     1       2.940  -2.939  24.364  0.00  0.00    +0.000 HD
ATOM     21  H   UNL     1       2.444  -4.305  25.137  0.00  0.00    +0.000 HD
ENDBRANCH  14  17
ENDBRANCH   6   7
BRANCH   4  22
ATOM     22  S   UNL     1       8.733   1.880  23.900  0.00  0.00    +0.000 S 
ATOM     23  O   UNL     1       8.411   1.706  25.248  0.00  0.00    +0.000 OA
ATOM     24  O   UNL     1      10.138   2.685  24.005  0.00  0.00    +0.000 OA
BRANCH  22  25
ATOM     25  C   UNL     1       7.887   2.828  22.853  0.00  0.00    +0.000 C 
ATOM     26  S   UNL     1       6.222   2.221  22.938  0.00  0.00    +0.000 S 
ATOM     27  C   UNL     1       5.411   3.627  23.189  0.00  0.00    +0.000 C 
ATOM     28 CL   UNL     1       3.889   3.613  22.423  0.00  0.00    +0.000 Cl
ATOM     29  C   UNL     1       6.317   4.593  22.707  0.00  0.00    +0.000 C 
ATOM     30  C   UNL     1       7.743   4.176  22.728  0.00  0.00    +0.000 C 
ENDBRANCH  22  25
ENDBRANCH   4  22
TORSDOF 4
ENDMDL
