MODEL 1
REMARK VINA RESULT:      -8.6      0.000      0.000
REMARK  Name = 
REMARK  5 active torsions:
REMARK  status: ('A' for Active; 'I' for Inactive)
REMARK    1  A    between atoms: C_5  and  C_6
REMARK    2  A    between atoms: C_16  and  C_18
REMARK    3  A    between atoms: C_29  and  N_30
REMARK    4  A    between atoms: N_37  and  C_38
REMARK    5  A    between atoms: C_38  and  C_41
REMARK                            x       y       z     vdW  Elec       q    Type
REMARK                         _______ _______ _______ _____ _____    ______ ____
ROOT
ATOM      1  N   UNL     1       8.446  -1.373  24.901  0.00  0.00    +0.000 N 
ATOM      2  C   UNL     1       7.418  -1.832  23.958  0.00  0.00    +0.000 C 
ATOM      3  C   UNL     1       7.287  -3.361  24.102  0.00  0.00    +0.000 C 
ATOM      4  N   UNL     1       7.582  -3.923  25.367  0.00  0.00    +0.000 NA
ATOM      5  C   UNL     1       7.387  -2.977  26.400  0.00  0.00    +0.000 C 
ATOM      6  C   UNL     1       8.064  -1.658  26.274  0.00  0.00    +0.000 C 
ENDROOT
BRANCH   1  12
ATOM      7  C   UNL     1      10.194  -1.831  23.191  0.00  0.00    +0.000 A 
ATOM      8  C   UNL     1      10.261  -0.762  22.030  0.00  0.00    +0.000 A 
ATOM      9  C   UNL     1       9.910   0.688  22.105  0.00  0.00    +0.000 A 
ATOM     10  C   UNL     1      10.042   0.949  23.581  0.00  0.00    +0.000 A 
ATOM     11  C   UNL     1      10.189   0.267  24.807  0.00  0.00    +0.000 A 
ATOM     12  C   UNL     1       9.706  -1.207  24.395  0.00  0.00    +0.000 A 
BRANCH   9  13
ATOM     13  C   UNL     1       8.448   0.753  21.727  0.00  0.00    +0.000 C 
ATOM     14  O   UNL     1       7.930   2.033  21.825  0.00  0.00    +0.000 OA
ATOM     15  C   UNL     1       6.608   2.129  21.601  0.00  0.00    +0.000 C 
ATOM     16  C   UNL     1       6.088   1.535  20.296  0.00  0.00    +0.000 C 
ATOM     17  N   UNL     1       6.736   0.238  20.094  0.00  0.00    +0.000 N 
ATOM     18  C   UNL     1       6.290  -0.507  19.038  0.00  0.00    +0.000 C 
ATOM     19  O   UNL     1       6.350  -0.035  17.920  0.00  0.00    +0.000 OA
ATOM     20  C   UNL     1       8.229   0.324  20.267  0.00  0.00    +0.000 C 
BRANCH  18  21
ATOM     21  C   UNL     1       5.564  -1.776  19.338  0.00  0.00    +0.000 C 
ATOM     22 CL   UNL     1       5.900  -2.335  20.993  0.00  0.00    +0.000 Cl
ENDBRANCH  18  21
ENDBRANCH   9  13
ENDBRANCH   1  12
BRANCH   4  23
ATOM     23  C   UNL     1       7.039  -5.147  25.497  0.00  0.00    +0.000 C 
BRANCH  23  24
ATOM     24  C   UNL     1       5.604  -5.619  25.149  0.00  0.00    +0.000 A 
ATOM     25  C   UNL     1       4.997  -5.839  26.555  0.00  0.00    +0.000 A 
ATOM     26  C   UNL     1       4.056  -4.965  27.330  0.00  0.00    +0.000 A 
ATOM     27  C   UNL     1       3.546  -4.012  26.291  0.00  0.00    +0.000 A 
ATOM     28  C   UNL     1       3.543  -3.752  24.949  0.00  0.00    +0.000 A 
ATOM     29  C   UNL     1       2.343  -4.435  24.561  0.00  0.00    +0.000 A 
ATOM     30  C   UNL     1       1.598  -5.295  23.770  0.00  0.00    +0.000 A 
ATOM     31  C   UNL     1       2.866  -5.890  23.121  0.00  0.00    +0.000 A 
ATOM     32  C   UNL     1       4.122  -5.470  23.199  0.00  0.00    +0.000 A 
ATOM     33  C   UNL     1       4.642  -4.770  24.378  0.00  0.00    +0.000 A 
ENDBRANCH  23  24
ENDBRANCH   4  23
TORSDOF 5
ENDMDL
MODEL 2
REMARK VINA RESULT:      -8.4      3.225      7.815
REMARK  Name = 
REMARK  5 active torsions:
REMARK  status: ('A' for Active; 'I' for Inactive)
REMARK    1  A    between atoms: C_5  and  C_6
REMARK    2  A    between atoms: C_16  and  C_18
REMARK    3  A    between atoms: C_29  and  N_30
REMARK    4  A    between atoms: N_37  and  C_38
REMARK    5  A    between atoms: C_38  and  C_41
REMARK                            x       y       z     vdW  Elec       q    Type
REMARK                         _______ _______ _______ _____ _____    ______ ____
ROOT
ATOM      1  N   UNL     1       8.149  -3.285  23.992  0.00  0.00    +0.000 N 
ATOM      2  C   UNL     1       9.606  -3.284  24.175  0.00  0.00    +0.000 C 
ATOM      3  C   UNL     1      10.134  -1.888  23.791  0.00  0.00    +0.000 C 
ATOM      4  N   UNL     1       9.260  -0.790  23.974  0.00  0.00    +0.000 NA
ATOM      5  C   UNL     1       8.306  -1.063  24.981  0.00  0.00    +0.000 C 
ATOM      6  C   UNL     1       7.509  -2.315  24.865  0.00  0.00    +0.000 C 
ENDROOT
BRANCH   1  12
ATOM      7  C   UNL     1       7.357  -5.172  22.578  0.00  0.00    +0.000 A 
ATOM      8  C   UNL     1       5.787  -5.349  22.553  0.00  0.00    +0.000 A 
ATOM      9  C   UNL     1       4.747  -4.288  22.714  0.00  0.00    +0.000 A 
ATOM     10  C   UNL     1       5.523  -3.055  22.338  0.00  0.00    +0.000 A 
ATOM     11  C   UNL     1       6.843  -2.619  22.098  0.00  0.00    +0.000 A 
ATOM     12  C   UNL     1       7.683  -3.787  22.808  0.00  0.00    +0.000 A 
BRANCH   9  13
ATOM     13  C   UNL     1       4.458  -4.251  24.197  0.00  0.00    +0.000 C 
ATOM     14  O   UNL     1       3.106  -4.136  24.472  0.00  0.00    +0.000 OA
ATOM     15  C   UNL     1       2.802  -3.994  25.773  0.00  0.00    +0.000 C 
ATOM     16  C   UNL     1       3.366  -5.039  26.729  0.00  0.00    +0.000 C 
ATOM     17  N   UNL     1       4.762  -5.287  26.364  0.00  0.00    +0.000 N 
ATOM     18  C   UNL     1       5.474  -6.101  27.200  0.00  0.00    +0.000 C 
ATOM     19  O   UNL     1       5.077  -7.232  27.398  0.00  0.00    +0.000 OA
ATOM     20  C   UNL     1       4.918  -5.544  24.889  0.00  0.00    +0.000 C 
BRANCH  18  21
ATOM     21  C   UNL     1       6.587  -5.491  27.985  0.00  0.00    +0.000 C 
ATOM     22 CL   UNL     1       8.033  -5.255  26.977  0.00  0.00    +0.000 Cl
ENDBRANCH  18  21
ENDBRANCH   9  13
ENDBRANCH   1  12
BRANCH   4  23
ATOM     23  C   UNL     1       9.939   0.372  24.021  0.00  0.00    +0.000 C 
BRANCH  23  24
ATOM     24  C   UNL     1       9.607   1.723  23.337  0.00  0.00    +0.000 A 
ATOM     25  C   UNL     1       9.552   1.314  21.847  0.00  0.00    +0.000 A 
ATOM     26  C   UNL     1       8.357   1.072  20.972  0.00  0.00    +0.000 A 
ATOM     27  C   UNL     1       7.232   1.673  21.762  0.00  0.00    +0.000 A 
ATOM     28  C   UNL     1       6.949   2.421  22.870  0.00  0.00    +0.000 A 
ATOM     29  C   UNL     1       6.916   3.732  22.288  0.00  0.00    +0.000 A 
ATOM     30  C   UNL     1       7.247   5.076  22.222  0.00  0.00    +0.000 A 
ATOM     31  C   UNL     1       8.372   4.909  23.266  0.00  0.00    +0.000 A 
ATOM     32  C   UNL     1       8.647   3.868  24.042  0.00  0.00    +0.000 A 
ATOM     33  C   UNL     1       8.356   2.489  23.634  0.00  0.00    +0.000 A 
ENDBRANCH  23  24
ENDBRANCH   4  23
TORSDOF 5
ENDMDL
MODEL 3
REMARK VINA RESULT:      -8.1      1.353      2.104
REMARK  Name = 
REMARK  5 active torsions:
REMARK  status: ('A' for Active; 'I' for Inactive)
REMARK    1  A    between atoms: C_5  and  C_6
REMARK    2  A    between atoms: C_16  and  C_18
REMARK    3  A    between atoms: C_29  and  N_30
REMARK    4  A    between atoms: N_37  and  C_38
REMARK    5  A    between atoms: C_38  and  C_41
REMARK                            x       y       z     vdW  Elec       q    Type
REMARK                         _______ _______ _______ _____ _____    ______ ____
ROOT
ATOM      1  N   UNL     1       8.151   0.646  25.124  0.00  0.00    +0.000 N 
ATOM      2  C   UNL     1       7.116   0.046  24.272  0.00  0.00    +0.000 C 
ATOM      3  C   UNL     1       7.055  -1.461  24.586  0.00  0.00    +0.000 C 
ATOM      4  N   UNL     1       7.410  -1.868  25.894  0.00  0.00    +0.000 NA
ATOM      5  C   UNL     1       7.205  -0.822  26.824  0.00  0.00    +0.000 C 
ATOM      6  C   UNL     1       7.822   0.500  26.532  0.00  0.00    +0.000 C 
ENDROOT
BRANCH   1  12
ATOM      7  C   UNL     1      10.004  -0.136  23.661  0.00  0.00    +0.000 A 
ATOM      8  C   UNL     1       9.948   0.427  22.186  0.00  0.00    +0.000 A 
ATOM      9  C   UNL     1       9.379   1.731  21.729  0.00  0.00    +0.000 A 
ATOM     10  C   UNL     1       9.422   2.533  23.001  0.00  0.00    +0.000 A 
ATOM     11  C   UNL     1       9.628   2.382  24.388  0.00  0.00    +0.000 A 
ATOM     12  C   UNL     1       9.388   0.805  24.561  0.00  0.00    +0.000 A 
BRANCH   9  13
ATOM     13  C   UNL     1       7.938   1.428  21.391  0.00  0.00    +0.000 C 
ATOM     14  O   UNL     1       7.143   2.561  21.389  0.00  0.00    +0.000 OA
ATOM     15  C   UNL     1       5.833   2.335  21.197  0.00  0.00    +0.000 C 
ATOM     16  C   UNL     1       5.450   1.518  19.967  0.00  0.00    +0.000 C 
ATOM     17  N   UNL     1       6.374   0.388  19.863  0.00  0.00    +0.000 N 
ATOM     18  C   UNL     1       6.101  -0.534  18.892  0.00  0.00    +0.000 C 
ATOM     19  O   UNL     1       6.041  -0.169  17.734  0.00  0.00    +0.000 OA
ATOM     20  C   UNL     1       7.810   0.825  19.983  0.00  0.00    +0.000 C 
BRANCH  18  21
ATOM     21  C   UNL     1       5.685  -1.901  19.325  0.00  0.00    +0.000 C 
ATOM     22 CL   UNL     1       6.067  -2.176  21.040  0.00  0.00    +0.000 Cl
ENDBRANCH  18  21
ENDBRANCH   9  13
ENDBRANCH   1  12
BRANCH   4  23
ATOM     23  C   UNL     1       6.923  -3.091  26.175  0.00  0.00    +0.000 C 
BRANCH  23  24
ATOM     24  C   UNL     1       6.875  -4.352  25.274  0.00  0.00    +0.000 A 
ATOM     25  C   UNL     1       5.853  -5.235  26.028  0.00  0.00    +0.000 A 
ATOM     26  C   UNL     1       4.407  -5.488  25.717  0.00  0.00    +0.000 A 
ATOM     27  C   UNL     1       4.271  -4.990  24.309  0.00  0.00    +0.000 A 
ATOM     28  C   UNL     1       4.981  -4.527  23.237  0.00  0.00    +0.000 A 
ATOM     29  C   UNL     1       5.189  -5.754  22.523  0.00  0.00    +0.000 A 
ATOM     30  C   UNL     1       5.957  -6.688  21.846  0.00  0.00    +0.000 A 
ATOM     31  C   UNL     1       7.273  -6.043  22.331  0.00  0.00    +0.000 A 
ATOM     32  C   UNL     1       7.459  -4.885  22.952  0.00  0.00    +0.000 A 
ATOM     33  C   UNL     1       6.449  -4.302  23.841  0.00  0.00    +0.000 A 
ENDBRANCH  23  24
ENDBRANCH   4  23
TORSDOF 5
ENDMDL
MODEL 4
REMARK VINA RESULT:      -8.0      2.812      4.583
REMARK  Name = 
REMARK  5 active torsions:
REMARK  status: ('A' for Active; 'I' for Inactive)
REMARK    1  A    between atoms: C_5  and  C_6
REMARK    2  A    between atoms: C_16  and  C_18
REMARK    3  A    between atoms: C_29  and  N_30
REMARK    4  A    between atoms: N_37  and  C_38
REMARK    5  A    between atoms: C_38  and  C_41
REMARK                            x       y       z     vdW  Elec       q    Type
REMARK                         _______ _______ _______ _____ _____    ______ ____
ROOT
ATOM      1  N   UNL     1       7.209  -1.152  22.192  0.00  0.00    +0.000 N 
ATOM      2  C   UNL     1       6.322  -1.862  21.262  0.00  0.00    +0.000 C 
ATOM      3  C   UNL     1       6.103  -3.287  21.805  0.00  0.00    +0.000 C 
ATOM      4  N   UNL     1       6.170  -3.466  23.207  0.00  0.00    +0.000 NA
ATOM      5  C   UNL     1       5.857  -2.266  23.888  0.00  0.00    +0.000 C 
ATOM      6  C   UNL     1       6.604  -1.036  23.509  0.00  0.00    +0.000 C 
ENDROOT
BRANCH   1  12
ATOM      7  C   UNL     1       9.170  -0.129  21.054  0.00  0.00    +0.000 A 
ATOM      8  C   UNL     1      10.015   0.845  21.968  0.00  0.00    +0.000 A 
ATOM      9  C   UNL     1      10.192   0.780  23.450  0.00  0.00    +0.000 A 
ATOM     10  C   UNL     1       9.875  -0.665  23.722  0.00  0.00    +0.000 A 
ATOM     11  C   UNL     1       9.328  -1.806  23.098  0.00  0.00    +0.000 A 
ATOM     12  C   UNL     1       8.539  -1.133  21.873  0.00  0.00    +0.000 A 
BRANCH   9  13
ATOM     13  C   UNL     1       9.081   1.638  24.011  0.00  0.00    +0.000 C 
ATOM     14  O   UNL     1       8.621   1.179  25.233  0.00  0.00    +0.000 OA
ATOM     15  C   UNL     1       7.563   1.844  25.727  0.00  0.00    +0.000 C 
ATOM     16  C   UNL     1       7.696   3.359  25.839  0.00  0.00    +0.000 C 
ATOM     17  N   UNL     1       8.319   3.855  24.611  0.00  0.00    +0.000 N 
ATOM     18  C   UNL     1       8.395   5.213  24.474  0.00  0.00    +0.000 C 
ATOM     19  O   UNL     1       8.988   5.857  25.317  0.00  0.00    +0.000 OA
ATOM     20  C   UNL     1       9.558   3.078  24.257  0.00  0.00    +0.000 C 
BRANCH  18  21
ATOM     21  C   UNL     1       7.571   5.853  23.407  0.00  0.00    +0.000 C 
ATOM     22 CL   UNL     1       6.811   4.632  22.360  0.00  0.00    +0.000 Cl
ENDBRANCH  18  21
ENDBRANCH   9  13
ENDBRANCH   1  12
BRANCH   4  23
ATOM     23  C   UNL     1       5.559  -4.604  23.585  0.00  0.00    +0.000 C 
BRANCH  23  24
ATOM     24  C   UNL     1       5.826  -5.487  24.831  0.00  0.00    +0.000 A 
ATOM     25  C   UNL     1       7.370  -5.452  24.913  0.00  0.00    +0.000 A 
ATOM     26  C   UNL     1       8.255  -4.654  25.825  0.00  0.00    +0.000 A 
ATOM     27  C   UNL     1       7.306  -4.177  26.884  0.00  0.00    +0.000 A 
ATOM     28  C   UNL     1       6.026  -4.304  27.348  0.00  0.00    +0.000 A 
ATOM     29  C   UNL     1       6.213  -5.337  28.325  0.00  0.00    +0.000 A 
ATOM     30  C   UNL     1       5.902  -6.535  28.948  0.00  0.00    +0.000 A 
ATOM     31  C   UNL     1       4.969  -6.960  27.794  0.00  0.00    +0.000 A 
ATOM     32  C   UNL     1       4.525  -6.243  26.769  0.00  0.00    +0.000 A 
ATOM     33  C   UNL     1       5.301  -5.141  26.189  0.00  0.00    +0.000 A 
ENDBRANCH  23  24
ENDBRANCH   4  23
TORSDOF 5
ENDMDL
MODEL 5
REMARK VINA RESULT:      -7.9      1.046      1.918
REMARK  Name = 
REMARK  5 active torsions:
REMARK  status: ('A' for Active; 'I' for Inactive)
REMARK    1  A    between atoms: C_5  and  C_6
REMARK    2  A    between atoms: C_16  and  C_18
REMARK    3  A    between atoms: C_29  and  N_30
REMARK    4  A    between atoms: N_37  and  C_38
REMARK    5  A    between atoms: C_38  and  C_41
REMARK                            x       y       z     vdW  Elec       q    Type
REMARK                         _______ _______ _______ _____ _____    ______ ____
ROOT
ATOM      1  N   UNL     1       8.578  -0.821  25.137  0.00  0.00    +0.000 N 
ATOM      2  C   UNL     1       7.435  -0.999  24.232  0.00  0.00    +0.000 C 
ATOM      3  C   UNL     1       7.057  -2.493  24.230  0.00  0.00    +0.000 C 
ATOM      4  N   UNL     1       7.325  -3.234  25.405  0.00  0.00    +0.000 NA
ATOM      5  C   UNL     1       7.352  -2.391  26.541  0.00  0.00    +0.000 C 
ATOM      6  C   UNL     1       8.233  -1.193  26.499  0.00  0.00    +0.000 C 
ENDROOT
BRANCH   1  12
ATOM      7  C   UNL     1      10.217  -1.643  23.456  0.00  0.00    +0.000 A 
ATOM      8  C   UNL     1      10.272  -0.786  22.130  0.00  0.00    +0.000 A 
ATOM      9  C   UNL     1       9.986   0.672  21.975  0.00  0.00    +0.000 A 
ATOM     10  C   UNL     1      10.203   1.167  23.379  0.00  0.00    +0.000 A 
ATOM     11  C   UNL     1      10.382   0.692  24.695  0.00  0.00    +0.000 A 
ATOM     12  C   UNL     1       9.817  -0.804  24.557  0.00  0.00    +0.000 A 
BRANCH   9  13
ATOM     13  C   UNL     1       8.512   0.746  21.653  0.00  0.00    +0.000 C 
ATOM     14  O   UNL     1       8.000   2.025  21.799  0.00  0.00    +0.000 OA
ATOM     15  C   UNL     1       6.671   2.127  21.626  0.00  0.00    +0.000 C 
ATOM     16  C   UNL     1       6.101   1.561  20.329  0.00  0.00    +0.000 C 
ATOM     17  N   UNL     1       6.739   0.268  20.076  0.00  0.00    +0.000 N 
ATOM     18  C   UNL     1       6.252  -0.454  19.022  0.00  0.00    +0.000 C 
ATOM     19  O   UNL     1       6.270   0.041  17.912  0.00  0.00    +0.000 OA
ATOM     20  C   UNL     1       8.237   0.349  20.195  0.00  0.00    +0.000 C 
BRANCH  18  21
ATOM     21  C   UNL     1       5.535  -1.728  19.322  0.00  0.00    +0.000 C 
ATOM     22 CL   UNL     1       5.908  -2.306  20.962  0.00  0.00    +0.000 Cl
ENDBRANCH  18  21
ENDBRANCH   9  13
ENDBRANCH   1  12
BRANCH   4  23
ATOM     23  C   UNL     1       6.592  -4.362  25.451  0.00  0.00    +0.000 C 
BRANCH  23  24
ATOM     24  C   UNL     1       5.062  -4.522  25.644  0.00  0.00    +0.000 A 
ATOM     25  C   UNL     1       4.690  -5.429  24.447  0.00  0.00    +0.000 A 
ATOM     26  C   UNL     1       4.405  -6.901  24.424  0.00  0.00    +0.000 A 
ATOM     27  C   UNL     1       4.199  -7.228  25.873  0.00  0.00    +0.000 A 
ATOM     28  C   UNL     1       4.069  -6.671  27.115  0.00  0.00    +0.000 A 
ATOM     29  C   UNL     1       2.641  -6.553  27.191  0.00  0.00    +0.000 A 
ATOM     30  C   UNL     1       1.458  -5.878  27.440  0.00  0.00    +0.000 A 
ATOM     31  C   UNL     1       2.178  -4.513  27.478  0.00  0.00    +0.000 A 
ATOM     32  C   UNL     1       3.479  -4.252  27.498  0.00  0.00    +0.000 A 
ATOM     33  C   UNL     1       4.465  -5.137  26.870  0.00  0.00    +0.000 A 
ENDBRANCH  23  24
ENDBRANCH   4  23
TORSDOF 5
ENDMDL
MODEL 6
REMARK VINA RESULT:      -7.9      3.343      8.047
REMARK  Name = 
REMARK  5 active torsions:
REMARK  status: ('A' for Active; 'I' for Inactive)
REMARK    1  A    between atoms: C_5  and  C_6
REMARK    2  A    between atoms: C_16  and  C_18
REMARK    3  A    between atoms: C_29  and  N_30
REMARK    4  A    between atoms: N_37  and  C_38
REMARK    5  A    between atoms: C_38  and  C_41
REMARK                            x       y       z     vdW  Elec       q    Type
REMARK                         _______ _______ _______ _____ _____    ______ ____
ROOT
ATOM      1  N   UNL     1       8.753  -2.553  24.375  0.00  0.00    +0.000 N 
ATOM      2  C   UNL     1       7.700  -2.247  23.398  0.00  0.00    +0.000 C 
ATOM      3  C   UNL     1       7.964  -0.837  22.838  0.00  0.00    +0.000 C 
ATOM      4  N   UNL     1       9.308  -0.395  22.795  0.00  0.00    +0.000 NA
ATOM      5  C   UNL     1      10.201  -1.490  22.727  0.00  0.00    +0.000 C 
ATOM      6  C   UNL     1      10.064  -2.564  23.749  0.00  0.00    +0.000 C 
ENDROOT
BRANCH   1  12
ATOM      7  C   UNL     1       7.265  -1.645  26.150  0.00  0.00    +0.000 A 
ATOM      8  C   UNL     1       6.250  -2.698  26.747  0.00  0.00    +0.000 A 
ATOM      9  C   UNL     1       6.435  -4.176  26.866  0.00  0.00    +0.000 A 
ATOM     10  C   UNL     1       7.935  -4.290  26.824  0.00  0.00    +0.000 A 
ATOM     11  C   UNL     1       9.086  -3.528  26.538  0.00  0.00    +0.000 A 
ATOM     12  C   UNL     1       8.450  -2.323  25.690  0.00  0.00    +0.000 A 
BRANCH   9  13
ATOM     13  C   UNL     1       5.866  -4.742  25.586  0.00  0.00    +0.000 C 
ATOM     14  O   UNL     1       6.846  -5.230  24.739  0.00  0.00    +0.000 OA
ATOM     15  C   UNL     1       6.403  -5.650  23.542  0.00  0.00    +0.000 C 
ATOM     16  C   UNL     1       5.269  -6.670  23.548  0.00  0.00    +0.000 C 
ATOM     17  N   UNL     1       4.285  -6.252  24.547  0.00  0.00    +0.000 N 
ATOM     18  C   UNL     1       3.126  -6.976  24.599  0.00  0.00    +0.000 C 
ATOM     19  O   UNL     1       3.189  -8.171  24.814  0.00  0.00    +0.000 OA
ATOM     20  C   UNL     1       4.928  -5.927  25.868  0.00  0.00    +0.000 C 
BRANCH  18  21
ATOM     21  C   UNL     1       1.862  -6.299  24.186  0.00  0.00    +0.000 C 
ATOM     22 CL   UNL     1       1.456  -6.670  22.494  0.00  0.00    +0.000 Cl
ENDBRANCH  18  21
ENDBRANCH   9  13
ENDBRANCH   1  12
BRANCH   4  23
ATOM     23  C   UNL     1       9.462   0.622  21.926  0.00  0.00    +0.000 C 
BRANCH  23  24
ATOM     24  C   UNL     1       9.489   2.146  22.204  0.00  0.00    +0.000 A 
ATOM     25  C   UNL     1       8.043   2.557  21.837  0.00  0.00    +0.000 A 
ATOM     26  C   UNL     1       6.881   2.850  22.740  0.00  0.00    +0.000 A 
ATOM     27  C   UNL     1       7.530   3.017  24.082  0.00  0.00    +0.000 A 
ATOM     28  C   UNL     1       8.741   3.110  24.711  0.00  0.00    +0.000 A 
ATOM     29  C   UNL     1       8.911   4.534  24.723  0.00  0.00    +0.000 A 
ATOM     30  C   UNL     1       9.621   5.707  24.520  0.00  0.00    +0.000 A 
ATOM     31  C   UNL     1      10.698   4.979  23.687  0.00  0.00    +0.000 A 
ATOM     32  C   UNL     1      10.886   3.676  23.518  0.00  0.00    +0.000 A 
ATOM     33  C   UNL     1       9.781   2.713  23.558  0.00  0.00    +0.000 A 
ENDBRANCH  23  24
ENDBRANCH   4  23
TORSDOF 5
ENDMDL
MODEL 7
REMARK VINA RESULT:      -7.8      3.126      7.826
REMARK  Name = 
REMARK  5 active torsions:
REMARK  status: ('A' for Active; 'I' for Inactive)
REMARK    1  A    between atoms: C_5  and  C_6
REMARK    2  A    between atoms: C_16  and  C_18
REMARK    3  A    between atoms: C_29  and  N_30
REMARK    4  A    between atoms: N_37  and  C_38
REMARK    5  A    between atoms: C_38  and  C_41
REMARK                            x       y       z     vdW  Elec       q    Type
REMARK                         _______ _______ _______ _____ _____    ______ ____
ROOT
ATOM      1  N   UNL     1       8.014  -3.438  24.063  0.00  0.00    +0.000 N 
ATOM      2  C   UNL     1       9.474  -3.511  24.208  0.00  0.00    +0.000 C 
ATOM      3  C   UNL     1      10.060  -2.140  23.821  0.00  0.00    +0.000 C 
ATOM      4  N   UNL     1       9.248  -1.001  24.035  0.00  0.00    +0.000 NA
ATOM      5  C   UNL     1       8.306  -1.235  25.064  0.00  0.00    +0.000 C 
ATOM      6  C   UNL     1       7.446  -2.445  24.959  0.00  0.00    +0.000 C 
ENDROOT
BRANCH   1  12
ATOM      7  C   UNL     1       7.443  -5.297  22.512  0.00  0.00    +0.000 A 
ATOM      8  C   UNL     1       5.963  -5.830  22.656  0.00  0.00    +0.000 A 
ATOM      9  C   UNL     1       4.756  -5.063  23.087  0.00  0.00    +0.000 A 
ATOM     10  C   UNL     1       5.182  -3.650  22.792  0.00  0.00    +0.000 A 
ATOM     11  C   UNL     1       6.325  -2.897  22.453  0.00  0.00    +0.000 A 
ATOM     12  C   UNL     1       7.494  -3.906  22.888  0.00  0.00    +0.000 A 
BRANCH   9  13
ATOM     13  C   UNL     1       4.692  -5.250  24.585  0.00  0.00    +0.000 C 
ATOM     14  O   UNL     1       5.905  -5.645  25.123  0.00  0.00    +0.000 OA
ATOM     15  C   UNL     1       5.879  -5.927  26.437  0.00  0.00    +0.000 C 
ATOM     16  C   UNL     1       5.308  -4.854  27.359  0.00  0.00    +0.000 C 
ATOM     17  N   UNL     1       4.098  -4.315  26.737  0.00  0.00    +0.000 N 
ATOM     18  C   UNL     1       3.371  -3.432  27.487  0.00  0.00    +0.000 C 
ATOM     19  O   UNL     1       3.908  -2.416  27.882  0.00  0.00    +0.000 OA
ATOM     20  C   UNL     1       4.325  -3.939  25.298  0.00  0.00    +0.000 C 
BRANCH  18  21
ATOM     21  C   UNL     1       2.020  -3.861  27.954  0.00  0.00    +0.000 C 
ATOM     22 CL   UNL     1       1.560  -5.425  27.244  0.00  0.00    +0.000 Cl
ENDBRANCH  18  21
ENDBRANCH   9  13
ENDBRANCH   1  12
BRANCH   4  23
ATOM     23  C   UNL     1       9.984   0.125  24.073  0.00  0.00    +0.000 C 
BRANCH  23  24
ATOM     24  C   UNL     1       9.700   1.499  23.413  0.00  0.00    +0.000 A 
ATOM     25  C   UNL     1       9.691   1.128  21.911  0.00  0.00    +0.000 A 
ATOM     26  C   UNL     1       8.524   0.929  20.989  0.00  0.00    +0.000 A 
ATOM     27  C   UNL     1       7.383   1.530  21.754  0.00  0.00    +0.000 A 
ATOM     28  C   UNL     1       7.073   2.256  22.870  0.00  0.00    +0.000 A 
ATOM     29  C   UNL     1       7.083   3.582  22.320  0.00  0.00    +0.000 A 
ATOM     30  C   UNL     1       7.439   4.920  22.300  0.00  0.00    +0.000 A 
ATOM     31  C   UNL     1       8.522   4.707  23.379  0.00  0.00    +0.000 A 
ATOM     32  C   UNL     1       8.752   3.643  24.137  0.00  0.00    +0.000 A 
ATOM     33  C   UNL     1       8.453   2.280  23.685  0.00  0.00    +0.000 A 
ENDBRANCH  23  24
ENDBRANCH   4  23
TORSDOF 5
ENDMDL
MODEL 8
REMARK VINA RESULT:      -7.5      2.994      4.791
REMARK  Name = 
REMARK  5 active torsions:
REMARK  status: ('A' for Active; 'I' for Inactive)
REMARK    1  A    between atoms: C_5  and  C_6
REMARK    2  A    between atoms: C_16  and  C_18
REMARK    3  A    between atoms: C_29  and  N_30
REMARK    4  A    between atoms: N_37  and  C_38
REMARK    5  A    between atoms: C_38  and  C_41
REMARK                            x       y       z     vdW  Elec       q    Type
REMARK                         _______ _______ _______ _____ _____    ______ ____
ROOT
ATOM      1  N   UNL     1       9.209   0.466  21.495  0.00  0.00    +0.000 N 
ATOM      2  C   UNL     1       9.323  -0.926  21.040  0.00  0.00    +0.000 C 
ATOM      3  C   UNL     1       8.338  -1.778  21.863  0.00  0.00    +0.000 C 
ATOM      4  N   UNL     1       7.169  -1.141  22.342  0.00  0.00    +0.000 NA
ATOM      5  C   UNL     1       6.824  -0.036  21.530  0.00  0.00    +0.000 C 
ATOM      6  C   UNL     1       7.872   0.987  21.264  0.00  0.00    +0.000 C 
ENDROOT
BRANCH   1  12
ATOM      7  C   UNL     1      10.204   2.219  22.952  0.00  0.00    +0.000 A 
ATOM      8  C   UNL     1       9.632   2.240  24.425  0.00  0.00    +0.000 A 
ATOM      9  C   UNL     1       9.096   1.089  25.211  0.00  0.00    +0.000 A 
ATOM     10  C   UNL     1       9.746  -0.074  24.512  0.00  0.00    +0.000 A 
ATOM     11  C   UNL     1      10.471  -0.387  23.344  0.00  0.00    +0.000 A 
ATOM     12  C   UNL     1      10.125   0.881  22.423  0.00  0.00    +0.000 A 
BRANCH   9  13
ATOM     13  C   UNL     1       7.615   1.072  24.913  0.00  0.00    +0.000 C 
ATOM     14  O   UNL     1       6.879   0.464  25.916  0.00  0.00    +0.000 OA
ATOM     15  C   UNL     1       5.567   0.329  25.654  0.00  0.00    +0.000 C 
ATOM     16  C   UNL     1       4.814   1.591  25.248  0.00  0.00    +0.000 C 
ATOM     17  N   UNL     1       5.642   2.330  24.294  0.00  0.00    +0.000 N 
ATOM     18  C   UNL     1       5.068   3.427  23.714  0.00  0.00    +0.000 C 
ATOM     19  O   UNL     1       4.667   4.326  24.426  0.00  0.00    +0.000 OA
ATOM     20  C   UNL     1       7.054   2.497  24.787  0.00  0.00    +0.000 C 
BRANCH  18  21
ATOM     21  C   UNL     1       4.778   3.370  22.250  0.00  0.00    +0.000 C 
ATOM     22 CL   UNL     1       3.027   3.395  21.940  0.00  0.00    +0.000 Cl
ENDBRANCH  18  21
ENDBRANCH   9  13
ENDBRANCH   1  12
BRANCH   4  23
ATOM     23  C   UNL     1       6.216  -2.039  22.655  0.00  0.00    +0.000 C 
BRANCH  23  24
ATOM     24  C   UNL     1       6.163  -3.030  23.846  0.00  0.00    +0.000 A 
ATOM     25  C   UNL     1       5.932  -4.377  23.122  0.00  0.00    +0.000 A 
ATOM     26  C   UNL     1       6.912  -5.471  22.816  0.00  0.00    +0.000 A 
ATOM     27  C   UNL     1       8.081  -5.132  23.692  0.00  0.00    +0.000 A 
ATOM     28  C   UNL     1       8.495  -4.300  24.695  0.00  0.00    +0.000 A 
ATOM     29  C   UNL     1       8.185  -5.109  25.838  0.00  0.00    +0.000 A 
ATOM     30  C   UNL     1       7.641  -5.340  27.091  0.00  0.00    +0.000 A 
ATOM     31  C   UNL     1       6.832  -4.026  27.046  0.00  0.00    +0.000 A 
ATOM     32  C   UNL     1       6.913  -3.023  26.182  0.00  0.00    +0.000 A 
ATOM     33  C   UNL     1       7.312  -3.221  24.785  0.00  0.00    +0.000 A 
ENDBRANCH  23  24
ENDBRANCH   4  23
TORSDOF 5
ENDMDL
MODEL 9
REMARK VINA RESULT:      -7.3      2.417      3.185
REMARK  Name = 
REMARK  5 active torsions:
REMARK  status: ('A' for Active; 'I' for Inactive)
REMARK    1  A    between atoms: C_5  and  C_6
REMARK    2  A    between atoms: C_16  and  C_18
REMARK    3  A    between atoms: C_29  and  N_30
REMARK    4  A    between atoms: N_37  and  C_38
REMARK    5  A    between atoms: C_38  and  C_41
REMARK                            x       y       z     vdW  Elec       q    Type
REMARK                         _______ _______ _______ _____ _____    ______ ____
ROOT
ATOM      1  N   UNL     1       8.488  -0.515  23.724  0.00  0.00    +0.000 N 
ATOM      2  C   UNL     1       7.322  -0.977  22.962  0.00  0.00    +0.000 C 
ATOM      3  C   UNL     1       7.367  -2.516  22.908  0.00  0.00    +0.000 C 
ATOM      4  N   UNL     1       7.988  -3.187  23.988  0.00  0.00    +0.000 NA
ATOM      5  C   UNL     1       7.943  -2.404  25.165  0.00  0.00    +0.000 C 
ATOM      6  C   UNL     1       8.451  -1.007  25.091  0.00  0.00    +0.000 C 
ENDROOT
BRANCH   1  12
ATOM      7  C   UNL     1       9.533   0.668  21.801  0.00  0.00    +0.000 A 
ATOM      8  C   UNL     1      10.023   2.134  22.130  0.00  0.00    +0.000 A 
ATOM      9  C   UNL     1      10.497   2.662  23.445  0.00  0.00    +0.000 A 
ATOM     10  C   UNL     1      10.910   1.394  24.142  0.00  0.00    +0.000 A 
ATOM     11  C   UNL     1      10.810  -0.007  24.021  0.00  0.00    +0.000 A 
ATOM     12  C   UNL     1       9.583  -0.137  22.996  0.00  0.00    +0.000 A 
BRANCH   9  13
ATOM     13  C   UNL     1       9.257   3.207  24.114  0.00  0.00    +0.000 C 
ATOM     14  O   UNL     1       9.470   4.441  24.703  0.00  0.00    +0.000 OA
ATOM     15  C   UNL     1       8.428   4.924  25.402  0.00  0.00    +0.000 C 
ATOM     16  C   UNL     1       7.089   5.000  24.675  0.00  0.00    +0.000 C 
ATOM     17  N   UNL     1       6.908   3.758  23.922  0.00  0.00    +0.000 N 
ATOM     18  C   UNL     1       5.696   3.589  23.312  0.00  0.00    +0.000 C 
ATOM     19  O   UNL     1       5.325   4.414  22.501  0.00  0.00    +0.000 OA
ATOM     20  C   UNL     1       8.121   3.417  23.100  0.00  0.00    +0.000 C 
BRANCH  18  21
ATOM     21  C   UNL     1       4.802   2.510  23.827  0.00  0.00    +0.000 C 
ATOM     22 CL   UNL     1       5.621   1.530  25.065  0.00  0.00    +0.000 Cl
ENDBRANCH  18  21
ENDBRANCH   9  13
ENDBRANCH   1  12
BRANCH   4  23
ATOM     23  C   UNL     1       7.601  -4.475  24.052  0.00  0.00    +0.000 C 
BRANCH  23  24
ATOM     24  C   UNL     1       6.177  -5.057  24.242  0.00  0.00    +0.000 A 
ATOM     25  C   UNL     1       6.224  -5.521  25.717  0.00  0.00    +0.000 A 
ATOM     26  C   UNL     1       5.650  -4.864  26.938  0.00  0.00    +0.000 A 
ATOM     27  C   UNL     1       4.706  -3.850  26.364  0.00  0.00    +0.000 A 
ATOM     28  C   UNL     1       4.131  -3.424  25.199  0.00  0.00    +0.000 A 
ATOM     29  C   UNL     1       2.913  -4.183  25.225  0.00  0.00    +0.000 A 
ATOM     30  C   UNL     1       1.950  -5.014  24.676  0.00  0.00    +0.000 A 
ATOM     31  C   UNL     1       2.860  -5.375  23.482  0.00  0.00    +0.000 A 
ATOM     32  C   UNL     1       4.012  -4.830  23.112  0.00  0.00    +0.000 A 
ATOM     33  C   UNL     1       4.941  -4.231  24.076  0.00  0.00    +0.000 A 
ENDBRANCH  23  24
ENDBRANCH   4  23
TORSDOF 5
ENDMDL
