MODEL 1
REMARK VINA RESULT:      -8.6      0.000      0.000
REMARK  Name = 
REMARK  4 active torsions:
REMARK  status: ('A' for Active; 'I' for Inactive)
REMARK    1  A    between atoms: C_5  and  C_6
REMARK    2  A    between atoms: C_16  and  C_18
REMARK    3  A    between atoms: C_18  and  C_21
REMARK    4  A    between atoms: C_30  and  C_32
REMARK                            x       y       z     vdW  Elec       q    Type
REMARK                         _______ _______ _______ _____ _____    ______ ____
ROOT
ATOM      1  C   UNL     1       7.074  -1.155  21.538  0.00  0.00    +0.000 C 
ENDROOT
BRANCH   1   7
ATOM      2  C   UNL     1       8.160   3.274  22.785  0.00  0.00    +0.000 C 
ATOM      3  O   UNL     1       6.826   3.306  23.020  0.00  0.00    +0.000 OA
ATOM      4  C   UNL     1       6.041   3.291  21.917  0.00  0.00    +0.000 C 
ATOM      5  C   UNL     1       6.263   2.060  21.074  0.00  0.00    +0.000 C 
ATOM      6  N   UNL     1       7.369   1.268  21.643  0.00  0.00    +0.000 N 
ATOM      7  C   UNL     1       7.652   0.100  20.960  0.00  0.00    +0.000 C 
ATOM      8  O   UNL     1       7.885   0.200  19.762  0.00  0.00    +0.000 OA
ATOM      9  C   UNL     1       8.566   2.074  22.011  0.00  0.00    +0.000 C 
BRANCH   2  12
ATOM     10  C   UNL     1      10.238   5.824  24.298  0.00  0.00    +0.000 A 
ATOM     11  C   UNL     1       9.063   4.891  24.417  0.00  0.00    +0.000 A 
ATOM     12  C   UNL     1       8.970   3.480  24.036  0.00  0.00    +0.000 A 
ATOM     13  C   UNL     1      10.376   3.080  23.695  0.00  0.00    +0.000 A 
ATOM     14  C   UNL     1      11.614   3.718  23.389  0.00  0.00    +0.000 A 
ATOM     15  C   UNL     1      11.413   5.200  23.669  0.00  0.00    +0.000 A 
ATOM     16  F   UNL     1      11.674   5.856  22.493  0.00  0.00    +0.000 F 
ENDBRANCH   2  12
ENDBRANCH   1   7
BRANCH   1  17
ATOM     17  C   UNL     1       7.686  -1.496  22.855  0.00  0.00    +0.000 C 
ATOM     18  O   UNL     1       7.563  -0.802  23.842  0.00  0.00    +0.000 OA
ATOM     19  N   UNL     1       8.314  -2.714  22.959  0.00  0.00    +0.000 N 
ATOM     20  C   UNL     1       7.458  -3.891  22.952  0.00  0.00    +0.000 C 
ATOM     21  C   UNL     1       8.104  -5.060  23.655  0.00  0.00    +0.000 C 
ATOM     22  C   UNL     1       8.619  -4.727  25.031  0.00  0.00    +0.000 C 
ATOM     23  C   UNL     1       9.072  -3.311  25.165  0.00  0.00    +0.000 C 
ATOM     24  C   UNL     1       9.509  -2.754  23.803  0.00  0.00    +0.000 C 
BRANCH  22  25
ATOM     25  C   UNL     1       7.580  -5.071  26.055  0.00  0.00    +0.000 C 
ATOM     26  O   UNL     1       7.828  -4.878  27.253  0.00  0.00    +0.000 OA
ATOM     27  N   UNL     1       6.251  -4.877  25.699  0.00  0.00    +0.000 N 
ATOM     28  C   UNL     1       5.413  -6.082  25.808  0.00  0.00    +0.000 C 
ATOM     29  C   UNL     1       3.968  -5.703  25.555  0.00  0.00    +0.000 C 
ATOM     30  C   UNL     1       3.885  -4.481  24.658  0.00  0.00    +0.000 C 
ATOM     31  C   UNL     1       4.460  -3.263  25.356  0.00  0.00    +0.000 C 
ATOM     32  C   UNL     1       5.652  -3.638  26.207  0.00  0.00    +0.000 C 
ENDBRANCH  22  25
ENDBRANCH   1  17
TORSDOF 4
ENDMDL
MODEL 2
REMARK VINA RESULT:      -8.5      2.324      3.047
REMARK  Name = 
REMARK  4 active torsions:
REMARK  status: ('A' for Active; 'I' for Inactive)
REMARK    1  A    between atoms: C_5  and  C_6
REMARK    2  A    between atoms: C_16  and  C_18
REMARK    3  A    between atoms: C_18  and  C_21
REMARK    4  A    between atoms: C_30  and  C_32
REMARK                            x       y       z     vdW  Elec       q    Type
REMARK                         _______ _______ _______ _____ _____    ______ ____
ROOT
ATOM      1  C   UNL     1       6.457  -1.249  21.090  0.00  0.00    +0.000 C 
ENDROOT
BRANCH   1   7
ATOM      2  C   UNL     1       8.559   2.497  23.066  0.00  0.00    +0.000 C 
ATOM      3  O   UNL     1       7.266   2.833  23.291  0.00  0.00    +0.000 OA
ATOM      4  C   UNL     1       6.560   3.196  22.195  0.00  0.00    +0.000 C 
ATOM      5  C   UNL     1       6.507   2.099  21.161  0.00  0.00    +0.000 C 
ATOM      6  N   UNL     1       7.347   0.969  21.599  0.00  0.00    +0.000 N 
ATOM      7  C   UNL     1       7.361  -0.109  20.734  0.00  0.00    +0.000 C 
ATOM      8  O   UNL     1       7.672   0.117  19.571  0.00  0.00    +0.000 OA
ATOM      9  C   UNL     1       8.689   1.371  22.106  0.00  0.00    +0.000 C 
BRANCH   2  12
ATOM     10  C   UNL     1      10.385  -0.143  24.741  0.00  0.00    +0.000 A 
ATOM     11  C   UNL     1      10.369   1.262  24.203  0.00  0.00    +0.000 A 
ATOM     12  C   UNL     1       9.330   2.286  24.341  0.00  0.00    +0.000 A 
ATOM     13  C   UNL     1       8.356   1.715  25.329  0.00  0.00    +0.000 A 
ATOM     14  C   UNL     1       8.045   0.444  25.897  0.00  0.00    +0.000 A 
ATOM     15  C   UNL     1       9.151  -0.504  25.457  0.00  0.00    +0.000 A 
ATOM     16  F   UNL     1       8.538  -1.524  24.776  0.00  0.00    +0.000 F 
ENDBRANCH   2  12
ENDBRANCH   1   7
BRANCH   1  17
ATOM     17  C   UNL     1       7.206  -2.386  21.696  0.00  0.00    +0.000 C 
ATOM     18  O   UNL     1       8.400  -2.355  21.910  0.00  0.00    +0.000 OA
ATOM     19  N   UNL     1       6.470  -3.461  22.134  0.00  0.00    +0.000 N 
ATOM     20  C   UNL     1       5.651  -3.252  23.318  0.00  0.00    +0.000 C 
ATOM     21  C   UNL     1       5.389  -4.543  24.055  0.00  0.00    +0.000 C 
ATOM     22  C   UNL     1       6.636  -5.336  24.346  0.00  0.00    +0.000 C 
ATOM     23  C   UNL     1       7.703  -5.158  23.316  0.00  0.00    +0.000 C 
ATOM     24  C   UNL     1       7.086  -4.777  21.963  0.00  0.00    +0.000 C 
BRANCH  22  25
ATOM     25  C   UNL     1       7.137  -5.003  25.719  0.00  0.00    +0.000 C 
ATOM     26  O   UNL     1       8.271  -4.523  25.846  0.00  0.00    +0.000 OA
ATOM     27  N   UNL     1       6.203  -4.539  26.638  0.00  0.00    +0.000 N 
ATOM     28  C   UNL     1       6.127  -5.332  27.876  0.00  0.00    +0.000 C 
ATOM     29  C   UNL     1       5.204  -4.634  28.853  0.00  0.00    +0.000 C 
ATOM     30  C   UNL     1       4.175  -3.797  28.113  0.00  0.00    +0.000 C 
ATOM     31  C   UNL     1       4.845  -2.656  27.372  0.00  0.00    +0.000 C 
ATOM     32  C   UNL     1       6.184  -3.083  26.813  0.00  0.00    +0.000 C 
ENDBRANCH  22  25
ENDBRANCH   1  17
TORSDOF 4
ENDMDL
MODEL 3
REMARK VINA RESULT:      -8.5      2.307      3.618
REMARK  Name = 
REMARK  4 active torsions:
REMARK  status: ('A' for Active; 'I' for Inactive)
REMARK    1  A    between atoms: C_5  and  C_6
REMARK    2  A    between atoms: C_16  and  C_18
REMARK    3  A    between atoms: C_18  and  C_21
REMARK    4  A    between atoms: C_30  and  C_32
REMARK                            x       y       z     vdW  Elec       q    Type
REMARK                         _______ _______ _______ _____ _____    ______ ____
ROOT
ATOM      1  C   UNL     1       8.997  -2.377  24.342  0.00  0.00    +0.000 C 
ENDROOT
BRANCH   1   7
ATOM      2  C   UNL     1       9.318   1.513  21.673  0.00  0.00    +0.000 C 
ATOM      3  O   UNL     1       8.132   1.040  21.220  0.00  0.00    +0.000 OA
ATOM      4  C   UNL     1       8.204  -0.077  20.460  0.00  0.00    +0.000 C 
ATOM      5  C   UNL     1       8.832  -1.233  21.199  0.00  0.00    +0.000 C 
ATOM      6  N   UNL     1       9.298  -0.775  22.521  0.00  0.00    +0.000 N 
ATOM      7  C   UNL     1       9.878  -1.758  23.300  0.00  0.00    +0.000 C 
ATOM      8  O   UNL     1      10.811  -2.380  22.806  0.00  0.00    +0.000 OA
ATOM      9  C   UNL     1      10.049   0.511  22.488  0.00  0.00    +0.000 C 
BRANCH   2  12
ATOM     10  C   UNL     1       8.580   2.841  24.960  0.00  0.00    +0.000 A 
ATOM     11  C   UNL     1       9.510   2.789  23.777  0.00  0.00    +0.000 A 
ATOM     12  C   UNL     1       9.184   2.850  22.350  0.00  0.00    +0.000 A 
ATOM     13  C   UNL     1       7.725   3.199  22.303  0.00  0.00    +0.000 A 
ATOM     14  C   UNL     1       6.608   3.201  23.188  0.00  0.00    +0.000 A 
ATOM     15  C   UNL     1       7.161   2.920  24.578  0.00  0.00    +0.000 A 
ATOM     16  F   UNL     1       6.529   1.788  25.026  0.00  0.00    +0.000 F 
ENDBRANCH   2  12
ENDBRANCH   1   7
BRANCH   1  17
ATOM     17  C   UNL     1       8.452  -3.693  23.900  0.00  0.00    +0.000 C 
ATOM     18  O   UNL     1       8.955  -4.754  24.206  0.00  0.00    +0.000 OA
ATOM     19  N   UNL     1       7.259  -3.682  23.218  0.00  0.00    +0.000 N 
ATOM     20  C   UNL     1       6.071  -3.347  23.988  0.00  0.00    +0.000 C 
ATOM     21  C   UNL     1       4.822  -3.930  23.374  0.00  0.00    +0.000 C 
ATOM     22  C   UNL     1       4.924  -5.404  23.080  0.00  0.00    +0.000 C 
ATOM     23  C   UNL     1       6.311  -5.842  22.741  0.00  0.00    +0.000 C 
ATOM     24  C   UNL     1       7.116  -4.675  22.153  0.00  0.00    +0.000 C 
BRANCH  22  25
ATOM     25  C   UNL     1       4.365  -6.187  24.229  0.00  0.00    +0.000 C 
ATOM     26  O   UNL     1       4.435  -7.424  24.205  0.00  0.00    +0.000 OA
ATOM     27  N   UNL     1       4.476  -5.624  25.493  0.00  0.00    +0.000 N 
ATOM     28  C   UNL     1       3.194  -5.460  26.198  0.00  0.00    +0.000 C 
ATOM     29  C   UNL     1       3.465  -4.996  27.614  0.00  0.00    +0.000 C 
ATOM     30  C   UNL     1       4.773  -4.227  27.685  0.00  0.00    +0.000 C 
ATOM     31  C   UNL     1       5.946  -5.136  27.373  0.00  0.00    +0.000 C 
ATOM     32  C   UNL     1       5.585  -6.141  26.303  0.00  0.00    +0.000 C 
ENDBRANCH  22  25
ENDBRANCH   1  17
TORSDOF 4
ENDMDL
MODEL 4
REMARK VINA RESULT:      -8.5      2.766      8.224
REMARK  Name = 
REMARK  4 active torsions:
REMARK  status: ('A' for Active; 'I' for Inactive)
REMARK    1  A    between atoms: C_5  and  C_6
REMARK    2  A    between atoms: C_16  and  C_18
REMARK    3  A    between atoms: C_18  and  C_21
REMARK    4  A    between atoms: C_30  and  C_32
REMARK                            x       y       z     vdW  Elec       q    Type
REMARK                         _______ _______ _______ _____ _____    ______ ____
ROOT
ATOM      1  C   UNL     1       8.342  -2.482  26.455  0.00  0.00    +0.000 C 
ENDROOT
BRANCH   1   7
ATOM      2  C   UNL     1       5.642  -5.994  24.802  0.00  0.00    +0.000 C 
ATOM      3  O   UNL     1       4.889  -5.627  25.867  0.00  0.00    +0.000 OA
ATOM      4  C   UNL     1       5.404  -5.941  27.079  0.00  0.00    +0.000 C 
ATOM      5  C   UNL     1       6.750  -5.301  27.311  0.00  0.00    +0.000 C 
ATOM      6  N   UNL     1       7.178  -4.598  26.086  0.00  0.00    +0.000 N 
ATOM      7  C   UNL     1       8.397  -3.955  26.187  0.00  0.00    +0.000 C 
ATOM      8  O   UNL     1       9.354  -4.632  26.544  0.00  0.00    +0.000 OA
ATOM      9  C   UNL     1       6.998  -5.390  24.838  0.00  0.00    +0.000 C 
BRANCH   2  12
ATOM     10  C   UNL     1       6.445  -5.243  21.352  0.00  0.00    +0.000 A 
ATOM     11  C   UNL     1       5.759  -6.146  22.341  0.00  0.00    +0.000 A 
ATOM     12  C   UNL     1       4.930  -5.784  23.493  0.00  0.00    +0.000 A 
ATOM     13  C   UNL     1       4.718  -4.304  23.365  0.00  0.00    +0.000 A 
ATOM     14  C   UNL     1       5.292  -3.209  22.654  0.00  0.00    +0.000 A 
ATOM     15  C   UNL     1       6.265  -3.813  21.651  0.00  0.00    +0.000 A 
ATOM     16  F   UNL     1       7.494  -3.271  21.930  0.00  0.00    +0.000 F 
ENDBRANCH   2  12
ENDBRANCH   1   7
BRANCH   1  17
ATOM     17  C   UNL     1       8.257  -1.689  25.195  0.00  0.00    +0.000 C 
ATOM     18  O   UNL     1       7.204  -1.397  24.667  0.00  0.00    +0.000 OA
ATOM     19  N   UNL     1       9.429  -1.177  24.694  0.00  0.00    +0.000 N 
ATOM     20  C   UNL     1      10.038  -0.089  25.444  0.00  0.00    +0.000 C 
ATOM     21  C   UNL     1      10.906   0.780  24.566  0.00  0.00    +0.000 C 
ATOM     22  C   UNL     1      10.217   1.254  23.314  0.00  0.00    +0.000 C 
ATOM     23  C   UNL     1       9.201   0.289  22.798  0.00  0.00    +0.000 C 
ATOM     24  C   UNL     1       9.546  -1.141  23.236  0.00  0.00    +0.000 C 
BRANCH  22  25
ATOM     25  C   UNL     1       9.619   2.608  23.549  0.00  0.00    +0.000 C 
ATOM     26  O   UNL     1      10.241   3.613  23.177  0.00  0.00    +0.000 OA
ATOM     27  N   UNL     1       8.237   2.714  23.461  0.00  0.00    +0.000 N 
ATOM     28  C   UNL     1       7.593   3.252  24.670  0.00  0.00    +0.000 C 
ATOM     29  C   UNL     1       6.121   3.472  24.389  0.00  0.00    +0.000 C 
ATOM     30  C   UNL     1       5.633   2.519  23.312  0.00  0.00    +0.000 C 
ATOM     31  C   UNL     1       6.302   2.823  21.985  0.00  0.00    +0.000 C 
ATOM     32  C   UNL     1       7.740   3.245  22.186  0.00  0.00    +0.000 C 
ENDBRANCH  22  25
ENDBRANCH   1  17
TORSDOF 4
ENDMDL
MODEL 5
REMARK VINA RESULT:      -8.4      3.083      8.330
REMARK  Name = 
REMARK  4 active torsions:
REMARK  status: ('A' for Active; 'I' for Inactive)
REMARK    1  A    between atoms: C_5  and  C_6
REMARK    2  A    between atoms: C_16  and  C_18
REMARK    3  A    between atoms: C_18  and  C_21
REMARK    4  A    between atoms: C_30  and  C_32
REMARK                            x       y       z     vdW  Elec       q    Type
REMARK                         _______ _______ _______ _____ _____    ______ ____
ROOT
ATOM      1  C   UNL     1       6.400  -3.550  27.457  0.00  0.00    +0.000 C 
ENDROOT
BRANCH   1   7
ATOM      2  C   UNL     1       4.837  -6.515  24.122  0.00  0.00    +0.000 C 
ATOM      3  O   UNL     1       3.678  -6.322  24.797  0.00  0.00    +0.000 OA
ATOM      4  C   UNL     1       3.617  -6.895  26.023  0.00  0.00    +0.000 C 
ATOM      5  C   UNL     1       4.699  -6.389  26.944  0.00  0.00    +0.000 C 
ATOM      6  N   UNL     1       5.596  -5.485  26.200  0.00  0.00    +0.000 N 
ATOM      7  C   UNL     1       6.621  -4.943  26.952  0.00  0.00    +0.000 C 
ATOM      8  O   UNL     1       7.347  -5.728  27.549  0.00  0.00    +0.000 OA
ATOM      9  C   UNL     1       6.015  -6.007  24.869  0.00  0.00    +0.000 C 
BRANCH   2  12
ATOM     10  C   UNL     1       7.080  -5.340  21.534  0.00  0.00    +0.000 A 
ATOM     11  C   UNL     1       5.993  -6.293  21.953  0.00  0.00    +0.000 A 
ATOM     12  C   UNL     1       4.768  -6.014  22.705  0.00  0.00    +0.000 A 
ATOM     13  C   UNL     1       4.701  -4.518  22.793  0.00  0.00    +0.000 A 
ATOM     14  C   UNL     1       5.577  -3.407  22.612  0.00  0.00    +0.000 A 
ATOM     15  C   UNL     1       6.857  -3.964  22.005  0.00  0.00    +0.000 A 
ATOM     16  F   UNL     1       7.871  -3.631  22.867  0.00  0.00    +0.000 F 
ENDBRANCH   2  12
ENDBRANCH   1   7
BRANCH   1  17
ATOM     17  C   UNL     1       7.238  -2.553  26.731  0.00  0.00    +0.000 C 
ATOM     18  O   UNL     1       8.078  -2.865  25.912  0.00  0.00    +0.000 OA
ATOM     19  N   UNL     1       6.947  -1.225  26.927  0.00  0.00    +0.000 N 
ATOM     20  C   UNL     1       5.706  -0.738  26.345  0.00  0.00    +0.000 C 
ATOM     21  C   UNL     1       5.758   0.746  26.073  0.00  0.00    +0.000 C 
ATOM     22  C   UNL     1       6.972   1.175  25.291  0.00  0.00    +0.000 C 
ATOM     23  C   UNL     1       8.172   0.326  25.552  0.00  0.00    +0.000 C 
ATOM     24  C   UNL     1       8.089  -0.310  26.946  0.00  0.00    +0.000 C 
BRANCH  22  25
ATOM     25  C   UNL     1       6.639   1.223  23.831  0.00  0.00    +0.000 C 
ATOM     26  O   UNL     1       5.878   2.109  23.416  0.00  0.00    +0.000 OA
ATOM     27  N   UNL     1       7.639   0.852  22.940  0.00  0.00    +0.000 N 
ATOM     28  C   UNL     1       7.264  -0.244  22.032  0.00  0.00    +0.000 C 
ATOM     29  C   UNL     1       8.368  -0.440  21.013  0.00  0.00    +0.000 C 
ATOM     30  C   UNL     1       9.705   0.003  21.580  0.00  0.00    +0.000 C 
ATOM     31  C   UNL     1       9.710   1.499  21.835  0.00  0.00    +0.000 C 
ATOM     32  C   UNL     1       8.360   1.971  22.322  0.00  0.00    +0.000 C 
ENDBRANCH  22  25
ENDBRANCH   1  17
TORSDOF 4
ENDMDL
MODEL 6
REMARK VINA RESULT:      -8.3      2.779      4.726
REMARK  Name = 
REMARK  4 active torsions:
REMARK  status: ('A' for Active; 'I' for Inactive)
REMARK    1  A    between atoms: C_5  and  C_6
REMARK    2  A    between atoms: C_16  and  C_18
REMARK    3  A    between atoms: C_18  and  C_21
REMARK    4  A    between atoms: C_30  and  C_32
REMARK                            x       y       z     vdW  Elec       q    Type
REMARK                         _______ _______ _______ _____ _____    ______ ____
ROOT
ATOM      1  C   UNL     1       7.976  -0.343  26.639  0.00  0.00    +0.000 C 
ENDROOT
BRANCH   1   7
ATOM      2  C   UNL     1       8.300   0.786  22.059  0.00  0.00    +0.000 C 
ATOM      3  O   UNL     1       9.514   1.222  22.474  0.00  0.00    +0.000 OA
ATOM      4  C   UNL     1       9.499   2.333  23.248  0.00  0.00    +0.000 C 
ATOM      5  C   UNL     1       8.698   2.139  24.511  0.00  0.00    +0.000 C 
ATOM      6  N   UNL     1       8.056   0.811  24.487  0.00  0.00    +0.000 N 
ATOM      7  C   UNL     1       7.306   0.513  25.609  0.00  0.00    +0.000 C 
ATOM      8  O   UNL     1       6.429   1.311  25.918  0.00  0.00    +0.000 OA
ATOM      9  C   UNL     1       7.394   0.481  23.195  0.00  0.00    +0.000 C 
BRANCH   2  12
ATOM     10  C   UNL     1       7.064  -0.039  18.757  0.00  0.00    +0.000 A 
ATOM     11  C   UNL     1       8.241   0.133  19.679  0.00  0.00    +0.000 A 
ATOM     12  C   UNL     1       8.401  -0.333  21.059  0.00  0.00    +0.000 A 
ATOM     13  C   UNL     1       7.218  -1.223  21.305  0.00  0.00    +0.000 A 
ATOM     14  C   UNL     1       5.946  -1.480  20.714  0.00  0.00    +0.000 A 
ATOM     15  C   UNL     1       5.931  -0.736  19.386  0.00  0.00    +0.000 A 
ATOM     16  F   UNL     1       4.866   0.127  19.438  0.00  0.00    +0.000 F 
ENDBRANCH   2  12
ENDBRANCH   1   7
BRANCH   1  17
ATOM     17  C   UNL     1       7.468  -1.745  26.614  0.00  0.00    +0.000 C 
ATOM     18  O   UNL     1       6.344  -2.048  26.957  0.00  0.00    +0.000 OA
ATOM     19  N   UNL     1       8.287  -2.701  26.063  0.00  0.00    +0.000 N 
ATOM     20  C   UNL     1       8.471  -2.647  24.620  0.00  0.00    +0.000 C 
ATOM     21  C   UNL     1       8.835  -3.997  24.051  0.00  0.00    +0.000 C 
ATOM     22  C   UNL     1       7.906  -5.103  24.475  0.00  0.00    +0.000 C 
ATOM     23  C   UNL     1       7.322  -4.895  25.834  0.00  0.00    +0.000 C 
ATOM     24  C   UNL     1       8.250  -4.022  26.690  0.00  0.00    +0.000 C 
BRANCH  22  25
ATOM     25  C   UNL     1       6.838  -5.289  23.440  0.00  0.00    +0.000 C 
ATOM     26  O   UNL     1       7.075  -5.999  22.453  0.00  0.00    +0.000 OA
ATOM     27  N   UNL     1       5.524  -5.336  23.887  0.00  0.00    +0.000 N 
ATOM     28  C   UNL     1       4.639  -4.334  23.269  0.00  0.00    +0.000 C 
ATOM     29  C   UNL     1       3.214  -4.595  23.712  0.00  0.00    +0.000 C 
ATOM     30  C   UNL     1       3.191  -5.277  25.069  0.00  0.00    +0.000 C 
ATOM     31  C   UNL     1       3.800  -6.664  24.981  0.00  0.00    +0.000 C 
ATOM     32  C   UNL     1       4.964  -6.686  24.016  0.00  0.00    +0.000 C 
ENDBRANCH  22  25
ENDBRANCH   1  17
TORSDOF 4
ENDMDL
MODEL 7
REMARK VINA RESULT:      -8.3      2.731      4.783
REMARK  Name = 
REMARK  4 active torsions:
REMARK  status: ('A' for Active; 'I' for Inactive)
REMARK    1  A    between atoms: C_5  and  C_6
REMARK    2  A    between atoms: C_16  and  C_18
REMARK    3  A    between atoms: C_18  and  C_21
REMARK    4  A    between atoms: C_30  and  C_32
REMARK                            x       y       z     vdW  Elec       q    Type
REMARK                         _______ _______ _______ _____ _____    ______ ____
ROOT
ATOM      1  C   UNL     1       7.258   1.066  26.011  0.00  0.00    +0.000 C 
ENDROOT
BRANCH   1   7
ATOM      2  C   UNL     1       8.903   1.121  21.579  0.00  0.00    +0.000 C 
ATOM      3  O   UNL     1      10.083   1.130  22.246  0.00  0.00    +0.000 OA
ATOM      4  C   UNL     1      10.379   2.284  22.888  0.00  0.00    +0.000 C 
ATOM      5  C   UNL     1       9.341   2.647  23.920  0.00  0.00    +0.000 C 
ATOM      6  N   UNL     1       8.225   1.684  23.855  0.00  0.00    +0.000 N 
ATOM      7  C   UNL     1       7.216   1.908  24.773  0.00  0.00    +0.000 C 
ATOM      8  O   UNL     1       6.707   3.021  24.778  0.00  0.00    +0.000 OA
ATOM      9  C   UNL     1       7.750   1.399  22.472  0.00  0.00    +0.000 C 
BRANCH   2  12
ATOM     10  C   UNL     1       6.331  -1.314  20.830  0.00  0.00    +0.000 A 
ATOM     11  C   UNL     1       7.334  -0.313  20.324  0.00  0.00    +0.000 A 
ATOM     12  C   UNL     1       8.724  -0.116  20.742  0.00  0.00    +0.000 A 
ATOM     13  C   UNL     1       9.024  -1.279  21.643  0.00  0.00    +0.000 A 
ATOM     14  C   UNL     1       8.300  -2.271  22.367  0.00  0.00    +0.000 A 
ATOM     15  C   UNL     1       6.850  -2.156  21.919  0.00  0.00    +0.000 A 
ATOM     16  F   UNL     1       6.114  -1.905  23.049  0.00  0.00    +0.000 F 
ENDBRANCH   2  12
ENDBRANCH   1   7
BRANCH   1  17
ATOM     17  C   UNL     1       6.223  -0.008  25.990  0.00  0.00    +0.000 C 
ATOM     18  O   UNL     1       5.201   0.069  25.341  0.00  0.00    +0.000 OA
ATOM     19  N   UNL     1       6.518  -1.178  26.649  0.00  0.00    +0.000 N 
ATOM     20  C   UNL     1       7.538  -2.024  26.048  0.00  0.00    +0.000 C 
ATOM     21  C   UNL     1       7.370  -3.471  26.442  0.00  0.00    +0.000 C 
ATOM     22  C   UNL     1       5.977  -4.000  26.223  0.00  0.00    +0.000 C 
ATOM     23  C   UNL     1       4.919  -2.957  26.382  0.00  0.00    +0.000 C 
ATOM     24  C   UNL     1       5.399  -1.841  27.319  0.00  0.00    +0.000 C 
BRANCH  22  25
ATOM     25  C   UNL     1       5.895  -4.667  24.884  0.00  0.00    +0.000 C 
ATOM     26  O   UNL     1       6.924  -5.143  24.386  0.00  0.00    +0.000 OA
ATOM     27  N   UNL     1       4.732  -5.369  24.596  0.00  0.00    +0.000 N 
ATOM     28  C   UNL     1       4.044  -4.924  23.372  0.00  0.00    +0.000 C 
ATOM     29  C   UNL     1       2.895  -5.867  23.081  0.00  0.00    +0.000 C 
ATOM     30  C   UNL     1       2.386  -6.502  24.363  0.00  0.00    +0.000 C 
ATOM     31  C   UNL     1       3.444  -7.402  24.973  0.00  0.00    +0.000 C 
ATOM     32  C   UNL     1       4.827  -6.821  24.779  0.00  0.00    +0.000 C 
ENDBRANCH  22  25
ENDBRANCH   1  17
TORSDOF 4
ENDMDL
MODEL 8
REMARK VINA RESULT:      -8.1      2.529      3.990
REMARK  Name = 
REMARK  4 active torsions:
REMARK  status: ('A' for Active; 'I' for Inactive)
REMARK    1  A    between atoms: C_5  and  C_6
REMARK    2  A    between atoms: C_16  and  C_18
REMARK    3  A    between atoms: C_18  and  C_21
REMARK    4  A    between atoms: C_30  and  C_32
REMARK                            x       y       z     vdW  Elec       q    Type
REMARK                         _______ _______ _______ _____ _____    ______ ____
ROOT
ATOM      1  C   UNL     1       8.249  -1.177  26.455  0.00  0.00    +0.000 C 
ENDROOT
BRANCH   1   7
ATOM      2  C   UNL     1       7.094   2.505  23.722  0.00  0.00    +0.000 C 
ATOM      3  O   UNL     1       8.061   3.088  24.470  0.00  0.00    +0.000 OA
ATOM      4  C   UNL     1       7.735   3.322  25.762  0.00  0.00    +0.000 C 
ATOM      5  C   UNL     1       7.377   2.056  26.500  0.00  0.00    +0.000 C 
ATOM      6  N   UNL     1       7.376   0.921  25.557  0.00  0.00    +0.000 N 
ATOM      7  C   UNL     1       7.078  -0.302  26.128  0.00  0.00    +0.000 C 
ATOM      8  O   UNL     1       6.030  -0.380  26.758  0.00  0.00    +0.000 OA
ATOM      9  C   UNL     1       6.665   1.197  24.278  0.00  0.00    +0.000 C 
BRANCH   2  12
ATOM     10  C   UNL     1       8.072   0.039  21.257  0.00  0.00    +0.000 A 
ATOM     11  C   UNL     1       7.135   1.145  21.662  0.00  0.00    +0.000 A 
ATOM     12  C   UNL     1       7.453   2.443  22.262  0.00  0.00    +0.000 A 
ATOM     13  C   UNL     1       8.949   2.543  22.194  0.00  0.00    +0.000 A 
ATOM     14  C   UNL     1      10.060   1.673  21.989  0.00  0.00    +0.000 A 
ATOM     15  C   UNL     1       9.480   0.330  21.566  0.00  0.00    +0.000 A 
ATOM     16  F   UNL     1       9.922  -0.588  22.484  0.00  0.00    +0.000 F 
ENDBRANCH   2  12
ENDBRANCH   1   7
BRANCH   1  17
ATOM     17  C   UNL     1       8.002  -2.600  26.082  0.00  0.00    +0.000 C 
ATOM     18  O   UNL     1       7.411  -3.379  26.800  0.00  0.00    +0.000 OA
ATOM     19  N   UNL     1       8.365  -2.990  24.816  0.00  0.00    +0.000 N 
ATOM     20  C   UNL     1       7.562  -2.471  23.719  0.00  0.00    +0.000 C 
ATOM     21  C   UNL     1       7.614  -3.372  22.509  0.00  0.00    +0.000 C 
ATOM     22  C   UNL     1       7.309  -4.815  22.817  0.00  0.00    +0.000 C 
ATOM     23  C   UNL     1       7.728  -5.226  24.190  0.00  0.00    +0.000 C 
ATOM     24  C   UNL     1       8.888  -4.351  24.685  0.00  0.00    +0.000 C 
BRANCH  22  25
ATOM     25  C   UNL     1       5.854  -5.084  22.582  0.00  0.00    +0.000 C 
ATOM     26  O   UNL     1       5.514  -5.720  21.575  0.00  0.00    +0.000 OA
ATOM     27  N   UNL     1       5.062  -5.304  23.702  0.00  0.00    +0.000 N 
ATOM     28  C   UNL     1       3.913  -4.390  23.820  0.00  0.00    +0.000 C 
ATOM     29  C   UNL     1       3.045  -4.835  24.978  0.00  0.00    +0.000 C 
ATOM     30  C   UNL     1       3.873  -5.571  26.017  0.00  0.00    +0.000 C 
ATOM     31  C   UNL     1       4.412  -6.871  25.450  0.00  0.00    +0.000 C 
ATOM     32  C   UNL     1       4.783  -6.715  23.993  0.00  0.00    +0.000 C 
ENDBRANCH  22  25
ENDBRANCH   1  17
TORSDOF 4
ENDMDL
MODEL 9
REMARK VINA RESULT:      -8.1      2.566      4.628
REMARK  Name = 
REMARK  4 active torsions:
REMARK  status: ('A' for Active; 'I' for Inactive)
REMARK    1  A    between atoms: C_5  and  C_6
REMARK    2  A    between atoms: C_16  and  C_18
REMARK    3  A    between atoms: C_18  and  C_21
REMARK    4  A    between atoms: C_30  and  C_32
REMARK                            x       y       z     vdW  Elec       q    Type
REMARK                         _______ _______ _______ _____ _____    ______ ____
ROOT
ATOM      1  C   UNL     1       6.268   0.604  26.203  0.00  0.00    +0.000 C 
ENDROOT
BRANCH   1   7
ATOM      2  C   UNL     1       8.452   2.289  22.363  0.00  0.00    +0.000 C 
ATOM      3  O   UNL     1       9.506   2.262  23.214  0.00  0.00    +0.000 OA
ATOM      4  C   UNL     1       9.479   3.187  24.202  0.00  0.00    +0.000 C 
ATOM      5  C   UNL     1       8.260   3.050  25.081  0.00  0.00    +0.000 C 
ATOM      6  N   UNL     1       7.376   2.003  24.535  0.00  0.00    +0.000 N 
ATOM      7  C   UNL     1       6.229   1.776  25.271  0.00  0.00    +0.000 C 
ATOM      8  O   UNL     1       5.513   2.744  25.497  0.00  0.00    +0.000 OA
ATOM      9  C   UNL     1       7.157   2.100  23.064  0.00  0.00    +0.000 C 
BRANCH   2  12
ATOM     10  C   UNL     1       7.246  -0.924  21.210  0.00  0.00    +0.000 A 
ATOM     11  C   UNL     1       7.451   0.541  20.936  0.00  0.00    +0.000 A 
ATOM     12  C   UNL     1       8.635   1.365  21.189  0.00  0.00    +0.000 A 
ATOM     13  C   UNL     1       9.705   0.391  21.587  0.00  0.00    +0.000 A 
ATOM     14  C   UNL     1       9.794  -0.963  22.026  0.00  0.00    +0.000 A 
ATOM     15  C   UNL     1       8.403  -1.560  21.860  0.00  0.00    +0.000 A 
ATOM     16  F   UNL     1       8.018  -1.996  23.101  0.00  0.00    +0.000 F 
ENDBRANCH   2  12
ENDBRANCH   1   7
BRANCH   1  17
ATOM     17  C   UNL     1       5.579  -0.588  25.629  0.00  0.00    +0.000 C 
ATOM     18  O   UNL     1       5.513  -0.804  24.437  0.00  0.00    +0.000 OA
ATOM     19  N   UNL     1       5.110  -1.529  26.513  0.00  0.00    +0.000 N 
ATOM     20  C   UNL     1       6.110  -2.328  27.205  0.00  0.00    +0.000 C 
ATOM     21  C   UNL     1       5.557  -3.663  27.643  0.00  0.00    +0.000 C 
ATOM     22  C   UNL     1       4.870  -4.424  26.539  0.00  0.00    +0.000 C 
ATOM     23  C   UNL     1       4.223  -3.538  25.526  0.00  0.00    +0.000 C 
ATOM     24  C   UNL     1       3.854  -2.185  26.151  0.00  0.00    +0.000 C 
BRANCH  22  25
ATOM     25  C   UNL     1       5.839  -5.372  25.902  0.00  0.00    +0.000 C 
ATOM     26  O   UNL     1       5.953  -6.516  26.363  0.00  0.00    +0.000 OA
ATOM     27  N   UNL     1       6.000  -5.283  24.525  0.00  0.00    +0.000 N 
ATOM     28  C   UNL     1       7.387  -5.049  24.091  0.00  0.00    +0.000 C 
ATOM     29  C   UNL     1       7.455  -5.137  22.581  0.00  0.00    +0.000 C 
ATOM     30  C   UNL     1       6.117  -4.768  21.963  0.00  0.00    +0.000 C 
ATOM     31  C   UNL     1       5.056  -5.785  22.336  0.00  0.00    +0.000 C 
ATOM     32  C   UNL     1       5.253  -6.281  23.751  0.00  0.00    +0.000 C 
ENDBRANCH  22  25
ENDBRANCH   1  17
TORSDOF 4
ENDMDL
