MODEL 1
REMARK VINA RESULT:      -8.7      0.000      0.000
REMARK  Name = 
REMARK  3 active torsions:
REMARK  status: ('A' for Active; 'I' for Inactive)
REMARK    1  A    between atoms: C_7  and  N_8
REMARK    2  A    between atoms: N_19  and  N_20
REMARK    3  A    between atoms: C_34  and  C_36
REMARK                            x       y       z     vdW  Elec       q    Type
REMARK                         _______ _______ _______ _____ _____    ______ ____
ROOT
ATOM      1  N   UNL     1       5.077  -5.700  23.613  0.00  0.00    +0.000 N 
ATOM      2  H   UNL     1       5.090  -5.874  22.730  0.00  0.00    +0.000 HD
ATOM      3  C   UNL     1       5.652  -4.567  23.986  0.00  0.00    +0.000 C 
ATOM      4  O   UNL     1       5.075  -3.548  24.250  0.00  0.00    +0.000 OA
ATOM      5  N   UNL     1       6.848  -4.877  24.573  0.00  0.00    +0.000 N 
ATOM      6  C   UNL     1       7.064  -4.332  25.923  0.00  0.00    +0.000 C 
ATOM      7  C   UNL     1       7.487  -2.870  25.761  0.00  0.00    +0.000 C 
ATOM      8  N   UNL     1       7.865  -2.587  24.429  0.00  0.00    +0.000 NA
ATOM      9  C   UNL     1       8.748  -3.553  23.911  0.00  0.00    +0.000 C 
ATOM     10  C   UNL     1       8.025  -4.884  23.695  0.00  0.00    +0.000 C 
ENDROOT
BRANCH   8  11
ATOM     11  N   UNL     1       7.462  -1.528  23.802  0.00  0.00    +0.000 NA
ATOM     12  C   UNL     1       7.487  -0.228  24.480  0.00  0.00    +0.000 C 
ATOM     13  C   UNL     1       8.405   0.551  24.084  0.00  0.00    +0.000 A 
ATOM     14  C   UNL     1       8.401   1.966  24.555  0.00  0.00    +0.000 A 
ATOM     15  C   UNL     1       9.243   3.062  24.095  0.00  0.00    +0.000 A 
ATOM     16  C   UNL     1      10.005   2.518  22.889  0.00  0.00    +0.000 A 
ATOM     17  C   UNL     1      10.136   1.269  22.230  0.00  0.00    +0.000 A 
ATOM     18  C   UNL     1       9.115   0.347  22.793  0.00  0.00    +0.000 A 
ATOM     19  C   UNL     1       8.185  -0.320  21.748  0.00  0.00    +0.000 C 
ATOM     20  C   UNL     1       7.353  -1.324  22.387  0.00  0.00    +0.000 C 
BRANCH  19  21
ATOM     21  C   UNL     1       7.804   0.682  20.793  0.00  0.00    +0.000 A 
ATOM     22  C   UNL     1       7.672   0.003  19.437  0.00  0.00    +0.000 A 
ATOM     23  C   UNL     1       6.515  -0.040  18.543  0.00  0.00    +0.000 A 
ATOM     24  C   UNL     1       5.535   0.965  19.113  0.00  0.00    +0.000 A 
ATOM     25  C   UNL     1       5.374   1.731  20.267  0.00  0.00    +0.000 A 
ATOM     26  C   UNL     1       6.762   1.720  20.987  0.00  0.00    +0.000 A 
ENDBRANCH  19  21
ENDBRANCH   8  11
BRANCH   1  30
ATOM     27  C   UNL     1       1.895  -7.945  23.883  0.00  0.00    +0.000 A 
ATOM     28  C   UNL     1       2.840  -7.745  25.029  0.00  0.00    +0.000 A 
ATOM     29  C   UNL     1       3.700  -6.592  25.299  0.00  0.00    +0.000 A 
ATOM     30  C   UNL     1       3.702  -5.628  24.078  0.00  0.00    +0.000 A 
ATOM     31  C   UNL     1       2.620  -5.531  23.077  0.00  0.00    +0.000 A 
ATOM     32  C   UNL     1       1.639  -6.733  23.097  0.00  0.00    +0.000 A 
ENDBRANCH   1  30
TORSDOF 3
ENDMDL
MODEL 2
REMARK VINA RESULT:      -8.2      1.692      1.815
REMARK  Name = 
REMARK  3 active torsions:
REMARK  status: ('A' for Active; 'I' for Inactive)
REMARK    1  A    between atoms: C_7  and  N_8
REMARK    2  A    between atoms: N_19  and  N_20
REMARK    3  A    between atoms: C_34  and  C_36
REMARK                            x       y       z     vdW  Elec       q    Type
REMARK                         _______ _______ _______ _____ _____    ______ ____
ROOT
ATOM      1  N   UNL     1       4.302  -5.255  25.072  0.00  0.00    +0.000 N 
ATOM      2  H   UNL     1       3.643  -5.332  24.463  0.00  0.00    +0.000 HD
ATOM      3  C   UNL     1       5.280  -4.419  24.760  0.00  0.00    +0.000 C 
ATOM      4  O   UNL     1       5.397  -3.299  25.177  0.00  0.00    +0.000 OA
ATOM      5  N   UNL     1       6.373  -5.163  24.409  0.00  0.00    +0.000 N 
ATOM      6  C   UNL     1       7.618  -4.860  25.133  0.00  0.00    +0.000 C 
ATOM      7  C   UNL     1       8.225  -3.611  24.491  0.00  0.00    +0.000 C 
ATOM      8  N   UNL     1       7.630  -3.333  23.239  0.00  0.00    +0.000 NA
ATOM      9  C   UNL     1       7.551  -4.477  22.424  0.00  0.00    +0.000 C 
ATOM     10  C   UNL     1       6.526  -5.467  22.981  0.00  0.00    +0.000 C 
ENDROOT
BRANCH   8  11
ATOM     11  N   UNL     1       7.253  -2.141  22.897  0.00  0.00    +0.000 NA
ATOM     12  C   UNL     1       7.403  -1.032  23.844  0.00  0.00    +0.000 C 
ATOM     13  C   UNL     1       8.340  -0.226  23.562  0.00  0.00    +0.000 A 
ATOM     14  C   UNL     1       8.455   1.044  24.334  0.00  0.00    +0.000 A 
ATOM     15  C   UNL     1       9.331   2.176  24.065  0.00  0.00    +0.000 A 
ATOM     16  C   UNL     1       9.976   1.885  22.713  0.00  0.00    +0.000 A 
ATOM     17  C   UNL     1       9.986   0.814  21.784  0.00  0.00    +0.000 A 
ATOM     18  C   UNL     1       8.949  -0.165  22.206  0.00  0.00    +0.000 A 
ATOM     19  C   UNL     1       7.913  -0.534  21.114  0.00  0.00    +0.000 C 
ATOM     20  C   UNL     1       7.064  -1.618  21.576  0.00  0.00    +0.000 C 
BRANCH  19  21
ATOM     21  C   UNL     1       7.533   0.675  20.440  0.00  0.00    +0.000 A 
ATOM     22  C   UNL     1       7.269   0.327  18.981  0.00  0.00    +0.000 A 
ATOM     23  C   UNL     1       6.055   0.541  18.192  0.00  0.00    +0.000 A 
ATOM     24  C   UNL     1       5.180   1.434  19.047  0.00  0.00    +0.000 A 
ATOM     25  C   UNL     1       5.143   1.926  20.352  0.00  0.00    +0.000 A 
ATOM     26  C   UNL     1       6.572   1.688  20.940  0.00  0.00    +0.000 A 
ENDBRANCH  19  21
ENDBRANCH   8  11
BRANCH   1  30
ATOM     27  C   UNL     1       2.002  -6.489  27.975  0.00  0.00    +0.000 A 
ATOM     28  C   UNL     1       3.498  -6.545  28.052  0.00  0.00    +0.000 A 
ATOM     29  C   UNL     1       4.470  -5.682  27.379  0.00  0.00    +0.000 A 
ATOM     30  C   UNL     1       3.752  -4.783  26.332  0.00  0.00    +0.000 A 
ATOM     31  C   UNL     1       2.327  -4.400  26.382  0.00  0.00    +0.000 A 
ATOM     32  C   UNL     1       1.479  -5.269  27.348  0.00  0.00    +0.000 A 
ENDBRANCH   1  30
TORSDOF 3
ENDMDL
MODEL 3
REMARK VINA RESULT:      -7.6      2.869      8.440
REMARK  Name = 
REMARK  3 active torsions:
REMARK  status: ('A' for Active; 'I' for Inactive)
REMARK    1  A    between atoms: C_7  and  N_8
REMARK    2  A    between atoms: N_19  and  N_20
REMARK    3  A    between atoms: C_34  and  C_36
REMARK                            x       y       z     vdW  Elec       q    Type
REMARK                         _______ _______ _______ _____ _____    ______ ____
ROOT
ATOM      1  N   UNL     1       9.283   2.266  24.959  0.00  0.00    +0.000 N 
ATOM      2  H   UNL     1       9.414   2.040  25.821  0.00  0.00    +0.000 HD
ATOM      3  C   UNL     1       8.881   1.289  24.162  0.00  0.00    +0.000 C 
ATOM      4  O   UNL     1       7.750   1.106  23.801  0.00  0.00    +0.000 OA
ATOM      5  N   UNL     1       9.942   0.919  23.382  0.00  0.00    +0.000 N 
ATOM      6  C   UNL     1       9.708   0.926  21.929  0.00  0.00    +0.000 C 
ATOM      7  C   UNL     1       8.964  -0.364  21.581  0.00  0.00    +0.000 C 
ATOM      8  N   UNL     1       9.024  -1.296  22.642  0.00  0.00    +0.000 NA
ATOM      9  C   UNL     1      10.331  -1.445  23.143  0.00  0.00    +0.000 C 
ATOM     10  C   UNL     1      10.771  -0.182  23.886  0.00  0.00    +0.000 C 
ENDROOT
BRANCH   8  11
ATOM     11  N   UNL     1       7.986  -1.954  23.051  0.00  0.00    +0.000 NA
ATOM     12  C   UNL     1       7.036  -2.493  22.073  0.00  0.00    +0.000 C 
ATOM     13  C   UNL     1       7.095  -3.750  21.923  0.00  0.00    +0.000 A 
ATOM     14  C   UNL     1       6.044  -4.429  21.111  0.00  0.00    +0.000 A 
ATOM     15  C   UNL     1       5.821  -5.860  20.958  0.00  0.00    +0.000 A 
ATOM     16  C   UNL     1       6.761  -6.532  21.955  0.00  0.00    +0.000 A 
ATOM     17  C   UNL     1       7.780  -6.121  22.851  0.00  0.00    +0.000 A 
ATOM     18  C   UNL     1       7.752  -4.636  22.921  0.00  0.00    +0.000 A 
ATOM     19  C   UNL     1       7.631  -4.048  24.350  0.00  0.00    +0.000 C 
ATOM     20  C   UNL     1       7.791  -2.605  24.313  0.00  0.00    +0.000 C 
BRANCH  19  21
ATOM     21  C   UNL     1       6.656  -4.822  25.064  0.00  0.00    +0.000 A 
ATOM     22  C   UNL     1       7.335  -5.394  26.301  0.00  0.00    +0.000 A 
ATOM     23  C   UNL     1       6.959  -5.241  27.707  0.00  0.00    +0.000 A 
ATOM     24  C   UNL     1       5.582  -4.609  27.682  0.00  0.00    +0.000 A 
ATOM     25  C   UNL     1       4.717  -4.018  26.761  0.00  0.00    +0.000 A 
ATOM     26  C   UNL     1       5.258  -4.417  25.348  0.00  0.00    +0.000 A 
ENDBRANCH  19  21
ENDBRANCH   8  11
BRANCH   1  30
ATOM     27  C   UNL     1       8.557   5.855  26.313  0.00  0.00    +0.000 A 
ATOM     28  C   UNL     1       9.161   5.609  24.963  0.00  0.00    +0.000 A 
ATOM     29  C   UNL     1       8.998   4.438  24.101  0.00  0.00    +0.000 A 
ATOM     30  C   UNL     1       8.267   3.302  24.873  0.00  0.00    +0.000 A 
ATOM     31  C   UNL     1       7.367   3.508  26.026  0.00  0.00    +0.000 A 
ATOM     32  C   UNL     1       7.492   4.913  26.674  0.00  0.00    +0.000 A 
ENDBRANCH   1  30
TORSDOF 3
ENDMDL
MODEL 4
REMARK VINA RESULT:      -7.1      2.134      8.765
REMARK  Name = 
REMARK  3 active torsions:
REMARK  status: ('A' for Active; 'I' for Inactive)
REMARK    1  A    between atoms: C_7  and  N_8
REMARK    2  A    between atoms: N_19  and  N_20
REMARK    3  A    between atoms: C_34  and  C_36
REMARK                            x       y       z     vdW  Elec       q    Type
REMARK                         _______ _______ _______ _____ _____    ______ ____
ROOT
ATOM      1  N   UNL     1       9.158  -0.490  24.478  0.00  0.00    +0.000 N 
ATOM      2  H   UNL     1       9.376  -0.375  25.344  0.00  0.00    +0.000 HD
ATOM      3  C   UNL     1       8.336  -1.495  24.220  0.00  0.00    +0.000 C 
ATOM      4  O   UNL     1       7.156  -1.394  24.022  0.00  0.00    +0.000 OA
ATOM      5  N   UNL     1       9.067  -2.501  23.651  0.00  0.00    +0.000 N 
ATOM      6  C   UNL     1       8.574  -3.005  22.359  0.00  0.00    +0.000 C 
ATOM      7  C   UNL     1       7.423  -3.968  22.655  0.00  0.00    +0.000 C 
ATOM      8  N   UNL     1       7.400  -4.340  24.018  0.00  0.00    +0.000 NA
ATOM      9  C   UNL     1       8.671  -4.725  24.485  0.00  0.00    +0.000 C 
ATOM     10  C   UNL     1       9.605  -3.516  24.565  0.00  0.00    +0.000 C 
ENDROOT
BRANCH   8  11
ATOM     11  N   UNL     1       6.309  -4.357  24.716  0.00  0.00    +0.000 NA
ATOM     12  C   UNL     1       5.020  -4.129  24.056  0.00  0.00    +0.000 C 
ATOM     13  C   UNL     1       4.307  -5.169  23.924  0.00  0.00    +0.000 A 
ATOM     14  C   UNL     1       2.900  -5.023  23.455  0.00  0.00    +0.000 A 
ATOM     15  C   UNL     1       1.866  -6.047  23.403  0.00  0.00    +0.000 A 
ATOM     16  C   UNL     1       2.455  -7.264  24.113  0.00  0.00    +0.000 A 
ATOM     17  C   UNL     1       3.704  -7.622  24.679  0.00  0.00    +0.000 A 
ATOM     18  C   UNL     1       4.553  -6.402  24.719  0.00  0.00    +0.000 A 
ATOM     19  C   UNL     1       5.141  -6.057  26.111  0.00  0.00    +0.000 C 
ATOM     20  C   UNL     1       6.087  -4.961  25.997  0.00  0.00    +0.000 C 
BRANCH  19  21
ATOM     21  C   UNL     1       4.106  -6.249  27.087  0.00  0.00    +0.000 A 
ATOM     22  C   UNL     1       4.740  -6.891  28.314  0.00  0.00    +0.000 A 
ATOM     23  C   UNL     1       4.748  -6.414  29.697  0.00  0.00    +0.000 A 
ATOM     24  C   UNL     1       3.756  -5.269  29.728  0.00  0.00    +0.000 A 
ATOM     25  C   UNL     1       3.027  -4.491  28.828  0.00  0.00    +0.000 A 
ATOM     26  C   UNL     1       3.070  -5.258  27.465  0.00  0.00    +0.000 A 
ENDBRANCH  19  21
ENDBRANCH   8  11
BRANCH   1  30
ATOM     27  C   UNL     1      10.005   3.208  23.557  0.00  0.00    +0.000 A 
ATOM     28  C   UNL     1       9.945   2.115  22.533  0.00  0.00    +0.000 A 
ATOM     29  C   UNL     1       9.153   0.885  22.570  0.00  0.00    +0.000 A 
ATOM     30  C   UNL     1       8.506   0.707  23.974  0.00  0.00    +0.000 A 
ATOM     31  C   UNL     1       8.218   1.806  24.917  0.00  0.00    +0.000 A 
ATOM     32  C   UNL     1       8.955   3.129  24.580  0.00  0.00    +0.000 A 
ENDBRANCH   1  30
TORSDOF 3
ENDMDL
MODEL 5
REMARK VINA RESULT:      -7.0      2.096      7.657
REMARK  Name = 
REMARK  3 active torsions:
REMARK  status: ('A' for Active; 'I' for Inactive)
REMARK    1  A    between atoms: C_7  and  N_8
REMARK    2  A    between atoms: N_19  and  N_20
REMARK    3  A    between atoms: C_34  and  C_36
REMARK                            x       y       z     vdW  Elec       q    Type
REMARK                         _______ _______ _______ _____ _____    ______ ____
ROOT
ATOM      1  N   UNL     1       6.821  -0.622  22.346  0.00  0.00    +0.000 N 
ATOM      2  H   UNL     1       5.970  -0.332  22.397  0.00  0.00    +0.000 HD
ATOM      3  C   UNL     1       7.155  -1.580  23.198  0.00  0.00    +0.000 C 
ATOM      4  O   UNL     1       7.231  -2.749  22.934  0.00  0.00    +0.000 OA
ATOM      5  N   UNL     1       7.932  -1.021  24.175  0.00  0.00    +0.000 N 
ATOM      6  C   UNL     1       9.236  -1.661  24.406  0.00  0.00    +0.000 C 
ATOM      7  C   UNL     1       8.989  -2.901  25.269  0.00  0.00    +0.000 C 
ATOM      8  N   UNL     1       7.701  -2.876  25.850  0.00  0.00    +0.000 NA
ATOM      9  C   UNL     1       7.411  -1.634  26.445  0.00  0.00    +0.000 C 
ATOM     10  C   UNL     1       7.232  -0.552  25.378  0.00  0.00    +0.000 C 
ENDROOT
BRANCH   8  11
ATOM     11  N   UNL     1       6.920  -3.910  25.856  0.00  0.00    +0.000 NA
ATOM     12  C   UNL     1       7.109  -4.958  26.863  0.00  0.00    +0.000 C 
ATOM     13  C   UNL     1       6.232  -4.970  27.777  0.00  0.00    +0.000 A 
ATOM     14  C   UNL     1       6.206  -6.112  28.736  0.00  0.00    +0.000 A 
ATOM     15  C   UNL     1       5.193  -6.414  29.737  0.00  0.00    +0.000 A 
ATOM     16  C   UNL     1       4.054  -5.432  29.479  0.00  0.00    +0.000 A 
ATOM     17  C   UNL     1       3.818  -4.329  28.621  0.00  0.00    +0.000 A 
ATOM     18  C   UNL     1       4.923  -4.280  27.627  0.00  0.00    +0.000 A 
ATOM     19  C   UNL     1       4.472  -4.261  26.145  0.00  0.00    +0.000 C 
ATOM     20  C   UNL     1       5.614  -4.036  25.277  0.00  0.00    +0.000 C 
BRANCH  19  21
ATOM     21  C   UNL     1       3.408  -5.213  25.995  0.00  0.00    +0.000 A 
ATOM     22  C   UNL     1       2.460  -4.683  24.928  0.00  0.00    +0.000 A 
ATOM     23  C   UNL     1       2.031  -5.323  23.684  0.00  0.00    +0.000 A 
ATOM     24  C   UNL     1       2.513  -6.755  23.787  0.00  0.00    +0.000 A 
ATOM     25  C   UNL     1       3.342  -7.525  24.604  0.00  0.00    +0.000 A 
ATOM     26  C   UNL     1       3.562  -6.685  25.905  0.00  0.00    +0.000 A 
ENDBRANCH  19  21
ENDBRANCH   8  11
BRANCH   1  30
ATOM     27  C   UNL     1       6.224   0.291  18.598  0.00  0.00    +0.000 A 
ATOM     28  C   UNL     1       7.516   0.578  19.302  0.00  0.00    +0.000 A 
ATOM     29  C   UNL     1       8.104  -0.138  20.436  0.00  0.00    +0.000 A 
ATOM     30  C   UNL     1       7.079  -1.153  21.018  0.00  0.00    +0.000 A 
ATOM     31  C   UNL     1       5.958  -1.748  20.264  0.00  0.00    +0.000 A 
ATOM     32  C   UNL     1       5.626  -1.004  18.944  0.00  0.00    +0.000 A 
ENDBRANCH   1  30
TORSDOF 3
ENDMDL
MODEL 6
REMARK VINA RESULT:      -6.7      2.133      3.217
REMARK  Name = 
REMARK  3 active torsions:
REMARK  status: ('A' for Active; 'I' for Inactive)
REMARK    1  A    between atoms: C_7  and  N_8
REMARK    2  A    between atoms: N_19  and  N_20
REMARK    3  A    between atoms: C_34  and  C_36
REMARK                            x       y       z     vdW  Elec       q    Type
REMARK                         _______ _______ _______ _____ _____    ______ ____
ROOT
ATOM      1  N   UNL     1       4.370  -4.786  24.135  0.00  0.00    +0.000 N 
ATOM      2  H   UNL     1       3.701  -4.280  23.808  0.00  0.00    +0.000 HD
ATOM      3  C   UNL     1       5.535  -4.174  24.286  0.00  0.00    +0.000 C 
ATOM      4  O   UNL     1       5.970  -3.753  25.323  0.00  0.00    +0.000 OA
ATOM      5  N   UNL     1       6.368  -4.604  23.290  0.00  0.00    +0.000 N 
ATOM      6  C   UNL     1       7.665  -5.146  23.723  0.00  0.00    +0.000 C 
ATOM      7  C   UNL     1       8.581  -3.955  24.016  0.00  0.00    +0.000 C 
ATOM      8  N   UNL     1       8.056  -2.757  23.480  0.00  0.00    +0.000 NA
ATOM      9  C   UNL     1       7.640  -2.911  22.144  0.00  0.00    +0.000 C 
ATOM     10  C   UNL     1       6.394  -3.795  22.065  0.00  0.00    +0.000 C 
ENDROOT
BRANCH   8  11
ATOM     11  N   UNL     1       8.018  -1.651  24.153  0.00  0.00    +0.000 NA
ATOM     12  C   UNL     1       9.269  -0.999  24.551  0.00  0.00    +0.000 C 
ATOM     13  C   UNL     1       9.546   0.048  23.892  0.00  0.00    +0.000 A 
ATOM     14  C   UNL     1      10.682   0.903  24.342  0.00  0.00    +0.000 A 
ATOM     15  C   UNL     1      11.058   2.220  23.847  0.00  0.00    +0.000 A 
ATOM     16  C   UNL     1       9.934   2.641  22.904  0.00  0.00    +0.000 A 
ATOM     17  C   UNL     1       8.758   2.054  22.374  0.00  0.00    +0.000 A 
ATOM     18  C   UNL     1       8.522   0.775  23.096  0.00  0.00    +0.000 A 
ATOM     19  C   UNL     1       7.117   0.631  23.734  0.00  0.00    +0.000 C 
ATOM     20  C   UNL     1       6.939  -0.712  24.254  0.00  0.00    +0.000 C 
BRANCH  19  21
ATOM     21  C   UNL     1       6.785   1.883  24.355  0.00  0.00    +0.000 A 
ATOM     22  C   UNL     1       5.272   2.043  24.289  0.00  0.00    +0.000 A 
ATOM     23  C   UNL     1       4.323   2.248  25.384  0.00  0.00    +0.000 A 
ATOM     24  C   UNL     1       5.179   2.541  26.600  0.00  0.00    +0.000 A 
ATOM     25  C   UNL     1       6.523   2.498  26.969  0.00  0.00    +0.000 A 
ATOM     26  C   UNL     1       7.332   2.394  25.635  0.00  0.00    +0.000 A 
ENDBRANCH  19  21
ENDBRANCH   8  11
BRANCH   1  30
ATOM     27  C   UNL     1       1.732  -7.130  25.805  0.00  0.00    +0.000 A 
ATOM     28  C   UNL     1       3.106  -7.599  25.433  0.00  0.00    +0.000 A 
ATOM     29  C   UNL     1       4.335  -6.808  25.336  0.00  0.00    +0.000 A 
ATOM     30  C   UNL     1       4.006  -5.292  25.448  0.00  0.00    +0.000 A 
ATOM     31  C   UNL     1       2.812  -4.733  26.115  0.00  0.00    +0.000 A 
ATOM     32  C   UNL     1       1.693  -5.777  26.372  0.00  0.00    +0.000 A 
ENDBRANCH   1  30
TORSDOF 3
ENDMDL
MODEL 7
REMARK VINA RESULT:      -6.7      2.582      8.523
REMARK  Name = 
REMARK  3 active torsions:
REMARK  status: ('A' for Active; 'I' for Inactive)
REMARK    1  A    between atoms: C_7  and  N_8
REMARK    2  A    between atoms: N_19  and  N_20
REMARK    3  A    between atoms: C_34  and  C_36
REMARK                            x       y       z     vdW  Elec       q    Type
REMARK                         _______ _______ _______ _____ _____    ______ ____
ROOT
ATOM      1  N   UNL     1       8.927   1.827  25.024  0.00  0.00    +0.000 N 
ATOM      2  H   UNL     1       8.975   1.760  25.920  0.00  0.00    +0.000 HD
ATOM      3  C   UNL     1       8.288   0.846  24.406  0.00  0.00    +0.000 C 
ATOM      4  O   UNL     1       7.156   0.896  24.005  0.00  0.00    +0.000 OA
ATOM      5  N   UNL     1       9.222   0.055  23.795  0.00  0.00    +0.000 N 
ATOM      6  C   UNL     1       9.026  -0.180  22.356  0.00  0.00    +0.000 C 
ATOM      7  C   UNL     1       7.964  -1.272  22.213  0.00  0.00    +0.000 C 
ATOM      8  N   UNL     1       7.748  -1.944  23.437  0.00  0.00    +0.000 NA
ATOM      9  C   UNL     1       8.955  -2.324  24.054  0.00  0.00    +0.000 C 
ATOM     10  C   UNL     1       9.709  -1.095  24.566  0.00  0.00    +0.000 C 
ENDROOT
BRANCH   8  11
ATOM     11  N   UNL     1       6.562  -2.204  23.889  0.00  0.00    +0.000 NA
ATOM     12  C   UNL     1       5.668  -3.077  23.122  0.00  0.00    +0.000 C 
ATOM     13  C   UNL     1       5.516  -4.234  23.615  0.00  0.00    +0.000 A 
ATOM     14  C   UNL     1       4.476  -5.133  23.036  0.00  0.00    +0.000 A 
ATOM     15  C   UNL     1       4.018  -6.416  23.552  0.00  0.00    +0.000 A 
ATOM     16  C   UNL     1       4.679  -6.569  24.920  0.00  0.00    +0.000 A 
ATOM     17  C   UNL     1       5.627  -5.853  25.693  0.00  0.00    +0.000 A 
ATOM     18  C   UNL     1       5.862  -4.544  25.028  0.00  0.00    +0.000 A 
ATOM     19  C   UNL     1       5.661  -3.302  25.933  0.00  0.00    +0.000 C 
ATOM     20  C   UNL     1       6.085  -2.101  25.237  0.00  0.00    +0.000 C 
BRANCH  19  21
ATOM     21  C   UNL     1       4.474  -3.513  26.714  0.00  0.00    +0.000 A 
ATOM     22  C   UNL     1       4.759  -3.025  28.128  0.00  0.00    +0.000 A 
ATOM     23  C   UNL     1       4.042  -2.020  28.913  0.00  0.00    +0.000 A 
ATOM     24  C   UNL     1       2.774  -1.739  28.133  0.00  0.00    +0.000 A 
ATOM     25  C   UNL     1       2.230  -2.024  26.880  0.00  0.00    +0.000 A 
ATOM     26  C   UNL     1       3.088  -3.194  26.296  0.00  0.00    +0.000 A 
ENDBRANCH  19  21
ENDBRANCH   8  11
BRANCH   1  30
ATOM     27  C   UNL     1       9.407   5.696  25.216  0.00  0.00    +0.000 A 
ATOM     28  C   UNL     1       9.734   4.903  23.986  0.00  0.00    +0.000 A 
ATOM     29  C   UNL     1       9.140   3.641  23.542  0.00  0.00    +0.000 A 
ATOM     30  C   UNL     1       8.234   3.053  24.661  0.00  0.00    +0.000 A 
ATOM     31  C   UNL     1       7.588   3.843  25.728  0.00  0.00    +0.000 A 
ATOM     32  C   UNL     1       8.181   5.267  25.899  0.00  0.00    +0.000 A 
ENDBRANCH   1  30
TORSDOF 3
ENDMDL
MODEL 8
REMARK VINA RESULT:      -6.7      2.393      4.387
REMARK  Name = 
REMARK  3 active torsions:
REMARK  status: ('A' for Active; 'I' for Inactive)
REMARK    1  A    between atoms: C_7  and  N_8
REMARK    2  A    between atoms: N_19  and  N_20
REMARK    3  A    between atoms: C_34  and  C_36
REMARK                            x       y       z     vdW  Elec       q    Type
REMARK                         _______ _______ _______ _____ _____    ______ ____
ROOT
ATOM      1  N   UNL     1       6.694  -2.928  22.496  0.00  0.00    +0.000 N 
ATOM      2  H   UNL     1       6.022  -2.551  22.031  0.00  0.00    +0.000 HD
ATOM      3  C   UNL     1       7.531  -2.086  23.084  0.00  0.00    +0.000 C 
ATOM      4  O   UNL     1       7.514  -1.788  24.247  0.00  0.00    +0.000 OA
ATOM      5  N   UNL     1       8.696  -2.082  22.367  0.00  0.00    +0.000 N 
ATOM      6  C   UNL     1       9.923  -2.356  23.131  0.00  0.00    +0.000 C 
ATOM      7  C   UNL     1      10.319  -1.058  23.838  0.00  0.00    +0.000 C 
ATOM      8  N   UNL     1       9.627   0.052  23.303  0.00  0.00    +0.000 NA
ATOM      9  C   UNL     1       9.663   0.072  21.896  0.00  0.00    +0.000 C 
ATOM     10  C   UNL     1       8.814  -1.062  21.318  0.00  0.00    +0.000 C 
ENDROOT
BRANCH   8  11
ATOM     11  N   UNL     1       9.072   0.953  24.051  0.00  0.00    +0.000 NA
ATOM     12  C   UNL     1       9.772   2.215  24.308  0.00  0.00    +0.000 C 
ATOM     13  C   UNL     1       9.294   3.214  23.691  0.00  0.00    +0.000 A 
ATOM     14  C   UNL     1       9.793   4.577  24.031  0.00  0.00    +0.000 A 
ATOM     15  C   UNL     1       9.266   5.858  23.581  0.00  0.00    +0.000 A 
ATOM     16  C   UNL     1       7.971   5.534  22.842  0.00  0.00    +0.000 A 
ATOM     17  C   UNL     1       7.273   4.364  22.448  0.00  0.00    +0.000 A 
ATOM     18  C   UNL     1       7.927   3.201  23.105  0.00  0.00    +0.000 A 
ATOM     19  C   UNL     1       6.978   2.293  23.928  0.00  0.00    +0.000 C 
ATOM     20  C   UNL     1       7.684   1.105  24.372  0.00  0.00    +0.000 C 
BRANCH  19  21
ATOM     21  C   UNL     1       6.095   3.143  24.676  0.00  0.00    +0.000 A 
ATOM     22  C   UNL     1       4.765   2.414  24.820  0.00  0.00    +0.000 A 
ATOM     23  C   UNL     1       4.042   2.059  26.042  0.00  0.00    +0.000 A 
ATOM     24  C   UNL     1       4.753   2.804  27.154  0.00  0.00    +0.000 A 
ATOM     25  C   UNL     1       5.925   3.537  27.341  0.00  0.00    +0.000 A 
ATOM     26  C   UNL     1       6.442   3.892  25.908  0.00  0.00    +0.000 A 
ENDBRANCH  19  21
ENDBRANCH   8  11
BRANCH   1  30
ATOM     27  C   UNL     1       4.260  -5.943  22.964  0.00  0.00    +0.000 A 
ATOM     28  C   UNL     1       5.747  -6.112  22.883  0.00  0.00    +0.000 A 
ATOM     29  C   UNL     1       6.787  -5.152  23.255  0.00  0.00    +0.000 A 
ATOM     30  C   UNL     1       6.151  -3.763  23.553  0.00  0.00    +0.000 A 
ATOM     31  C   UNL     1       4.753  -3.548  23.978  0.00  0.00    +0.000 A 
ATOM     32  C   UNL     1       3.831  -4.773  23.739  0.00  0.00    +0.000 A 
ENDBRANCH   1  30
TORSDOF 3
ENDMDL
MODEL 9
REMARK VINA RESULT:      -6.6      2.484      6.914
REMARK  Name = 
REMARK  3 active torsions:
REMARK  status: ('A' for Active; 'I' for Inactive)
REMARK    1  A    between atoms: C_7  and  N_8
REMARK    2  A    between atoms: N_19  and  N_20
REMARK    3  A    between atoms: C_34  and  C_36
REMARK                            x       y       z     vdW  Elec       q    Type
REMARK                         _______ _______ _______ _____ _____    ______ ____
ROOT
ATOM      1  N   UNL     1       7.636   1.132  21.467  0.00  0.00    +0.000 N 
ATOM      2  H   UNL     1       7.209   1.793  21.904  0.00  0.00    +0.000 HD
ATOM      3  C   UNL     1       8.185   0.199  22.230  0.00  0.00    +0.000 C 
ATOM      4  O   UNL     1       7.714  -0.883  22.453  0.00  0.00    +0.000 OA
ATOM      5  N   UNL     1       9.539   0.396  22.227  0.00  0.00    +0.000 N 
ATOM      6  C   UNL     1      10.359  -0.765  21.849  0.00  0.00    +0.000 C 
ATOM      7  C   UNL     1      10.463  -1.669  23.079  0.00  0.00    +0.000 C 
ATOM      8  N   UNL     1      10.058  -0.992  24.252  0.00  0.00    +0.000 NA
ATOM      9  C   UNL     1      10.649   0.281  24.361  0.00  0.00    +0.000 C 
ATOM     10  C   UNL     1      10.080   1.232  23.307  0.00  0.00    +0.000 C 
ENDROOT
BRANCH   8  11
ATOM     11  N   UNL     1       9.268  -1.528  25.127  0.00  0.00    +0.000 NA
ATOM     12  C   UNL     1       8.897  -0.776  26.329  0.00  0.00    +0.000 C 
ATOM     13  C   UNL     1       7.707  -0.338  26.327  0.00  0.00    +0.000 A 
ATOM     14  C   UNL     1       7.157   0.262  27.577  0.00  0.00    +0.000 A 
ATOM     15  C   UNL     1       5.782   0.659  27.846  0.00  0.00    +0.000 A 
ATOM     16  C   UNL     1       4.968   0.155  26.657  0.00  0.00    +0.000 A 
ATOM     17  C   UNL     1       5.237  -0.474  25.415  0.00  0.00    +0.000 A 
ATOM     18  C   UNL     1       6.668  -0.878  25.409  0.00  0.00    +0.000 A 
ATOM     19  C   UNL     1       6.926  -2.373  25.096  0.00  0.00    +0.000 C 
ATOM     20  C   UNL     1       8.350  -2.614  24.943  0.00  0.00    +0.000 C 
BRANCH  19  21
ATOM     21  C   UNL     1       5.959  -3.149  25.821  0.00  0.00    +0.000 A 
ATOM     22  C   UNL     1       5.433  -4.226  24.882  0.00  0.00    +0.000 A 
ATOM     23  C   UNL     1       5.437  -5.679  25.059  0.00  0.00    +0.000 A 
ATOM     24  C   UNL     1       5.834  -5.900  26.505  0.00  0.00    +0.000 A 
ATOM     25  C   UNL     1       6.329  -5.162  27.580  0.00  0.00    +0.000 A 
ATOM     26  C   UNL     1       6.112  -3.659  27.205  0.00  0.00    +0.000 A 
ENDBRANCH  19  21
ENDBRANCH   8  11
BRANCH   1  30
ATOM     27  C   UNL     1       6.237   1.353  17.830  0.00  0.00    +0.000 A 
ATOM     28  C   UNL     1       7.367   0.443  18.205  0.00  0.00    +0.000 A 
ATOM     29  C   UNL     1       7.640  -0.168  19.507  0.00  0.00    +0.000 A 
ATOM     30  C   UNL     1       6.705   0.441  20.591  0.00  0.00    +0.000 A 
ATOM     31  C   UNL     1       5.393   1.063  20.322  0.00  0.00    +0.000 A 
ATOM     32  C   UNL     1       5.165   1.422  18.830  0.00  0.00    +0.000 A 
ENDBRANCH   1  30
TORSDOF 3
ENDMDL
