MODEL 1
REMARK VINA RESULT:      -8.9      0.000      0.000
REMARK  Name = 
REMARK  5 active torsions:
REMARK  status: ('A' for Active; 'I' for Inactive)
REMARK    1  A    between atoms: C_11  and  N_13
REMARK    2  A    between atoms: N_13  and  C_47
REMARK    3  A    between atoms: N_23  and  S_24
REMARK    4  A    between atoms: S_24  and  C_27
REMARK    5  A    between atoms: C_32  and  C_33
REMARK                            x       y       z     vdW  Elec       q    Type
REMARK                         _______ _______ _______ _____ _____    ______ ____
ROOT
ATOM      1  N   UNL     1       7.940   0.631  21.586  0.00  0.00    +0.000 N 
ATOM      2  C   UNL     1       8.564  -0.562  21.789  0.00  0.00    +0.000 C 
ATOM      3  O   UNL     1       9.276  -0.931  20.820  0.00  0.00    +0.000 OA
ATOM      4  N   UNL     1       8.924  -0.955  23.012  0.00  0.00    +0.000 N 
ATOM      5  C   UNL     1      10.165  -1.656  23.293  0.00  0.00    +0.000 C 
ATOM      6  C   UNL     1       9.981  -2.819  24.285  0.00  0.00    +0.000 C 
ATOM      7  N   UNL     1       8.657  -3.099  24.516  0.00  0.00    +0.000 NA
ATOM      8  C   UNL     1       7.904  -2.057  24.992  0.00  0.00    +0.000 C 
ATOM      9  C   UNL     1       8.012  -0.791  24.147  0.00  0.00    +0.000 C 
ENDROOT
BRANCH   1  16
ATOM     10  C   UNL     1       8.059   2.268  23.438  0.00  0.00    +0.000 C 
ATOM     11  C   UNL     1       8.952   2.635  24.515  0.00  0.00    +0.000 C 
ATOM     12  S   UNL     1      10.606   2.288  23.735  0.00  0.00    +0.000 S 
ATOM     13  O   UNL     1      11.140   1.170  24.356  0.00  0.00    +0.000 OA
ATOM     14  O   UNL     1      11.311   3.505  23.715  0.00  0.00    +0.000 OA
ATOM     15  C   UNL     1      10.084   1.867  22.040  0.00  0.00    +0.000 C 
ATOM     16  C   UNL     1       8.597   1.893  22.069  0.00  0.00    +0.000 C 
ENDBRANCH   1  16
BRANCH   1  17
ATOM     17  C   UNL     1       7.577   0.693  20.337  0.00  0.00    +0.000 A 
ATOM     18  C   UNL     1       6.491   1.766  20.414  0.00  0.00    +0.000 A 
ATOM     19  C   UNL     1       5.150   1.722  19.746  0.00  0.00    +0.000 A 
ATOM     20  C   UNL     1       5.133   0.455  18.957  0.00  0.00    +0.000 A 
ATOM     21  C   UNL     1       5.937  -0.671  18.777  0.00  0.00    +0.000 A 
ATOM     22  C   UNL     1       7.339  -0.290  19.321  0.00  0.00    +0.000 A 
ENDBRANCH   1  17
BRANCH   7  23
ATOM     23  S   UNL     1       8.130  -4.580  24.365  0.00  0.00    +0.000 S 
ATOM     24  O   UNL     1       9.297  -5.508  24.334  0.00  0.00    +0.000 OA
ATOM     25  O   UNL     1       7.188  -4.957  25.361  0.00  0.00    +0.000 OA
BRANCH  23  26
ATOM     26  C   UNL     1       7.416  -4.740  22.708  0.00  0.00    +0.000 A 
ATOM     27  C   UNL     1       6.558  -5.950  22.838  0.00  0.00    +0.000 A 
ATOM     28  C   UNL     1       5.076  -5.981  22.955  0.00  0.00    +0.000 A 
ATOM     29  C   UNL     1       4.480  -4.576  22.880  0.00  0.00    +0.000 A 
ATOM     30  C   UNL     1       3.502  -4.316  24.122  0.00  0.00    +0.000 C 
ATOM     31  C   UNL     1       5.149  -3.423  22.236  0.00  0.00    +0.000 A 
ATOM     32  C   UNL     1       6.700  -3.533  22.254  0.00  0.00    +0.000 A 
ENDBRANCH  23  26
ENDBRANCH   7  23
TORSDOF 4
ENDMDL
MODEL 2
REMARK VINA RESULT:      -8.4      2.614      6.982
REMARK  Name = 
REMARK  5 active torsions:
REMARK  status: ('A' for Active; 'I' for Inactive)
REMARK    1  A    between atoms: C_11  and  N_13
REMARK    2  A    between atoms: N_13  and  C_47
REMARK    3  A    between atoms: N_23  and  S_24
REMARK    4  A    between atoms: S_24  and  C_27
REMARK    5  A    between atoms: C_32  and  C_33
REMARK                            x       y       z     vdW  Elec       q    Type
REMARK                         _______ _______ _______ _____ _____    ______ ____
ROOT
ATOM      1  N   UNL     1       6.919  -4.025  25.470  0.00  0.00    +0.000 N 
ATOM      2  C   UNL     1       6.401  -2.917  24.874  0.00  0.00    +0.000 C 
ATOM      3  O   UNL     1       5.218  -3.066  24.472  0.00  0.00    +0.000 OA
ATOM      4  N   UNL     1       6.785  -1.692  25.235  0.00  0.00    +0.000 N 
ATOM      5  C   UNL     1       5.875  -0.564  25.328  0.00  0.00    +0.000 C 
ATOM      6  C   UNL     1       6.471   0.732  24.746  0.00  0.00    +0.000 C 
ATOM      7  N   UNL     1       7.633   0.503  24.054  0.00  0.00    +0.000 NA
ATOM      8  C   UNL     1       8.638  -0.104  24.764  0.00  0.00    +0.000 C 
ATOM      9  C   UNL     1       8.201  -1.390  25.459  0.00  0.00    +0.000 C 
ENDROOT
BRANCH   1  16
ATOM     10  C   UNL     1       5.408  -3.873  27.424  0.00  0.00    +0.000 C 
ATOM     11  C   UNL     1       4.728  -4.751  28.349  0.00  0.00    +0.000 C 
ATOM     12  S   UNL     1       5.955  -6.146  28.477  0.00  0.00    +0.000 S 
ATOM     13  O   UNL     1       5.413  -7.245  27.829  0.00  0.00    +0.000 OA
ATOM     14  O   UNL     1       6.342  -6.226  29.827  0.00  0.00    +0.000 OA
ATOM     15  C   UNL     1       7.329  -5.461  27.495  0.00  0.00    +0.000 C 
ATOM     16  C   UNL     1       6.824  -4.167  26.963  0.00  0.00    +0.000 C 
ENDBRANCH   1  16
BRANCH   1  17
ATOM     17  C   UNL     1       6.483  -5.073  24.831  0.00  0.00    +0.000 A 
ATOM     18  C   UNL     1       7.533  -5.183  23.725  0.00  0.00    +0.000 A 
ATOM     19  C   UNL     1       7.267  -5.447  22.273  0.00  0.00    +0.000 A 
ATOM     20  C   UNL     1       5.792  -5.634  22.159  0.00  0.00    +0.000 A 
ATOM     21  C   UNL     1       4.662  -5.530  22.972  0.00  0.00    +0.000 A 
ATOM     22  C   UNL     1       5.182  -5.524  24.433  0.00  0.00    +0.000 A 
ENDBRANCH   1  17
BRANCH   7  23
ATOM     23  S   UNL     1       7.794   1.056  22.584  0.00  0.00    +0.000 S 
ATOM     24  O   UNL     1       6.464   1.517  22.092  0.00  0.00    +0.000 OA
ATOM     25  O   UNL     1       8.779   2.073  22.459  0.00  0.00    +0.000 OA
BRANCH  23  26
ATOM     26  C   UNL     1       8.180  -0.351  21.509  0.00  0.00    +0.000 A 
ATOM     27  C   UNL     1       6.918  -1.142  21.542  0.00  0.00    +0.000 A 
ATOM     28  C   UNL     1       5.891  -1.222  20.470  0.00  0.00    +0.000 A 
ATOM     29  C   UNL     1       6.298  -0.405  19.244  0.00  0.00    +0.000 A 
ATOM     30  C   UNL     1       5.117   0.593  18.820  0.00  0.00    +0.000 C 
ATOM     31  C   UNL     1       7.695  -0.053  18.907  0.00  0.00    +0.000 A 
ATOM     32  C   UNL     1       8.616   0.042  20.156  0.00  0.00    +0.000 A 
ENDBRANCH  23  26
ENDBRANCH   7  23
TORSDOF 4
ENDMDL
MODEL 3
REMARK VINA RESULT:      -8.3      1.900      2.834
REMARK  Name = 
REMARK  5 active torsions:
REMARK  status: ('A' for Active; 'I' for Inactive)
REMARK    1  A    between atoms: C_11  and  N_13
REMARK    2  A    between atoms: N_13  and  C_47
REMARK    3  A    between atoms: N_23  and  S_24
REMARK    4  A    between atoms: S_24  and  C_27
REMARK    5  A    between atoms: C_32  and  C_33
REMARK                            x       y       z     vdW  Elec       q    Type
REMARK                         _______ _______ _______ _____ _____    ______ ____
ROOT
ATOM      1  N   UNL     1       8.302   1.299  23.599  0.00  0.00    +0.000 N 
ATOM      2  C   UNL     1       8.430  -0.015  23.931  0.00  0.00    +0.000 C 
ATOM      3  O   UNL     1       9.330  -0.613  23.288  0.00  0.00    +0.000 OA
ATOM      4  N   UNL     1       8.151  -0.448  25.161  0.00  0.00    +0.000 N 
ATOM      5  C   UNL     1       8.927  -1.469  25.844  0.00  0.00    +0.000 C 
ATOM      6  C   UNL     1       8.047  -2.488  26.590  0.00  0.00    +0.000 C 
ATOM      7  N   UNL     1       6.719  -2.361  26.266  0.00  0.00    +0.000 NA
ATOM      8  C   UNL     1       6.167  -1.127  26.496  0.00  0.00    +0.000 C 
ATOM      9  C   UNL     1       6.953   0.018  25.863  0.00  0.00    +0.000 C 
ENDROOT
BRANCH   1  16
ATOM     10  C   UNL     1      10.295   2.765  23.659  0.00  0.00    +0.000 C 
ATOM     11  C   UNL     1      10.626   4.164  23.506  0.00  0.00    +0.000 C 
ATOM     12  S   UNL     1       9.104   4.966  24.219  0.00  0.00    +0.000 S 
ATOM     13  O   UNL     1       8.402   5.543  23.173  0.00  0.00    +0.000 OA
ATOM     14  O   UNL     1       9.526   5.739  25.315  0.00  0.00    +0.000 OA
ATOM     15  C   UNL     1       8.217   3.494  24.826  0.00  0.00    +0.000 C 
ATOM     16  C   UNL     1       9.043   2.333  24.399  0.00  0.00    +0.000 C 
ENDBRANCH   1  16
BRANCH   1  17
ATOM     17  C   UNL     1       8.494   1.416  22.316  0.00  0.00    +0.000 A 
ATOM     18  C   UNL     1       7.189   2.093  21.899  0.00  0.00    +0.000 A 
ATOM     19  C   UNL     1       6.344   1.737  20.712  0.00  0.00    +0.000 A 
ATOM     20  C   UNL     1       7.075   0.642  20.010  0.00  0.00    +0.000 A 
ATOM     21  C   UNL     1       8.202  -0.156  20.213  0.00  0.00    +0.000 A 
ATOM     22  C   UNL     1       9.038   0.552  21.311  0.00  0.00    +0.000 A 
ENDBRANCH   1  17
BRANCH   7  23
ATOM     23  S   UNL     1       5.899  -3.628  25.803  0.00  0.00    +0.000 S 
ATOM     24  O   UNL     1       6.853  -4.699  25.395  0.00  0.00    +0.000 OA
ATOM     25  O   UNL     1       4.972  -4.097  26.774  0.00  0.00    +0.000 OA
BRANCH  23  26
ATOM     26  C   UNL     1       5.055  -3.199  24.259  0.00  0.00    +0.000 A 
ATOM     27  C   UNL     1       6.175  -2.738  23.392  0.00  0.00    +0.000 A 
ATOM     28  C   UNL     1       6.805  -3.492  22.276  0.00  0.00    +0.000 A 
ATOM     29  C   UNL     1       6.125  -4.844  22.061  0.00  0.00    +0.000 A 
ATOM     30  C   UNL     1       7.213  -6.020  22.049  0.00  0.00    +0.000 C 
ATOM     31  C   UNL     1       4.737  -5.150  22.473  0.00  0.00    +0.000 A 
ATOM     32  C   UNL     1       4.264  -4.307  23.691  0.00  0.00    +0.000 A 
ENDBRANCH  23  26
ENDBRANCH   7  23
TORSDOF 4
ENDMDL
MODEL 4
REMARK VINA RESULT:      -8.1      1.545      2.101
REMARK  Name = 
REMARK  5 active torsions:
REMARK  status: ('A' for Active; 'I' for Inactive)
REMARK    1  A    between atoms: C_11  and  N_13
REMARK    2  A    between atoms: N_13  and  C_47
REMARK    3  A    between atoms: N_23  and  S_24
REMARK    4  A    between atoms: S_24  and  C_27
REMARK    5  A    between atoms: C_32  and  C_33
REMARK                            x       y       z     vdW  Elec       q    Type
REMARK                         _______ _______ _______ _____ _____    ______ ____
ROOT
ATOM      1  N   UNL     1       7.759   0.916  21.469  0.00  0.00    +0.000 N 
ATOM      2  C   UNL     1       8.150  -0.348  21.789  0.00  0.00    +0.000 C 
ATOM      3  O   UNL     1       8.840  -0.905  20.897  0.00  0.00    +0.000 OA
ATOM      4  N   UNL     1       8.365  -0.706  23.056  0.00  0.00    +0.000 N 
ATOM      5  C   UNL     1       9.444  -1.587  23.465  0.00  0.00    +0.000 C 
ATOM      6  C   UNL     1       9.003  -2.625  24.514  0.00  0.00    +0.000 C 
ATOM      7  N   UNL     1       7.639  -2.655  24.670  0.00  0.00    +0.000 NA
ATOM      8  C   UNL     1       7.056  -1.466  25.027  0.00  0.00    +0.000 C 
ATOM      9  C   UNL     1       7.433  -0.304  24.113  0.00  0.00    +0.000 C 
ENDROOT
BRANCH   1  16
ATOM     10  C   UNL     1       8.020   2.684  23.181  0.00  0.00    +0.000 C 
ATOM     11  C   UNL     1       8.862   2.988  24.316  0.00  0.00    +0.000 C 
ATOM     12  S   UNL     1      10.484   2.266  23.755  0.00  0.00    +0.000 S 
ATOM     13  O   UNL     1      10.731   1.138  24.522  0.00  0.00    +0.000 OA
ATOM     14  O   UNL     1      11.409   3.323  23.713  0.00  0.00    +0.000 OA
ATOM     15  C   UNL     1      10.049   1.777  22.054  0.00  0.00    +0.000 C 
ATOM     16  C   UNL     1       8.600   2.079  21.916  0.00  0.00    +0.000 C 
ENDBRANCH   1  16
BRANCH   1  17
ATOM     17  C   UNL     1       7.484   0.947  20.196  0.00  0.00    +0.000 A 
ATOM     18  C   UNL     1       6.224   1.813  20.204  0.00  0.00    +0.000 A 
ATOM     19  C   UNL     1       4.964   1.553  19.433  0.00  0.00    +0.000 A 
ATOM     20  C   UNL     1       5.228   0.325  18.629  0.00  0.00    +0.000 A 
ATOM     21  C   UNL     1       6.229  -0.639  18.496  0.00  0.00    +0.000 A 
ATOM     22  C   UNL     1       7.498  -0.035  19.152  0.00  0.00    +0.000 A 
ENDBRANCH   1  17
BRANCH   7  23
ATOM     23  S   UNL     1       6.869  -4.030  24.576  0.00  0.00    +0.000 S 
ATOM     24  O   UNL     1       5.817  -3.924  23.524  0.00  0.00    +0.000 OA
ATOM     25  O   UNL     1       7.717  -5.149  24.356  0.00  0.00    +0.000 OA
BRANCH  23  26
ATOM     26  C   UNL     1       5.920  -4.230  26.106  0.00  0.00    +0.000 A 
ATOM     27  C   UNL     1       4.527  -3.935  25.668  0.00  0.00    +0.000 A 
ATOM     28  C   UNL     1       3.441  -4.921  25.433  0.00  0.00    +0.000 A 
ATOM     29  C   UNL     1       3.901  -6.345  25.745  0.00  0.00    +0.000 A 
ATOM     30  C   UNL     1       3.591  -7.316  24.508  0.00  0.00    +0.000 C 
ATOM     31  C   UNL     1       5.018  -6.675  26.658  0.00  0.00    +0.000 A 
ATOM     32  C   UNL     1       6.090  -5.552  26.738  0.00  0.00    +0.000 A 
ENDBRANCH  23  26
ENDBRANCH   7  23
TORSDOF 4
ENDMDL
MODEL 5
REMARK VINA RESULT:      -8.0      1.779      2.101
REMARK  Name = 
REMARK  5 active torsions:
REMARK  status: ('A' for Active; 'I' for Inactive)
REMARK    1  A    between atoms: C_11  and  N_13
REMARK    2  A    between atoms: N_13  and  C_47
REMARK    3  A    between atoms: N_23  and  S_24
REMARK    4  A    between atoms: S_24  and  C_27
REMARK    5  A    between atoms: C_32  and  C_33
REMARK                            x       y       z     vdW  Elec       q    Type
REMARK                         _______ _______ _______ _____ _____    ______ ____
ROOT
ATOM      1  N   UNL     1       7.665  -0.529  22.223  0.00  0.00    +0.000 N 
ATOM      2  C   UNL     1       7.921  -1.611  23.009  0.00  0.00    +0.000 C 
ATOM      3  O   UNL     1       8.649  -2.476  22.458  0.00  0.00    +0.000 OA
ATOM      4  N   UNL     1       7.980  -1.503  24.337  0.00  0.00    +0.000 N 
ATOM      5  C   UNL     1       8.941  -2.223  25.155  0.00  0.00    +0.000 C 
ATOM      6  C   UNL     1       8.316  -2.801  26.439  0.00  0.00    +0.000 C 
ATOM      7  N   UNL     1       6.946  -2.721  26.430  0.00  0.00    +0.000 NA
ATOM      8  C   UNL     1       6.426  -1.461  26.276  0.00  0.00    +0.000 C 
ATOM      9  C   UNL     1       6.983  -0.716  25.067  0.00  0.00    +0.000 C 
ENDROOT
BRANCH   1  16
ATOM     10  C   UNL     1       7.945   1.675  23.313  0.00  0.00    +0.000 C 
ATOM     11  C   UNL     1       8.753   2.288  24.343  0.00  0.00    +0.000 C 
ATOM     12  S   UNL     1      10.356   1.366  24.130  0.00  0.00    +0.000 S 
ATOM     13  O   UNL     1      10.509   0.527  25.223  0.00  0.00    +0.000 OA
ATOM     14  O   UNL     1      11.338   2.322  23.815  0.00  0.00    +0.000 OA
ATOM     15  C   UNL     1       9.970   0.385  22.643  0.00  0.00    +0.000 C 
ATOM     16  C   UNL     1       8.546   0.682  22.334  0.00  0.00    +0.000 C 
ENDBRANCH   1  16
BRANCH   1  17
ATOM     17  C   UNL     1       7.520  -0.942  20.997  0.00  0.00    +0.000 A 
ATOM     18  C   UNL     1       7.821   0.346  20.230  0.00  0.00    +0.000 A 
ATOM     19  C   UNL     1       7.048   0.886  19.064  0.00  0.00    +0.000 A 
ATOM     20  C   UNL     1       5.983  -0.120  18.784  0.00  0.00    +0.000 A 
ATOM     21  C   UNL     1       5.484  -1.295  19.350  0.00  0.00    +0.000 A 
ATOM     22  C   UNL     1       6.570  -1.791  20.339  0.00  0.00    +0.000 A 
ENDBRANCH   1  17
BRANCH   7  23
ATOM     23  S   UNL     1       6.082  -4.007  26.730  0.00  0.00    +0.000 S 
ATOM     24  O   UNL     1       6.626  -4.684  27.943  0.00  0.00    +0.000 OA
ATOM     25  O   UNL     1       4.690  -3.746  26.858  0.00  0.00    +0.000 OA
BRANCH  23  26
ATOM     26  C   UNL     1       6.396  -5.199  25.402  0.00  0.00    +0.000 A 
ATOM     27  C   UNL     1       5.446  -6.301  25.721  0.00  0.00    +0.000 A 
ATOM     28  C   UNL     1       4.164  -6.597  25.028  0.00  0.00    +0.000 A 
ATOM     29  C   UNL     1       3.922  -5.637  23.864  0.00  0.00    +0.000 A 
ATOM     30  C   UNL     1       2.469  -4.972  23.980  0.00  0.00    +0.000 C 
ATOM     31  C   UNL     1       4.996  -4.904  23.156  0.00  0.00    +0.000 A 
ATOM     32  C   UNL     1       6.239  -4.633  24.050  0.00  0.00    +0.000 A 
ENDBRANCH  23  26
ENDBRANCH   7  23
TORSDOF 4
ENDMDL
MODEL 6
REMARK VINA RESULT:      -7.9      2.822      7.477
REMARK  Name = 
REMARK  5 active torsions:
REMARK  status: ('A' for Active; 'I' for Inactive)
REMARK    1  A    between atoms: C_11  and  N_13
REMARK    2  A    between atoms: N_13  and  C_47
REMARK    3  A    between atoms: N_23  and  S_24
REMARK    4  A    between atoms: S_24  and  C_27
REMARK    5  A    between atoms: C_32  and  C_33
REMARK                            x       y       z     vdW  Elec       q    Type
REMARK                         _______ _______ _______ _____ _____    ______ ____
ROOT
ATOM      1  N   UNL     1       7.007  -4.119  25.091  0.00  0.00    +0.000 N 
ATOM      2  C   UNL     1       6.475  -3.067  24.410  0.00  0.00    +0.000 C 
ATOM      3  O   UNL     1       5.292  -3.257  24.029  0.00  0.00    +0.000 OA
ATOM      4  N   UNL     1       6.852  -1.814  24.669  0.00  0.00    +0.000 N 
ATOM      5  C   UNL     1       5.933  -0.689  24.676  0.00  0.00    +0.000 C 
ATOM      6  C   UNL     1       6.514   0.560  23.988  0.00  0.00    +0.000 C 
ATOM      7  N   UNL     1       7.675   0.285  23.309  0.00  0.00    +0.000 NA
ATOM      8  C   UNL     1       8.688  -0.254  24.060  0.00  0.00    +0.000 C 
ATOM      9  C   UNL     1       8.266  -1.484  24.859  0.00  0.00    +0.000 C 
ENDROOT
BRANCH   1  16
ATOM     10  C   UNL     1       5.509  -3.806  27.036  0.00  0.00    +0.000 C 
ATOM     11  C   UNL     1       4.832  -4.605  28.032  0.00  0.00    +0.000 C 
ATOM     12  S   UNL     1       6.055  -5.989  28.265  0.00  0.00    +0.000 S 
ATOM     13  O   UNL     1       5.507  -7.135  27.710  0.00  0.00    +0.000 OA
ATOM     14  O   UNL     1       6.451  -5.962  29.613  0.00  0.00    +0.000 OA
ATOM     15  C   UNL     1       7.425  -5.389  27.222  0.00  0.00    +0.000 C 
ATOM     16  C   UNL     1       6.921  -4.140  26.591  0.00  0.00    +0.000 C 
ENDBRANCH   1  16
BRANCH   1  17
ATOM     17  C   UNL     1       6.576  -5.219  24.542  0.00  0.00    +0.000 A 
ATOM     18  C   UNL     1       7.587  -5.379  23.407  0.00  0.00    +0.000 A 
ATOM     19  C   UNL     1       7.277  -5.748  21.987  0.00  0.00    +0.000 A 
ATOM     20  C   UNL     1       5.804  -5.979  21.942  0.00  0.00    +0.000 A 
ATOM     21  C   UNL     1       4.702  -5.846  22.788  0.00  0.00    +0.000 A 
ATOM     22  C   UNL     1       5.274  -5.727  24.224  0.00  0.00    +0.000 A 
ENDBRANCH   1  17
BRANCH   7  23
ATOM     23  S   UNL     1       7.823   0.719  21.799  0.00  0.00    +0.000 S 
ATOM     24  O   UNL     1       8.728  -0.244  21.106  0.00  0.00    +0.000 OA
ATOM     25  O   UNL     1       6.583   0.854  21.117  0.00  0.00    +0.000 OA
BRANCH  23  26
ATOM     26  C   UNL     1       8.752   2.274  21.765  0.00  0.00    +0.000 A 
ATOM     27  C   UNL     1       7.701   3.288  22.055  0.00  0.00    +0.000 A 
ATOM     28  C   UNL     1       7.486   4.004  23.340  0.00  0.00    +0.000 A 
ATOM     29  C   UNL     1       8.534   3.610  24.381  0.00  0.00    +0.000 A 
ATOM     30  C   UNL     1       7.824   3.162  25.746  0.00  0.00    +0.000 C 
ATOM     31  C   UNL     1       9.869   3.065  24.050  0.00  0.00    +0.000 A 
ATOM     32  C   UNL     1       9.895   2.300  22.697  0.00  0.00    +0.000 A 
ENDBRANCH  23  26
ENDBRANCH   7  23
TORSDOF 4
ENDMDL
MODEL 7
REMARK VINA RESULT:      -7.7      3.530      8.566
REMARK  Name = 
REMARK  5 active torsions:
REMARK  status: ('A' for Active; 'I' for Inactive)
REMARK    1  A    between atoms: C_11  and  N_13
REMARK    2  A    between atoms: N_13  and  C_47
REMARK    3  A    between atoms: N_23  and  S_24
REMARK    4  A    between atoms: S_24  and  C_27
REMARK    5  A    between atoms: C_32  and  C_33
REMARK                            x       y       z     vdW  Elec       q    Type
REMARK                         _______ _______ _______ _____ _____    ______ ____
ROOT
ATOM      1  N   UNL     1       4.889  -5.319  26.725  0.00  0.00    +0.000 N 
ATOM      2  C   UNL     1       6.025  -5.138  25.996  0.00  0.00    +0.000 C 
ATOM      3  O   UNL     1       6.933  -5.967  26.264  0.00  0.00    +0.000 OA
ATOM      4  N   UNL     1       5.983  -4.639  24.761  0.00  0.00    +0.000 N 
ATOM      5  C   UNL     1       6.832  -5.108  23.680  0.00  0.00    +0.000 C 
ATOM      6  C   UNL     1       7.401  -3.960  22.826  0.00  0.00    +0.000 C 
ATOM      7  N   UNL     1       7.182  -2.731  23.398  0.00  0.00    +0.000 NA
ATOM      8  C   UNL     1       5.870  -2.419  23.649  0.00  0.00    +0.000 C 
ATOM      9  C   UNL     1       5.132  -3.488  24.450  0.00  0.00    +0.000 C 
ENDROOT
BRANCH   1  16
ATOM     10  C   UNL     1       2.563  -5.291  25.877  0.00  0.00    +0.000 C 
ATOM     11  C   UNL     1       1.860  -5.377  24.617  0.00  0.00    +0.000 C 
ATOM     12  S   UNL     1       2.972  -6.532  23.671  0.00  0.00    +0.000 S 
ATOM     13  O   UNL     1       3.605  -5.793  22.683  0.00  0.00    +0.000 OA
ATOM     14  O   UNL     1       2.202  -7.661  23.341  0.00  0.00    +0.000 OA
ATOM     15  C   UNL     1       4.164  -6.976  24.976  0.00  0.00    +0.000 C 
ATOM     16  C   UNL     1       3.779  -6.157  26.156  0.00  0.00    +0.000 C 
ENDBRANCH   1  16
BRANCH   1  17
ATOM     17  C   UNL     1       5.230  -5.676  27.929  0.00  0.00    +0.000 A 
ATOM     18  C   UNL     1       4.247  -6.823  28.170  0.00  0.00    +0.000 A 
ATOM     19  C   UNL     1       3.452  -7.063  29.418  0.00  0.00    +0.000 A 
ATOM     20  C   UNL     1       3.869  -5.997  30.375  0.00  0.00    +0.000 A 
ATOM     21  C   UNL     1       4.666  -4.851  30.375  0.00  0.00    +0.000 A 
ATOM     22  C   UNL     1       5.571  -4.956  29.121  0.00  0.00    +0.000 A 
ENDBRANCH   1  17
BRANCH   7  23
ATOM     23  S   UNL     1       8.386  -1.730  23.594  0.00  0.00    +0.000 S 
ATOM     24  O   UNL     1       7.880  -0.485  24.240  0.00  0.00    +0.000 OA
ATOM     25  O   UNL     1       9.481  -2.283  24.313  0.00  0.00    +0.000 OA
BRANCH  23  26
ATOM     26  C   UNL     1       8.908  -1.174  21.951  0.00  0.00    +0.000 A 
ATOM     27  C   UNL     1       7.627  -0.728  21.335  0.00  0.00    +0.000 A 
ATOM     28  C   UNL     1       7.176   0.674  21.137  0.00  0.00    +0.000 A 
ATOM     29  C   UNL     1       8.231   1.673  21.612  0.00  0.00    +0.000 A 
ATOM     30  C   UNL     1       7.581   2.736  22.619  0.00  0.00    +0.000 C 
ATOM     31  C   UNL     1       9.675   1.366  21.721  0.00  0.00    +0.000 A 
ATOM     32  C   UNL     1       9.959  -0.140  21.983  0.00  0.00    +0.000 A 
ENDBRANCH  23  26
ENDBRANCH   7  23
TORSDOF 4
ENDMDL
MODEL 8
REMARK VINA RESULT:      -7.6      2.580      7.627
REMARK  Name = 
REMARK  5 active torsions:
REMARK  status: ('A' for Active; 'I' for Inactive)
REMARK    1  A    between atoms: C_11  and  N_13
REMARK    2  A    between atoms: N_13  and  C_47
REMARK    3  A    between atoms: N_23  and  S_24
REMARK    4  A    between atoms: S_24  and  C_27
REMARK    5  A    between atoms: C_32  and  C_33
REMARK                            x       y       z     vdW  Elec       q    Type
REMARK                         _______ _______ _______ _____ _____    ______ ____
ROOT
ATOM      1  N   UNL     1       6.823  -3.117  25.013  0.00  0.00    +0.000 N 
ATOM      2  C   UNL     1       7.898  -2.350  24.685  0.00  0.00    +0.000 C 
ATOM      3  O   UNL     1       8.868  -2.475  25.476  0.00  0.00    +0.000 OA
ATOM      4  N   UNL     1       8.167  -2.040  23.416  0.00  0.00    +0.000 N 
ATOM      5  C   UNL     1       9.514  -1.986  22.874  0.00  0.00    +0.000 C 
ATOM      6  C   UNL     1       9.738  -0.773  21.953  0.00  0.00    +0.000 C 
ATOM      7  N   UNL     1       8.704   0.126  22.020  0.00  0.00    +0.000 NA
ATOM      8  C   UNL     1       7.463  -0.372  21.713  0.00  0.00    +0.000 C 
ATOM      9  C   UNL     1       7.097  -1.623  22.507  0.00  0.00    +0.000 C 
ENDROOT
BRANCH   1  16
ATOM     10  C   UNL     1       5.205  -4.822  24.235  0.00  0.00    +0.000 C 
ATOM     11  C   UNL     1       4.690  -5.350  22.992  0.00  0.00    +0.000 C 
ATOM     12  S   UNL     1       6.193  -5.214  21.901  0.00  0.00    +0.000 S 
ATOM     13  O   UNL     1       5.955  -4.206  20.980  0.00  0.00    +0.000 OA
ATOM     14  O   UNL     1       6.509  -6.516  21.476  0.00  0.00    +0.000 OA
ATOM     15  C   UNL     1       7.429  -4.661  23.121  0.00  0.00    +0.000 C 
ATOM     16  C   UNL     1       6.675  -4.477  24.390  0.00  0.00    +0.000 C 
ENDBRANCH   1  16
BRANCH   1  17
ATOM     17  C   UNL     1       6.718  -3.139  26.310  0.00  0.00    +0.000 A 
ATOM     18  C   UNL     1       7.367  -4.487  26.621  0.00  0.00    +0.000 A 
ATOM     19  C   UNL     1       6.853  -5.520  27.579  0.00  0.00    +0.000 A 
ATOM     20  C   UNL     1       5.629  -4.928  28.194  0.00  0.00    +0.000 A 
ATOM     21  C   UNL     1       4.833  -3.792  28.043  0.00  0.00    +0.000 A 
ATOM     22  C   UNL     1       5.679  -2.778  27.230  0.00  0.00    +0.000 A 
ENDBRANCH   1  17
BRANCH   7  23
ATOM     23  S   UNL     1       9.005   1.652  22.292  0.00  0.00    +0.000 S 
ATOM     24  O   UNL     1      10.260   2.031  21.580  0.00  0.00    +0.000 OA
ATOM     25  O   UNL     1       7.930   2.518  21.952  0.00  0.00    +0.000 OA
BRANCH  23  26
ATOM     26  C   UNL     1       9.442   1.820  24.042  0.00  0.00    +0.000 A 
ATOM     27  C   UNL     1       9.761   3.269  24.161  0.00  0.00    +0.000 A 
ATOM     28  C   UNL     1       8.906   4.321  24.770  0.00  0.00    +0.000 A 
ATOM     29  C   UNL     1       7.613   3.733  25.335  0.00  0.00    +0.000 A 
ATOM     30  C   UNL     1       6.343   4.532  24.774  0.00  0.00    +0.000 C 
ATOM     31  C   UNL     1       7.453   2.319  25.742  0.00  0.00    +0.000 A 
ATOM     32  C   UNL     1       8.388   1.352  24.961  0.00  0.00    +0.000 A 
ENDBRANCH  23  26
ENDBRANCH   7  23
TORSDOF 4
ENDMDL
MODEL 9
REMARK VINA RESULT:      -7.3      2.899      7.388
REMARK  Name = 
REMARK  5 active torsions:
REMARK  status: ('A' for Active; 'I' for Inactive)
REMARK    1  A    between atoms: C_11  and  N_13
REMARK    2  A    between atoms: N_13  and  C_47
REMARK    3  A    between atoms: N_23  and  S_24
REMARK    4  A    between atoms: S_24  and  C_27
REMARK    5  A    between atoms: C_32  and  C_33
REMARK                            x       y       z     vdW  Elec       q    Type
REMARK                         _______ _______ _______ _____ _____    ______ ____
ROOT
ATOM      1  N   UNL     1       5.719  -3.575  25.711  0.00  0.00    +0.000 N 
ATOM      2  C   UNL     1       5.637  -2.293  25.260  0.00  0.00    +0.000 C 
ATOM      3  O   UNL     1       4.776  -2.129  24.357  0.00  0.00    +0.000 OA
ATOM      4  N   UNL     1       5.905  -1.260  26.058  0.00  0.00    +0.000 N 
ATOM      5  C   UNL     1       5.156  -0.016  26.034  0.00  0.00    +0.000 C 
ATOM      6  C   UNL     1       6.060   1.227  26.132  0.00  0.00    +0.000 C 
ATOM      7  N   UNL     1       7.388   0.915  25.986  0.00  0.00    +0.000 NA
ATOM      8  C   UNL     1       7.885  -0.000  26.879  0.00  0.00    +0.000 C 
ATOM      9  C   UNL     1       7.067  -1.287  26.950  0.00  0.00    +0.000 C 
ENDROOT
BRANCH   1  16
ATOM     10  C   UNL     1       3.733  -4.827  26.494  0.00  0.00    +0.000 C 
ATOM     11  C   UNL     1       3.421  -6.065  27.172  0.00  0.00    +0.000 C 
ATOM     12  S   UNL     1       4.882  -6.219  28.315  0.00  0.00    +0.000 S 
ATOM     13  O   UNL     1       5.670  -7.263  27.855  0.00  0.00    +0.000 OA
ATOM     14  O   UNL     1       4.376  -6.224  29.627  0.00  0.00    +0.000 OA
ATOM     15  C   UNL     1       5.713  -4.628  27.996  0.00  0.00    +0.000 C 
ATOM     16  C   UNL     1       4.920  -3.980  26.917  0.00  0.00    +0.000 C 
ENDBRANCH   1  16
BRANCH   1  17
ATOM     17  C   UNL     1       5.551  -4.375  24.697  0.00  0.00    +0.000 A 
ATOM     18  C   UNL     1       6.925  -5.043  24.637  0.00  0.00    +0.000 A 
ATOM     19  C   UNL     1       7.736  -5.296  23.401  0.00  0.00    +0.000 A 
ATOM     20  C   UNL     1       6.897  -4.819  22.263  0.00  0.00    +0.000 A 
ATOM     21  C   UNL     1       5.689  -4.148  22.068  0.00  0.00    +0.000 A 
ATOM     22  C   UNL     1       4.926  -4.237  23.415  0.00  0.00    +0.000 A 
ENDBRANCH   1  17
BRANCH   7  23
ATOM     23  S   UNL     1       8.269   1.699  24.936  0.00  0.00    +0.000 S 
ATOM     24  O   UNL     1       8.084   3.164  25.147  0.00  0.00    +0.000 OA
ATOM     25  O   UNL     1       9.644   1.338  24.958  0.00  0.00    +0.000 OA
BRANCH  23  26
ATOM     26  C   UNL     1       7.552   1.412  23.297  0.00  0.00    +0.000 A 
ATOM     27  C   UNL     1       8.658   1.809  22.383  0.00  0.00    +0.000 A 
ATOM     28  C   UNL     1       9.553   0.898  21.621  0.00  0.00    +0.000 A 
ATOM     29  C   UNL     1       9.179  -0.567  21.842  0.00  0.00    +0.000 A 
ATOM     30  C   UNL     1      10.466  -1.412  22.283  0.00  0.00    +0.000 C 
ATOM     31  C   UNL     1       7.836  -1.026  22.263  0.00  0.00    +0.000 A 
ATOM     32  C   UNL     1       7.065   0.034  23.098  0.00  0.00    +0.000 A 
ENDBRANCH  23  26
ENDBRANCH   7  23
TORSDOF 4
ENDMDL
