MODEL 1
REMARK VINA RESULT:      -8.6      0.000      0.000
REMARK  Name = 
REMARK  1 active torsions:
REMARK  status: ('A' for Active; 'I' for Inactive)
REMARK    1  A    between atoms: C_9  and  C_10
REMARK                            x       y       z     vdW  Elec       q    Type
REMARK                         _______ _______ _______ _____ _____    ______ ____
ROOT
ATOM      1  C   UNL     1       9.080  -1.253  23.248  0.00  0.00    +0.000 C 
ATOM      2  C   UNL     1       7.903  -0.310  23.454  0.00  0.00    +0.000 C 
ATOM      3  N   UNL     1       8.505   1.049  23.341  0.00  0.00    +0.000 N 
ATOM      4  C   UNL     1       8.918   1.391  22.090  0.00  0.00    +0.000 C 
ATOM      5  O   UNL     1      10.097   1.501  21.840  0.00  0.00    +0.000 OA
ATOM      6  N   UNL     1       7.957   1.414  21.238  0.00  0.00    +0.000 N 
ATOM      7  C   UNL     1       6.912   2.471  21.217  0.00  0.00    +0.000 C 
ATOM      8  C   UNL     1       5.718   1.735  20.479  0.00  0.00    +0.000 C 
ATOM      9  C   UNL     1       6.332   0.610  19.709  0.00  0.00    +0.000 C 
ATOM     10  C   UNL     1       6.199   0.757  18.181  0.00  0.00    +0.000 C 
ATOM     11  O   UNL     1       6.417  -0.566  17.700  0.00  0.00    +0.000 OA
ATOM     12  C   UNL     1       5.955  -1.496  18.643  0.00  0.00    +0.000 C 
ATOM     13  C   UNL     1       5.560  -0.717  19.907  0.00  0.00    +0.000 C 
ATOM     14  C   UNL     1       7.772   0.458  20.097  0.00  0.00    +0.000 C 
ATOM     15  C   UNL     1       9.322   1.395  24.488  0.00  0.00    +0.000 C 
ATOM     16  C   UNL     1      10.103   0.265  25.051  0.00  0.00    +0.000 C 
ATOM     17  C   UNL     1      10.086  -1.065  24.369  0.00  0.00    +0.000 C 
ENDROOT
BRANCH   1  23
ATOM     18  C   UNL     1       8.856  -4.642  26.621  0.00  0.00    +0.000 C 
ATOM     19  C   UNL     1       7.376  -4.382  26.698  0.00  0.00    +0.000 C 
ATOM     20  C   UNL     1       6.419  -4.214  25.582  0.00  0.00    +0.000 C 
ATOM     21  C   UNL     1       7.176  -4.335  24.317  0.00  0.00    +0.000 C 
ATOM     22  S   UNL     1       7.132  -2.829  23.949  0.00  0.00    +0.000 S 
ATOM     23  C   UNL     1       8.560  -2.641  23.196  0.00  0.00    +0.000 C 
ATOM     24  N   UNL     1       9.204  -3.631  23.826  0.00  0.00    +0.000 NA
ATOM     25  C   UNL     1       8.524  -4.679  24.147  0.00  0.00    +0.000 C 
ATOM     26  C   UNL     1       9.329  -5.053  25.330  0.00  0.00    +0.000 C 
ENDBRANCH   1  23
TORSDOF 1
ENDMDL
MODEL 2
REMARK VINA RESULT:      -7.7      3.158      6.725
REMARK  Name = 
REMARK  1 active torsions:
REMARK  status: ('A' for Active; 'I' for Inactive)
REMARK    1  A    between atoms: C_9  and  C_10
REMARK                            x       y       z     vdW  Elec       q    Type
REMARK                         _______ _______ _______ _____ _____    ______ ____
ROOT
ATOM      1  C   UNL     1       7.725  -1.997  23.284  0.00  0.00    +0.000 C 
ATOM      2  C   UNL     1       6.207  -1.949  23.388  0.00  0.00    +0.000 C 
ATOM      3  N   UNL     1       5.740  -2.766  22.232  0.00  0.00    +0.000 N 
ATOM      4  C   UNL     1       5.984  -4.102  22.338  0.00  0.00    +0.000 C 
ATOM      5  O   UNL     1       6.798  -4.637  21.619  0.00  0.00    +0.000 OA
ATOM      6  N   UNL     1       5.393  -4.637  23.344  0.00  0.00    +0.000 N 
ATOM      7  C   UNL     1       3.925  -4.868  23.400  0.00  0.00    +0.000 C 
ATOM      8  C   UNL     1       3.663  -4.926  24.961  0.00  0.00    +0.000 C 
ATOM      9  C   UNL     1       4.976  -5.260  25.594  0.00  0.00    +0.000 C 
ATOM     10  C   UNL     1       4.995  -6.629  26.301  0.00  0.00    +0.000 C 
ATOM     11  O   UNL     1       6.115  -6.534  27.176  0.00  0.00    +0.000 OA
ATOM     12  C   UNL     1       6.277  -5.207  27.599  0.00  0.00    +0.000 C 
ATOM     13  C   UNL     1       5.286  -4.343  26.803  0.00  0.00    +0.000 C 
ATOM     14  C   UNL     1       6.065  -5.185  24.568  0.00  0.00    +0.000 C 
ATOM     15  C   UNL     1       5.936  -2.098  20.961  0.00  0.00    +0.000 C 
ATOM     16  C   UNL     1       7.185  -1.301  20.870  0.00  0.00    +0.000 C 
ATOM     17  C   UNL     1       8.168  -1.326  21.996  0.00  0.00    +0.000 C 
ENDROOT
BRANCH   1  23
ATOM     18  C   UNL     1      10.520   1.868  23.684  0.00  0.00    +0.000 C 
ATOM     19  C   UNL     1       9.313   2.616  24.180  0.00  0.00    +0.000 C 
ATOM     20  C   UNL     1       8.309   2.173  25.174  0.00  0.00    +0.000 C 
ATOM     21  C   UNL     1       8.685   0.813  25.619  0.00  0.00    +0.000 C 
ATOM     22  S   UNL     1       7.558   0.068  24.858  0.00  0.00    +0.000 S 
ATOM     23  C   UNL     1       8.294  -1.330  24.481  0.00  0.00    +0.000 C 
ATOM     24  N   UNL     1       9.544  -0.852  24.460  0.00  0.00    +0.000 NA
ATOM     25  C   UNL     1       9.840   0.087  25.295  0.00  0.00    +0.000 C 
ATOM     26  C   UNL     1      10.889   0.727  24.472  0.00  0.00    +0.000 C 
ENDBRANCH   1  23
TORSDOF 1
ENDMDL
MODEL 3
REMARK VINA RESULT:      -7.6      2.905      4.813
REMARK  Name = 
REMARK  1 active torsions:
REMARK  status: ('A' for Active; 'I' for Inactive)
REMARK    1  A    between atoms: C_9  and  C_10
REMARK                            x       y       z     vdW  Elec       q    Type
REMARK                         _______ _______ _______ _____ _____    ______ ____
ROOT
ATOM      1  C   UNL     1       6.637  -4.198  24.572  0.00  0.00    +0.000 C 
ATOM      2  C   UNL     1       7.020  -2.925  25.313  0.00  0.00    +0.000 C 
ATOM      3  N   UNL     1       8.449  -3.135  25.678  0.00  0.00    +0.000 N 
ATOM      4  C   UNL     1       9.317  -3.118  24.629  0.00  0.00    +0.000 C 
ATOM      5  O   UNL     1       9.879  -4.131  24.278  0.00  0.00    +0.000 OA
ATOM      6  N   UNL     1       9.326  -1.993  24.009  0.00  0.00    +0.000 N 
ATOM      7  C   UNL     1       9.930  -0.756  24.572  0.00  0.00    +0.000 C 
ATOM      8  C   UNL     1       9.155   0.376  23.780  0.00  0.00    +0.000 C 
ATOM      9  C   UNL     1       8.627  -0.269  22.538  0.00  0.00    +0.000 C 
ATOM     10  C   UNL     1       9.244   0.285  21.239  0.00  0.00    +0.000 C 
ATOM     11  O   UNL     1       8.315  -0.111  20.235  0.00  0.00    +0.000 OA
ATOM     12  C   UNL     1       7.020  -0.143  20.773  0.00  0.00    +0.000 C 
ATOM     13  C   UNL     1       7.141   0.086  22.288  0.00  0.00    +0.000 C 
ATOM     14  C   UNL     1       8.820  -1.753  22.618  0.00  0.00    +0.000 C 
ATOM     15  C   UNL     1       8.618  -4.113  26.734  0.00  0.00    +0.000 C 
ATOM     16  C   UNL     1       7.677  -5.260  26.669  0.00  0.00    +0.000 C 
ATOM     17  C   UNL     1       6.736  -5.385  25.514  0.00  0.00    +0.000 C 
ENDROOT
BRANCH   1  23
ATOM     18  C   UNL     1       2.859  -7.137  24.651  0.00  0.00    +0.000 C 
ATOM     19  C   UNL     1       2.263  -6.244  25.704  0.00  0.00    +0.000 C 
ATOM     20  C   UNL     1       2.203  -4.765  25.720  0.00  0.00    +0.000 C 
ATOM     21  C   UNL     1       2.862  -4.274  24.490  0.00  0.00    +0.000 C 
ATOM     22  S   UNL     1       4.147  -3.753  25.182  0.00  0.00    +0.000 S 
ATOM     23  C   UNL     1       5.265  -4.030  24.035  0.00  0.00    +0.000 C 
ATOM     24  N   UNL     1       4.637  -5.054  23.445  0.00  0.00    +0.000 NA
ATOM     25  C   UNL     1       3.347  -5.027  23.411  0.00  0.00    +0.000 C 
ATOM     26  C   UNL     1       3.142  -6.491  23.401  0.00  0.00    +0.000 C 
ENDBRANCH   1  23
TORSDOF 1
ENDMDL
MODEL 4
REMARK VINA RESULT:      -7.5      2.194      3.084
REMARK  Name = 
REMARK  1 active torsions:
REMARK  status: ('A' for Active; 'I' for Inactive)
REMARK    1  A    between atoms: C_9  and  C_10
REMARK                            x       y       z     vdW  Elec       q    Type
REMARK                         _______ _______ _______ _____ _____    ______ ____
ROOT
ATOM      1  C   UNL     1       7.610  -3.812  23.164  0.00  0.00    +0.000 C 
ATOM      2  C   UNL     1       7.238  -2.414  23.638  0.00  0.00    +0.000 C 
ATOM      3  N   UNL     1       8.551  -1.758  23.895  0.00  0.00    +0.000 N 
ATOM      4  C   UNL     1       9.285  -1.487  22.781  0.00  0.00    +0.000 C 
ATOM      5  O   UNL     1      10.308  -2.092  22.556  0.00  0.00    +0.000 OA
ATOM      6  N   UNL     1       8.693  -0.675  21.981  0.00  0.00    +0.000 N 
ATOM      7  C   UNL     1       8.529   0.776  22.265  0.00  0.00    +0.000 C 
ATOM      8  C   UNL     1       7.275   1.144  21.370  0.00  0.00    +0.000 C 
ATOM      9  C   UNL     1       7.193   0.091  20.312  0.00  0.00    +0.000 C 
ATOM     10  C   UNL     1       7.428   0.623  18.885  0.00  0.00    +0.000 C 
ATOM     11  O   UNL     1       6.871  -0.392  18.056  0.00  0.00    +0.000 OA
ATOM     12  C   UNL     1       5.792  -1.002  18.712  0.00  0.00    +0.000 C 
ATOM     13  C   UNL     1       5.753  -0.453  20.147  0.00  0.00    +0.000 C 
ATOM     14  C   UNL     1       8.154  -1.016  20.624  0.00  0.00    +0.000 C 
ATOM     15  C   UNL     1       9.208  -2.269  25.082  0.00  0.00    +0.000 C 
ATOM     16  C   UNL     1       9.034  -3.727  25.302  0.00  0.00    +0.000 C 
ATOM     17  C   UNL     1       8.323  -4.554  24.280  0.00  0.00    +0.000 C 
ENDROOT
BRANCH   1  23
ATOM     18  C   UNL     1       4.385  -6.289  25.688  0.00  0.00    +0.000 C 
ATOM     19  C   UNL     1       3.455  -5.116  25.537  0.00  0.00    +0.000 C 
ATOM     20  C   UNL     1       3.172  -4.326  24.318  0.00  0.00    +0.000 C 
ATOM     21  C   UNL     1       3.990  -4.885  23.219  0.00  0.00    +0.000 C 
ATOM     22  S   UNL     1       5.011  -3.720  23.158  0.00  0.00    +0.000 S 
ATOM     23  C   UNL     1       6.370  -4.505  22.739  0.00  0.00    +0.000 C 
ATOM     24  N   UNL     1       6.040  -5.689  23.268  0.00  0.00    +0.000 NA
ATOM     25  C   UNL     1       4.796  -6.032  23.240  0.00  0.00    +0.000 C 
ATOM     26  C   UNL     1       4.820  -6.876  24.453  0.00  0.00    +0.000 C 
ENDBRANCH   1  23
TORSDOF 1
ENDMDL
MODEL 5
REMARK VINA RESULT:      -7.3      3.210      6.047
REMARK  Name = 
REMARK  1 active torsions:
REMARK  status: ('A' for Active; 'I' for Inactive)
REMARK    1  A    between atoms: C_9  and  C_10
REMARK                            x       y       z     vdW  Elec       q    Type
REMARK                         _______ _______ _______ _____ _____    ______ ____
ROOT
ATOM      1  C   UNL     1       7.493  -0.927  25.516  0.00  0.00    +0.000 C 
ATOM      2  C   UNL     1       7.275  -2.195  26.331  0.00  0.00    +0.000 C 
ATOM      3  N   UNL     1       5.876  -2.067  26.829  0.00  0.00    +0.000 N 
ATOM      4  C   UNL     1       4.914  -2.183  25.873  0.00  0.00    +0.000 C 
ATOM      5  O   UNL     1       4.251  -1.224  25.549  0.00  0.00    +0.000 OA
ATOM      6  N   UNL     1       4.925  -3.328  25.293  0.00  0.00    +0.000 N 
ATOM      7  C   UNL     1       4.467  -4.580  25.951  0.00  0.00    +0.000 C 
ATOM      8  C   UNL     1       5.239  -5.687  25.122  0.00  0.00    +0.000 C 
ATOM      9  C   UNL     1       5.597  -5.056  23.814  0.00  0.00    +0.000 C 
ATOM     10  C   UNL     1       4.897  -5.700  22.601  0.00  0.00    +0.000 C 
ATOM     11  O   UNL     1       5.694  -5.281  21.498  0.00  0.00    +0.000 OA
ATOM     12  C   UNL     1       7.030  -5.141  21.902  0.00  0.00    +0.000 C 
ATOM     13  C   UNL     1       7.073  -5.320  23.428  0.00  0.00    +0.000 C 
ATOM     14  C   UNL     1       5.308  -3.586  23.866  0.00  0.00    +0.000 C 
ATOM     15  C   UNL     1       5.742  -1.063  27.866  0.00  0.00    +0.000 C 
ATOM     16  C   UNL     1       6.589   0.141  27.672  0.00  0.00    +0.000 C 
ATOM     17  C   UNL     1       7.402   0.285  26.426  0.00  0.00    +0.000 C 
ENDROOT
BRANCH   1  23
ATOM     18  C   UNL     1       8.971   0.649  21.245  0.00  0.00    +0.000 C 
ATOM     19  C   UNL     1       9.721   1.732  21.972  0.00  0.00    +0.000 C 
ATOM     20  C   UNL     1      10.565   1.604  23.181  0.00  0.00    +0.000 C 
ATOM     21  C   UNL     1      10.549   0.183  23.594  0.00  0.00    +0.000 C 
ATOM     22  S   UNL     1       9.637   0.378  24.833  0.00  0.00    +0.000 S 
ATOM     23  C   UNL     1       8.815  -1.024  24.850  0.00  0.00    +0.000 C 
ATOM     24  N   UNL     1       8.896  -1.272  23.538  0.00  0.00    +0.000 NA
ATOM     25  C   UNL     1       9.971  -0.904  22.924  0.00  0.00    +0.000 C 
ATOM     26  C   UNL     1       9.349  -0.689  21.600  0.00  0.00    +0.000 C 
ENDBRANCH   1  23
TORSDOF 1
ENDMDL
MODEL 6
REMARK VINA RESULT:      -7.1      2.642      3.822
REMARK  Name = 
REMARK  1 active torsions:
REMARK  status: ('A' for Active; 'I' for Inactive)
REMARK    1  A    between atoms: C_9  and  C_10
REMARK                            x       y       z     vdW  Elec       q    Type
REMARK                         _______ _______ _______ _____ _____    ______ ____
ROOT
ATOM      1  C   UNL     1       8.001  -0.785  22.390  0.00  0.00    +0.000 C 
ATOM      2  C   UNL     1       8.222  -0.191  23.774  0.00  0.00    +0.000 C 
ATOM      3  N   UNL     1       9.476   0.601  23.631  0.00  0.00    +0.000 N 
ATOM      4  C   UNL     1       9.362   1.721  22.864  0.00  0.00    +0.000 C 
ATOM      5  O   UNL     1       9.907   1.785  21.786  0.00  0.00    +0.000 OA
ATOM      6  N   UNL     1       8.522   2.567  23.341  0.00  0.00    +0.000 N 
ATOM      7  C   UNL     1       8.788   3.385  24.554  0.00  0.00    +0.000 C 
ATOM      8  C   UNL     1       7.321   3.731  25.043  0.00  0.00    +0.000 C 
ATOM      9  C   UNL     1       6.434   3.569  23.851  0.00  0.00    +0.000 C 
ATOM     10  C   UNL     1       5.782   4.882  23.377  0.00  0.00    +0.000 C 
ATOM     11  O   UNL     1       4.685   4.440  22.582  0.00  0.00    +0.000 OA
ATOM     12  C   UNL     1       4.196   3.224  23.081  0.00  0.00    +0.000 C 
ATOM     13  C   UNL     1       5.159   2.756  24.184  0.00  0.00    +0.000 C 
ATOM     14  C   UNL     1       7.201   2.931  22.732  0.00  0.00    +0.000 C 
ATOM     15  C   UNL     1      10.655  -0.234  23.514  0.00  0.00    +0.000 C 
ATOM     16  C   UNL     1      10.452  -1.478  22.730  0.00  0.00    +0.000 C 
ATOM     17  C   UNL     1       9.143  -1.726  22.051  0.00  0.00    +0.000 C 
ENDROOT
BRANCH   1  23
ATOM     18  C   UNL     1       6.924  -5.445  22.570  0.00  0.00    +0.000 C 
ATOM     19  C   UNL     1       6.496  -5.230  23.996  0.00  0.00    +0.000 C 
ATOM     20  C   UNL     1       5.668  -4.133  24.544  0.00  0.00    +0.000 C 
ATOM     21  C   UNL     1       5.316  -3.231  23.426  0.00  0.00    +0.000 C 
ATOM     22  S   UNL     1       6.265  -2.076  23.836  0.00  0.00    +0.000 S 
ATOM     23  C   UNL     1       6.690  -1.479  22.385  0.00  0.00    +0.000 C 
ATOM     24  N   UNL     1       6.526  -2.613  21.692  0.00  0.00    +0.000 NA
ATOM     25  C   UNL     1       5.577  -3.407  22.060  0.00  0.00    +0.000 C 
ATOM     26  C   UNL     1       6.213  -4.660  21.602  0.00  0.00    +0.000 C 
ENDBRANCH   1  23
TORSDOF 1
ENDMDL
MODEL 7
REMARK VINA RESULT:      -7.1      3.665      7.184
REMARK  Name = 
REMARK  1 active torsions:
REMARK  status: ('A' for Active; 'I' for Inactive)
REMARK    1  A    between atoms: C_9  and  C_10
REMARK                            x       y       z     vdW  Elec       q    Type
REMARK                         _______ _______ _______ _____ _____    ______ ____
ROOT
ATOM      1  C   UNL     1       7.456  -2.890  24.784  0.00  0.00    +0.000 C 
ATOM      2  C   UNL     1       6.945  -4.229  24.271  0.00  0.00    +0.000 C 
ATOM      3  N   UNL     1       7.447  -5.213  25.272  0.00  0.00    +0.000 N 
ATOM      4  C   UNL     1       6.854  -5.140  26.496  0.00  0.00    +0.000 C 
ATOM      5  O   UNL     1       7.475  -4.748  27.457  0.00  0.00    +0.000 OA
ATOM      6  N   UNL     1       5.591  -5.370  26.451  0.00  0.00    +0.000 N 
ATOM      7  C   UNL     1       5.017  -6.721  26.218  0.00  0.00    +0.000 C 
ATOM      8  C   UNL     1       3.581  -6.372  25.646  0.00  0.00    +0.000 C 
ATOM      9  C   UNL     1       3.279  -4.979  26.098  0.00  0.00    +0.000 C 
ATOM     10  C   UNL     1       2.092  -4.885  27.076  0.00  0.00    +0.000 C 
ATOM     11  O   UNL     1       1.711  -3.515  27.004  0.00  0.00    +0.000 OA
ATOM     12  C   UNL     1       1.967  -3.017  25.718  0.00  0.00    +0.000 C 
ATOM     13  C   UNL     1       2.731  -4.103  24.945  0.00  0.00    +0.000 C 
ATOM     14  C   UNL     1       4.506  -4.366  26.702  0.00  0.00    +0.000 C 
ATOM     15  C   UNL     1       8.878  -5.426  25.178  0.00  0.00    +0.000 C 
ATOM     16  C   UNL     1       9.662  -4.207  24.857  0.00  0.00    +0.000 C 
ATOM     17  C   UNL     1       8.975  -2.883  24.765  0.00  0.00    +0.000 C 
ENDROOT
BRANCH   1  23
ATOM     18  C   UNL     1       9.482   1.003  22.872  0.00  0.00    +0.000 C 
ATOM     19  C   UNL     1       9.437   0.300  21.543  0.00  0.00    +0.000 C 
ATOM     20  C   UNL     1       8.316  -0.465  20.953  0.00  0.00    +0.000 C 
ATOM     21  C   UNL     1       7.196  -0.442  21.919  0.00  0.00    +0.000 C 
ATOM     22  S   UNL     1       7.335  -1.918  22.374  0.00  0.00    +0.000 S 
ATOM     23  C   UNL     1       6.886  -1.817  23.933  0.00  0.00    +0.000 C 
ATOM     24  N   UNL     1       7.243  -0.541  24.119  0.00  0.00    +0.000 NA
ATOM     25  C   UNL     1       7.110   0.270  23.124  0.00  0.00    +0.000 C 
ATOM     26  C   UNL     1       8.206   1.188  23.501  0.00  0.00    +0.000 C 
ENDBRANCH   1  23
TORSDOF 1
ENDMDL
MODEL 8
REMARK VINA RESULT:      -7.1      2.800      4.399
REMARK  Name = 
REMARK  1 active torsions:
REMARK  status: ('A' for Active; 'I' for Inactive)
REMARK    1  A    between atoms: C_9  and  C_10
REMARK                            x       y       z     vdW  Elec       q    Type
REMARK                         _______ _______ _______ _____ _____    ______ ____
ROOT
ATOM      1  C   UNL     1       8.101  -1.688  22.887  0.00  0.00    +0.000 C 
ATOM      2  C   UNL     1       8.669  -1.156  24.196  0.00  0.00    +0.000 C 
ATOM      3  N   UNL     1       8.787   0.312  23.968  0.00  0.00    +0.000 N 
ATOM      4  C   UNL     1       7.602   0.977  23.888  0.00  0.00    +0.000 C 
ATOM      5  O   UNL     1       7.231   1.449  22.837  0.00  0.00    +0.000 OA
ATOM      6  N   UNL     1       6.911   0.893  24.968  0.00  0.00    +0.000 N 
ATOM      7  C   UNL     1       7.267   1.611  26.221  0.00  0.00    +0.000 C 
ATOM      8  C   UNL     1       6.547   0.726  27.320  0.00  0.00    +0.000 C 
ATOM      9  C   UNL     1       5.468  -0.028  26.609  0.00  0.00    +0.000 C 
ATOM     10  C   UNL     1       4.044   0.355  27.056  0.00  0.00    +0.000 C 
ATOM     11  O   UNL     1       3.253  -0.746  26.621  0.00  0.00    +0.000 OA
ATOM     12  C   UNL     1       4.013  -1.924  26.663  0.00  0.00    +0.000 C 
ATOM     13  C   UNL     1       5.462  -1.528  26.991  0.00  0.00    +0.000 C 
ATOM     14  C   UNL     1       5.619   0.150  25.128  0.00  0.00    +0.000 C 
ATOM     15  C   UNL     1       9.864   0.651  23.059  0.00  0.00    +0.000 C 
ATOM     16  C   UNL     1      10.050  -0.307  21.939  0.00  0.00    +0.000 C 
ATOM     17  C   UNL     1       9.093  -1.442  21.765  0.00  0.00    +0.000 C 
ENDROOT
BRANCH   1  23
ATOM     18  C   UNL     1       9.039  -4.663  26.518  0.00  0.00    +0.000 C 
ATOM     19  C   UNL     1       7.577  -4.602  26.866  0.00  0.00    +0.000 C 
ATOM     20  C   UNL     1       6.416  -4.698  25.953  0.00  0.00    +0.000 C 
ATOM     21  C   UNL     1       6.936  -4.859  24.578  0.00  0.00    +0.000 C 
ATOM     22  S   UNL     1       6.590  -3.426  24.097  0.00  0.00    +0.000 S 
ATOM     23  C   UNL     1       7.806  -3.132  23.060  0.00  0.00    +0.000 C 
ATOM     24  N   UNL     1       8.703  -3.943  23.633  0.00  0.00    +0.000 NA
ATOM     25  C   UNL     1       8.268  -5.032  24.173  0.00  0.00    +0.000 C 
ATOM     26  C   UNL     1       9.325  -5.152  25.200  0.00  0.00    +0.000 C 
ENDBRANCH   1  23
TORSDOF 1
ENDMDL
MODEL 9
REMARK VINA RESULT:      -7.1      2.937      5.836
REMARK  Name = 
REMARK  1 active torsions:
REMARK  status: ('A' for Active; 'I' for Inactive)
REMARK    1  A    between atoms: C_9  and  C_10
REMARK                            x       y       z     vdW  Elec       q    Type
REMARK                         _______ _______ _______ _____ _____    ______ ____
ROOT
ATOM      1  C   UNL     1       9.173   0.407  24.157  0.00  0.00    +0.000 C 
ATOM      2  C   UNL     1       7.960  -0.089  23.383  0.00  0.00    +0.000 C 
ATOM      3  N   UNL     1       8.543  -0.761  22.188  0.00  0.00    +0.000 N 
ATOM      4  C   UNL     1       9.201  -1.925  22.448  0.00  0.00    +0.000 C 
ATOM      5  O   UNL     1      10.403  -1.992  22.330  0.00  0.00    +0.000 OA
ATOM      6  N   UNL     1       8.438  -2.823  22.958  0.00  0.00    +0.000 N 
ATOM      7  C   UNL     1       7.398  -3.547  22.180  0.00  0.00    +0.000 C 
ATOM      8  C   UNL     1       6.399  -4.008  23.320  0.00  0.00    +0.000 C 
ATOM      9  C   UNL     1       7.183  -3.997  24.593  0.00  0.00    +0.000 C 
ATOM     10  C   UNL     1       7.367  -5.391  25.223  0.00  0.00    +0.000 C 
ATOM     11  O   UNL     1       7.708  -5.101  26.575  0.00  0.00    +0.000 OA
ATOM     12  C   UNL     1       7.080  -3.914  26.980  0.00  0.00    +0.000 C 
ATOM     13  C   UNL     1       6.415  -3.296  25.740  0.00  0.00    +0.000 C 
ATOM     14  C   UNL     1       8.514  -3.347  24.361  0.00  0.00    +0.000 C 
ATOM     15  C   UNL     1       9.097   0.179  21.233  0.00  0.00    +0.000 C 
ATOM     16  C   UNL     1       9.768   1.354  21.843  0.00  0.00    +0.000 C 
ATOM     17  C   UNL     1       9.921   1.436  23.328  0.00  0.00    +0.000 C 
ENDROOT
BRANCH   1  23
ATOM     18  C   UNL     1       4.798   1.695  25.609  0.00  0.00    +0.000 C 
ATOM     19  C   UNL     1       4.778   0.452  26.455  0.00  0.00    +0.000 C 
ATOM     20  C   UNL     1       5.852  -0.078  27.324  0.00  0.00    +0.000 C 
ATOM     21  C   UNL     1       7.009   0.839  27.222  0.00  0.00    +0.000 C 
ATOM     22  S   UNL     1       7.895  -0.102  26.365  0.00  0.00    +0.000 S 
ATOM     23  C   UNL     1       8.705   0.968  25.447  0.00  0.00    +0.000 C 
ATOM     24  N   UNL     1       7.778   1.932  25.471  0.00  0.00    +0.000 NA
ATOM     25  C   UNL     1       7.080   2.067  26.549  0.00  0.00    +0.000 C 
ATOM     26  C   UNL     1       5.865   2.608  25.903  0.00  0.00    +0.000 C 
ENDBRANCH   1  23
TORSDOF 1
ENDMDL
