MODEL 1
REMARK VINA RESULT:      -8.6      0.000      0.000
REMARK  Name = 
REMARK  3 active torsions:
REMARK  status: ('A' for Active; 'I' for Inactive)
REMARK    1  A    between atoms: C_10  and  C_11
REMARK    2  A    between atoms: N_20  and  S_21
REMARK    3  A    between atoms: S_21  and  C_24
REMARK                            x       y       z     vdW  Elec       q    Type
REMARK                         _______ _______ _______ _____ _____    ______ ____
ROOT
ATOM      1  C   UNL     1       8.007  -3.467  24.213  0.00  0.00    +0.000 C 
ATOM      2  O   UNL     1       8.932  -2.852  24.683  0.00  0.00    +0.000 OA
ATOM      3  N   UNL     1       6.921  -2.834  23.731  0.00  0.00    +0.000 N 
ATOM      4  C   UNL     1       6.438  -1.605  24.345  0.00  0.00    +0.000 C 
ATOM      5  C   UNL     1       6.878  -0.415  23.477  0.00  0.00    +0.000 C 
ATOM      6  N   UNL     1       7.312  -0.785  22.227  0.00  0.00    +0.000 NA
ATOM      7  C   UNL     1       6.475  -1.740  21.628  0.00  0.00    +0.000 C 
ATOM      8  C   UNL     1       6.513  -3.090  22.361  0.00  0.00    +0.000 C 
ENDROOT
BRANCH   1  15
ATOM      9  C   UNL     1       5.935  -6.340  28.022  0.00  0.00    +0.000 A 
ATOM     10  N   UNL     1       6.906  -5.190  28.041  0.00  0.00    +0.000 NA
ATOM     11  C   UNL     1       7.139  -4.906  26.822  0.00  0.00    +0.000 A 
ATOM     12  C   UNL     1       6.550  -4.998  25.404  0.00  0.00    +0.000 A 
ATOM     13  C   UNL     1       5.509  -6.075  25.365  0.00  0.00    +0.000 A 
ATOM     14  C   UNL     1       5.168  -6.399  26.830  0.00  0.00    +0.000 A 
ATOM     15  C   UNL     1       7.812  -4.974  24.455  0.00  0.00    +0.000 C 
ATOM     16  C   UNL     1       8.935  -5.372  25.450  0.00  0.00    +0.000 C 
ATOM     17  N   UNL     1       8.560  -4.887  26.710  0.00  0.00    +0.000 N 
ATOM     18  H   UNL     1       8.796  -3.960  26.729  0.00  0.00    +0.000 HD
ENDBRANCH   1  15
BRANCH   6  19
ATOM     19  S   UNL     1       8.789  -0.789  21.730  0.00  0.00    +0.000 S 
ATOM     20  O   UNL     1       8.663  -0.323  20.220  0.00  0.00    +0.000 OA
ATOM     21  O   UNL     1       9.350  -2.114  21.662  0.00  0.00    +0.000 OA
BRANCH  19  22
ATOM     22  C   UNL     1      10.016   0.310  22.173  0.00  0.00    +0.000 A 
ATOM     23  C   UNL     1      10.505  -0.120  23.511  0.00  0.00    +0.000 A 
ATOM     24  C   UNL     1      10.449   0.623  24.803  0.00  0.00    +0.000 A 
ATOM     25  C   UNL     1       9.824   1.941  24.450  0.00  0.00    +0.000 A 
ATOM     26  C   UNL     1       9.471   2.698  23.297  0.00  0.00    +0.000 A 
ATOM     27  F   UNL     1      10.459   3.650  23.274  0.00  0.00    +0.000 F 
ATOM     28  C   UNL     1       9.746   1.754  22.101  0.00  0.00    +0.000 A 
ENDBRANCH  19  22
ENDBRANCH   6  19
TORSDOF 3
ENDMDL
MODEL 2
REMARK VINA RESULT:      -7.8      3.025      4.557
REMARK  Name = 
REMARK  3 active torsions:
REMARK  status: ('A' for Active; 'I' for Inactive)
REMARK    1  A    between atoms: C_10  and  C_11
REMARK    2  A    between atoms: N_20  and  S_21
REMARK    3  A    between atoms: S_21  and  C_24
REMARK                            x       y       z     vdW  Elec       q    Type
REMARK                         _______ _______ _______ _____ _____    ______ ____
ROOT
ATOM      1  C   UNL     1       8.258  -1.739  23.786  0.00  0.00    +0.000 C 
ATOM      2  O   UNL     1       9.027  -1.812  22.861  0.00  0.00    +0.000 OA
ATOM      3  N   UNL     1       8.338  -0.738  24.684  0.00  0.00    +0.000 N 
ATOM      4  C   UNL     1       9.627  -0.177  25.065  0.00  0.00    +0.000 C 
ATOM      5  C   UNL     1       9.818   1.159  24.331  0.00  0.00    +0.000 C 
ATOM      6  N   UNL     1       8.660   1.647  23.776  0.00  0.00    +0.000 NA
ATOM      7  C   UNL     1       7.563   1.545  24.647  0.00  0.00    +0.000 C 
ATOM      8  C   UNL     1       7.166   0.086  24.919  0.00  0.00    +0.000 C 
ENDROOT
BRANCH   1  15
ATOM      9  C   UNL     1       5.899  -5.692  21.363  0.00  0.00    +0.000 A 
ATOM     10  N   UNL     1       5.933  -4.213  21.082  0.00  0.00    +0.000 NA
ATOM     11  C   UNL     1       6.597  -3.690  22.035  0.00  0.00    +0.000 A 
ATOM     12  C   UNL     1       7.669  -3.989  23.097  0.00  0.00    +0.000 A 
ATOM     13  C   UNL     1       7.731  -5.467  23.340  0.00  0.00    +0.000 A 
ATOM     14  C   UNL     1       6.981  -6.128  22.171  0.00  0.00    +0.000 A 
ATOM     15  C   UNL     1       7.395  -2.931  24.236  0.00  0.00    +0.000 C 
ATOM     16  C   UNL     1       5.935  -2.518  23.910  0.00  0.00    +0.000 C 
ATOM     17  N   UNL     1       5.776  -2.630  22.522  0.00  0.00    +0.000 N 
ATOM     18  H   UNL     1       6.145  -1.835  22.138  0.00  0.00    +0.000 HD
ENDBRANCH   1  15
BRANCH   6  19
ATOM     19  S   UNL     1       8.305   1.669  22.259  0.00  0.00    +0.000 S 
ATOM     20  O   UNL     1       9.596   1.053  21.577  0.00  0.00    +0.000 OA
ATOM     21  O   UNL     1       8.208   3.006  21.729  0.00  0.00    +0.000 OA
BRANCH  19  22
ATOM     22  C   UNL     1       7.169   0.675  21.463  0.00  0.00    +0.000 A 
ATOM     23  C   UNL     1       7.928  -0.100  20.444  0.00  0.00    +0.000 A 
ATOM     24  C   UNL     1       7.783  -0.074  18.960  0.00  0.00    +0.000 A 
ATOM     25  C   UNL     1       6.655   0.885  18.711  0.00  0.00    +0.000 A 
ATOM     26  C   UNL     1       5.642   1.577  19.433  0.00  0.00    +0.000 A 
ATOM     27  F   UNL     1       4.524   0.850  19.110  0.00  0.00    +0.000 F 
ATOM     28  C   UNL     1       5.942   1.279  20.923  0.00  0.00    +0.000 A 
ENDBRANCH  19  22
ENDBRANCH   6  19
TORSDOF 3
ENDMDL
MODEL 3
REMARK VINA RESULT:      -7.6      2.611      3.821
REMARK  Name = 
REMARK  3 active torsions:
REMARK  status: ('A' for Active; 'I' for Inactive)
REMARK    1  A    between atoms: C_10  and  C_11
REMARK    2  A    between atoms: N_20  and  S_21
REMARK    3  A    between atoms: S_21  and  C_24
REMARK                            x       y       z     vdW  Elec       q    Type
REMARK                         _______ _______ _______ _____ _____    ______ ____
ROOT
ATOM      1  C   UNL     1       6.120  -4.185  24.300  0.00  0.00    +0.000 C 
ATOM      2  O   UNL     1       6.961  -4.630  23.560  0.00  0.00    +0.000 OA
ATOM      3  N   UNL     1       6.415  -3.847  25.570  0.00  0.00    +0.000 N 
ATOM      4  C   UNL     1       7.398  -4.601  26.335  0.00  0.00    +0.000 C 
ATOM      5  C   UNL     1       8.713  -3.806  26.365  0.00  0.00    +0.000 C 
ATOM      6  N   UNL     1       8.567  -2.497  25.970  0.00  0.00    +0.000 NA
ATOM      7  C   UNL     1       7.437  -1.888  26.537  0.00  0.00    +0.000 C 
ATOM      8  C   UNL     1       6.124  -2.498  26.021  0.00  0.00    +0.000 C 
ENDROOT
BRANCH   1  15
ATOM      9  C   UNL     1       2.473  -7.763  25.278  0.00  0.00    +0.000 A 
ATOM     10  N   UNL     1       3.865  -7.870  24.716  0.00  0.00    +0.000 NA
ATOM     11  C   UNL     1       4.296  -6.676  24.612  0.00  0.00    +0.000 A 
ATOM     12  C   UNL     1       4.126  -5.254  25.176  0.00  0.00    +0.000 A 
ATOM     13  C   UNL     1       2.782  -5.133  25.827  0.00  0.00    +0.000 A 
ATOM     14  C   UNL     1       2.262  -6.569  26.015  0.00  0.00    +0.000 A 
ATOM     15  C   UNL     1       4.615  -4.311  24.007  0.00  0.00    +0.000 C 
ATOM     16  C   UNL     1       4.519  -5.274  22.793  0.00  0.00    +0.000 C 
ATOM     17  N   UNL     1       4.769  -6.567  23.272  0.00  0.00    +0.000 N 
ATOM     18  H   UNL     1       5.720  -6.656  23.338  0.00  0.00    +0.000 HD
ENDBRANCH   1  15
BRANCH   6  19
ATOM     19  S   UNL     1       9.046  -1.885  24.619  0.00  0.00    +0.000 S 
ATOM     20  O   UNL     1       9.814  -3.088  23.930  0.00  0.00    +0.000 OA
ATOM     21  O   UNL     1      10.044  -0.861  24.795  0.00  0.00    +0.000 OA
BRANCH  19  22
ATOM     22  C   UNL     1       8.069  -1.482  23.280  0.00  0.00    +0.000 A 
ATOM     23  C   UNL     1       8.941  -1.578  22.078  0.00  0.00    +0.000 A 
ATOM     24  C   UNL     1       9.337  -0.499  21.129  0.00  0.00    +0.000 A 
ATOM     25  C   UNL     1       8.617   0.721  21.628  0.00  0.00    +0.000 A 
ATOM     26  C   UNL     1       7.600   1.072  22.559  0.00  0.00    +0.000 A 
ATOM     27  F   UNL     1       6.533   1.310  21.730  0.00  0.00    +0.000 F 
ATOM     28  C   UNL     1       7.281  -0.242  23.315  0.00  0.00    +0.000 A 
ENDBRANCH  19  22
ENDBRANCH   6  19
TORSDOF 3
ENDMDL
MODEL 4
REMARK VINA RESULT:      -7.5      2.375      3.195
REMARK  Name = 
REMARK  3 active torsions:
REMARK  status: ('A' for Active; 'I' for Inactive)
REMARK    1  A    between atoms: C_10  and  C_11
REMARK    2  A    between atoms: N_20  and  S_21
REMARK    3  A    between atoms: S_21  and  C_24
REMARK                            x       y       z     vdW  Elec       q    Type
REMARK                         _______ _______ _______ _____ _____    ______ ____
ROOT
ATOM      1  C   UNL     1       6.351  -4.243  23.664  0.00  0.00    +0.000 C 
ATOM      2  O   UNL     1       7.322  -4.956  23.630  0.00  0.00    +0.000 OA
ATOM      3  N   UNL     1       6.204  -3.308  24.623  0.00  0.00    +0.000 N 
ATOM      4  C   UNL     1       6.696  -3.540  25.974  0.00  0.00    +0.000 C 
ATOM      5  C   UNL     1       8.017  -2.775  26.155  0.00  0.00    +0.000 C 
ATOM      6  N   UNL     1       8.244  -1.841  25.173  0.00  0.00    +0.000 NA
ATOM      7  C   UNL     1       7.100  -1.084  24.878  0.00  0.00    +0.000 C 
ATOM      8  C   UNL     1       5.992  -1.927  24.228  0.00  0.00    +0.000 C 
ENDROOT
BRANCH   1  15
ATOM      9  C   UNL     1       2.349  -7.490  24.367  0.00  0.00    +0.000 A 
ATOM     10  N   UNL     1       3.838  -7.693  24.451  0.00  0.00    +0.000 NA
ATOM     11  C   UNL     1       4.364  -6.584  24.109  0.00  0.00    +0.000 A 
ATOM     12  C   UNL     1       4.101  -5.070  24.031  0.00  0.00    +0.000 A 
ATOM     13  C   UNL     1       2.623  -4.820  24.037  0.00  0.00    +0.000 A 
ATOM     14  C   UNL     1       1.965  -6.131  24.502  0.00  0.00    +0.000 A 
ATOM     15  C   UNL     1       5.064  -4.566  22.886  0.00  0.00    +0.000 C 
ATOM     16  C   UNL     1       5.363  -5.897  22.145  0.00  0.00    +0.000 C 
ATOM     17  N   UNL     1       5.316  -6.920  23.102  0.00  0.00    +0.000 N 
ATOM     18  H   UNL     1       6.161  -6.916  23.551  0.00  0.00    +0.000 HD
ENDBRANCH   1  15
BRANCH   6  19
ATOM     19  S   UNL     1       9.283  -1.956  24.018  0.00  0.00    +0.000 S 
ATOM     20  O   UNL     1       8.377  -1.984  22.718  0.00  0.00    +0.000 OA
ATOM     21  O   UNL     1       9.975  -3.219  24.014  0.00  0.00    +0.000 OA
BRANCH  19  22
ATOM     22  C   UNL     1      10.352  -0.738  23.484  0.00  0.00    +0.000 A 
ATOM     23  C   UNL     1      10.486   0.229  24.609  0.00  0.00    +0.000 A 
ATOM     24  C   UNL     1      10.100   1.668  24.647  0.00  0.00    +0.000 A 
ATOM     25  C   UNL     1       9.579   1.953  23.268  0.00  0.00    +0.000 A 
ATOM     26  C   UNL     1       9.528   1.343  21.982  0.00  0.00    +0.000 A 
ATOM     27  F   UNL     1      10.485   2.050  21.299  0.00  0.00    +0.000 F 
ATOM     28  C   UNL     1      10.103  -0.080  22.193  0.00  0.00    +0.000 A 
ENDBRANCH  19  22
ENDBRANCH   6  19
TORSDOF 3
ENDMDL
MODEL 5
REMARK VINA RESULT:      -7.5      3.358      7.164
REMARK  Name = 
REMARK  3 active torsions:
REMARK  status: ('A' for Active; 'I' for Inactive)
REMARK    1  A    between atoms: C_10  and  C_11
REMARK    2  A    between atoms: N_20  and  S_21
REMARK    3  A    between atoms: S_21  and  C_24
REMARK                            x       y       z     vdW  Elec       q    Type
REMARK                         _______ _______ _______ _____ _____    ______ ____
ROOT
ATOM      1  C   UNL     1       7.876  -1.626  24.777  0.00  0.00    +0.000 C 
ATOM      2  O   UNL     1       8.044  -1.595  25.970  0.00  0.00    +0.000 OA
ATOM      3  N   UNL     1       8.325  -2.656  24.035  0.00  0.00    +0.000 N 
ATOM      4  C   UNL     1       9.563  -3.342  24.379  0.00  0.00    +0.000 C 
ATOM      5  C   UNL     1       9.214  -4.668  25.074  0.00  0.00    +0.000 C 
ATOM      6  N   UNL     1       7.897  -5.032  24.922  0.00  0.00    +0.000 NA
ATOM      7  C   UNL     1       7.441  -4.858  23.606  0.00  0.00    +0.000 C 
ATOM      8  C   UNL     1       7.383  -3.378  23.198  0.00  0.00    +0.000 C 
ENDROOT
BRANCH   1  15
ATOM      9  C   UNL     1      10.448   2.539  23.016  0.00  0.00    +0.000 A 
ATOM     10  N   UNL     1      10.416   1.869  24.364  0.00  0.00    +0.000 NA
ATOM     11  C   UNL     1       9.558   0.933  24.272  0.00  0.00    +0.000 A 
ATOM     12  C   UNL     1       8.861  -0.002  23.268  0.00  0.00    +0.000 A 
ATOM     13  C   UNL     1       8.951   0.587  21.893  0.00  0.00    +0.000 A 
ATOM     14  C   UNL     1      10.024   1.687  21.963  0.00  0.00    +0.000 A 
ATOM     15  C   UNL     1       7.495  -0.375  23.966  0.00  0.00    +0.000 C 
ATOM     16  C   UNL     1       7.379   0.766  25.014  0.00  0.00    +0.000 C 
ATOM     17  N   UNL     1       8.684   1.119  25.383  0.00  0.00    +0.000 N 
ATOM     18  H   UNL     1       8.970   0.477  26.032  0.00  0.00    +0.000 HD
ENDBRANCH   1  15
BRANCH   6  19
ATOM     19  S   UNL     1       6.795  -4.977  26.021  0.00  0.00    +0.000 S 
ATOM     20  O   UNL     1       7.602  -4.562  27.321  0.00  0.00    +0.000 OA
ATOM     21  O   UNL     1       6.247  -6.275  26.325  0.00  0.00    +0.000 OA
BRANCH  19  22
ATOM     22  C   UNL     1       5.563  -3.807  26.173  0.00  0.00    +0.000 A 
ATOM     23  C   UNL     1       5.248  -3.710  27.624  0.00  0.00    +0.000 A 
ATOM     24  C   UNL     1       3.966  -4.022  28.319  0.00  0.00    +0.000 A 
ATOM     25  C   UNL     1       3.029  -4.417  27.215  0.00  0.00    +0.000 A 
ATOM     26  C   UNL     1       2.962  -4.400  25.793  0.00  0.00    +0.000 A 
ATOM     27  F   UNL     1       2.100  -3.356  25.567  0.00  0.00    +0.000 F 
ATOM     28  C   UNL     1       4.360  -3.919  25.334  0.00  0.00    +0.000 A 
ENDBRANCH  19  22
ENDBRANCH   6  19
TORSDOF 3
ENDMDL
MODEL 6
REMARK VINA RESULT:      -7.4      3.229      7.074
REMARK  Name = 
REMARK  3 active torsions:
REMARK  status: ('A' for Active; 'I' for Inactive)
REMARK    1  A    between atoms: C_10  and  C_11
REMARK    2  A    between atoms: N_20  and  S_21
REMARK    3  A    between atoms: S_21  and  C_24
REMARK                            x       y       z     vdW  Elec       q    Type
REMARK                         _______ _______ _______ _____ _____    ______ ____
ROOT
ATOM      1  C   UNL     1       7.256   0.383  22.991  0.00  0.00    +0.000 C 
ATOM      2  O   UNL     1       6.337  -0.392  23.075  0.00  0.00    +0.000 OA
ATOM      3  N   UNL     1       8.161   0.505  23.981  0.00  0.00    +0.000 N 
ATOM      4  C   UNL     1       7.768   0.352  25.375  0.00  0.00    +0.000 C 
ATOM      5  C   UNL     1       8.196  -1.043  25.857  0.00  0.00    +0.000 C 
ATOM      6  N   UNL     1       9.088  -1.660  25.014  0.00  0.00    +0.000 NA
ATOM      7  C   UNL     1      10.103  -0.793  24.579  0.00  0.00    +0.000 C 
ATOM      8  C   UNL     1       9.568   0.324  23.670  0.00  0.00    +0.000 C 
ENDROOT
BRANCH   1  15
ATOM      9  C   UNL     1       6.289   0.781  17.895  0.00  0.00    +0.000 A 
ATOM     10  N   UNL     1       7.117  -0.192  18.691  0.00  0.00    +0.000 NA
ATOM     11  C   UNL     1       7.075   0.214  19.897  0.00  0.00    +0.000 A 
ATOM     12  C   UNL     1       6.232   1.034  20.890  0.00  0.00    +0.000 A 
ATOM     13  C   UNL     1       5.324   1.954  20.133  0.00  0.00    +0.000 A 
ATOM     14  C   UNL     1       5.313   1.451  18.679  0.00  0.00    +0.000 A 
ATOM     15  C   UNL     1       7.274   1.532  21.967  0.00  0.00    +0.000 C 
ATOM     16  C   UNL     1       8.606   1.360  21.189  0.00  0.00    +0.000 C 
ATOM     17  N   UNL     1       8.436   0.276  20.316  0.00  0.00    +0.000 N 
ATOM     18  H   UNL     1       8.571  -0.517  20.834  0.00  0.00    +0.000 HD
ENDBRANCH   1  15
BRANCH   6  19
ATOM     19  S   UNL     1       8.780  -2.854  24.062  0.00  0.00    +0.000 S 
ATOM     20  O   UNL     1       9.933  -3.889  24.395  0.00  0.00    +0.000 OA
ATOM     21  O   UNL     1       8.970  -2.523  22.673  0.00  0.00    +0.000 OA
BRANCH  19  22
ATOM     22  C   UNL     1       7.484  -3.956  24.196  0.00  0.00    +0.000 A 
ATOM     23  C   UNL     1       7.871  -5.161  23.413  0.00  0.00    +0.000 A 
ATOM     24  C   UNL     1       7.214  -5.733  22.203  0.00  0.00    +0.000 A 
ATOM     25  C   UNL     1       6.028  -4.843  21.966  0.00  0.00    +0.000 A 
ATOM     26  C   UNL     1       5.302  -3.808  22.620  0.00  0.00    +0.000 A 
ATOM     27  F   UNL     1       4.176  -4.474  23.033  0.00  0.00    +0.000 F 
ATOM     28  C   UNL     1       6.119  -3.497  23.899  0.00  0.00    +0.000 A 
ENDBRANCH  19  22
ENDBRANCH   6  19
TORSDOF 3
ENDMDL
MODEL 7
REMARK VINA RESULT:      -7.4      3.131      4.680
REMARK  Name = 
REMARK  3 active torsions:
REMARK  status: ('A' for Active; 'I' for Inactive)
REMARK    1  A    between atoms: C_10  and  C_11
REMARK    2  A    between atoms: N_20  and  S_21
REMARK    3  A    between atoms: S_21  and  C_24
REMARK                            x       y       z     vdW  Elec       q    Type
REMARK                         _______ _______ _______ _____ _____    ______ ____
ROOT
ATOM      1  C   UNL     1       7.591  -1.222  23.179  0.00  0.00    +0.000 C 
ATOM      2  O   UNL     1       6.889  -0.560  22.456  0.00  0.00    +0.000 OA
ATOM      3  N   UNL     1       8.932  -1.099  23.155  0.00  0.00    +0.000 N 
ATOM      4  C   UNL     1       9.634  -0.811  21.911  0.00  0.00    +0.000 C 
ATOM      5  C   UNL     1      10.014   0.677  21.895  0.00  0.00    +0.000 C 
ATOM      6  N   UNL     1       9.905   1.281  23.125  0.00  0.00    +0.000 NA
ATOM      7  C   UNL     1      10.438   0.494  24.158  0.00  0.00    +0.000 C 
ATOM      8  C   UNL     1       9.629  -0.791  24.390  0.00  0.00    +0.000 C 
ENDROOT
BRANCH   1  15
ATOM      9  C   UNL     1       6.206  -5.998  21.651  0.00  0.00    +0.000 A 
ATOM     10  N   UNL     1       5.851  -4.630  21.130  0.00  0.00    +0.000 NA
ATOM     11  C   UNL     1       6.402  -3.799  21.922  0.00  0.00    +0.000 A 
ATOM     12  C   UNL     1       7.561  -3.634  22.920  0.00  0.00    +0.000 A 
ATOM     13  C   UNL     1       8.007  -4.984  23.395  0.00  0.00    +0.000 A 
ATOM     14  C   UNL     1       7.398  -6.007  22.420  0.00  0.00    +0.000 A 
ATOM     15  C   UNL     1       7.079  -2.486  23.891  0.00  0.00    +0.000 C 
ATOM     16  C   UNL     1       5.548  -2.505  23.632  0.00  0.00    +0.000 C 
ATOM     17  N   UNL     1       5.362  -2.901  22.300  0.00  0.00    +0.000 N 
ATOM     18  H   UNL     1       5.500  -2.122  21.760  0.00  0.00    +0.000 HD
ENDBRANCH   1  15
BRANCH   6  19
ATOM     19  S   UNL     1       8.801   2.291  23.559  0.00  0.00    +0.000 S 
ATOM     20  O   UNL     1       9.633   3.557  24.023  0.00  0.00    +0.000 OA
ATOM     21  O   UNL     1       8.088   1.864  24.736  0.00  0.00    +0.000 OA
BRANCH  19  22
ATOM     22  C   UNL     1       7.725   3.128  22.533  0.00  0.00    +0.000 A 
ATOM     23  C   UNL     1       7.746   4.551  22.969  0.00  0.00    +0.000 A 
ATOM     24  C   UNL     1       6.629   5.369  23.522  0.00  0.00    +0.000 A 
ATOM     25  C   UNL     1       5.444   4.448  23.501  0.00  0.00    +0.000 A 
ATOM     26  C   UNL     1       5.067   3.181  22.973  0.00  0.00    +0.000 A 
ATOM     27  F   UNL     1       4.258   3.545  21.926  0.00  0.00    +0.000 F 
ATOM     28  C   UNL     1       6.362   2.609  22.346  0.00  0.00    +0.000 A 
ENDBRANCH  19  22
ENDBRANCH   6  19
TORSDOF 3
ENDMDL
MODEL 8
REMARK VINA RESULT:      -7.4      3.413      7.260
REMARK  Name = 
REMARK  3 active torsions:
REMARK  status: ('A' for Active; 'I' for Inactive)
REMARK    1  A    between atoms: C_10  and  C_11
REMARK    2  A    between atoms: N_20  and  S_21
REMARK    3  A    between atoms: S_21  and  C_24
REMARK                            x       y       z     vdW  Elec       q    Type
REMARK                         _______ _______ _______ _____ _____    ______ ____
ROOT
ATOM      1  C   UNL     1       7.650  -0.645  24.123  0.00  0.00    +0.000 C 
ATOM      2  O   UNL     1       6.568  -0.674  24.653  0.00  0.00    +0.000 OA
ATOM      3  N   UNL     1       8.724  -1.223  24.695  0.00  0.00    +0.000 N 
ATOM      4  C   UNL     1       8.881  -1.239  26.143  0.00  0.00    +0.000 C 
ATOM      5  C   UNL     1       8.499  -2.634  26.664  0.00  0.00    +0.000 C 
ATOM      6  N   UNL     1       8.421  -3.582  25.673  0.00  0.00    +0.000 NA
ATOM      7  C   UNL     1       9.495  -3.507  24.772  0.00  0.00    +0.000 C 
ATOM      8  C   UNL     1       9.470  -2.214  23.942  0.00  0.00    +0.000 C 
ENDROOT
BRANCH   1  15
ATOM      9  C   UNL     1       9.633   4.158  23.878  0.00  0.00    +0.000 A 
ATOM     10  N   UNL     1       8.543   3.559  24.727  0.00  0.00    +0.000 NA
ATOM     11  C   UNL     1       8.405   2.359  24.326  0.00  0.00    +0.000 A 
ATOM     12  C   UNL     1       9.141   1.203  23.624  0.00  0.00    +0.000 A 
ATOM     13  C   UNL     1      10.293   1.750  22.838  0.00  0.00    +0.000 A 
ATOM     14  C   UNL     1      10.518   3.186  23.344  0.00  0.00    +0.000 A 
ATOM     15  C   UNL     1       7.986   0.336  22.986  0.00  0.00    +0.000 C 
ATOM     16  C   UNL     1       6.818   1.360  22.979  0.00  0.00    +0.000 C 
ATOM     17  N   UNL     1       7.009   2.208  24.079  0.00  0.00    +0.000 N 
ATOM     18  H   UNL     1       6.671   1.745  24.845  0.00  0.00    +0.000 HD
ENDBRANCH   1  15
BRANCH   6  19
ATOM     19  S   UNL     1       7.115  -4.210  25.101  0.00  0.00    +0.000 S 
ATOM     20  O   UNL     1       5.971  -3.404  25.845  0.00  0.00    +0.000 OA
ATOM     21  O   UNL     1       6.929  -5.579  25.510  0.00  0.00    +0.000 OA
BRANCH  19  22
ATOM     22  C   UNL     1       6.496  -4.015  23.522  0.00  0.00    +0.000 A 
ATOM     23  C   UNL     1       5.019  -4.159  23.627  0.00  0.00    +0.000 A 
ATOM     24  C   UNL     1       4.140  -5.192  23.007  0.00  0.00    +0.000 A 
ATOM     25  C   UNL     1       5.077  -6.045  22.202  0.00  0.00    +0.000 A 
ATOM     26  C   UNL     1       6.425  -6.040  21.746  0.00  0.00    +0.000 A 
ATOM     27  F   UNL     1       6.270  -5.716  20.421  0.00  0.00    +0.000 F 
ATOM     28  C   UNL     1       7.070  -4.807  22.424  0.00  0.00    +0.000 A 
ENDBRANCH  19  22
ENDBRANCH   6  19
TORSDOF 3
ENDMDL
MODEL 9
REMARK VINA RESULT:      -7.3      2.232      3.024
REMARK  Name = 
REMARK  3 active torsions:
REMARK  status: ('A' for Active; 'I' for Inactive)
REMARK    1  A    between atoms: C_10  and  C_11
REMARK    2  A    between atoms: N_20  and  S_21
REMARK    3  A    between atoms: S_21  and  C_24
REMARK                            x       y       z     vdW  Elec       q    Type
REMARK                         _______ _______ _______ _____ _____    ______ ____
ROOT
ATOM      1  C   UNL     1       7.240  -3.218  25.423  0.00  0.00    +0.000 C 
ATOM      2  O   UNL     1       8.243  -3.778  25.059  0.00  0.00    +0.000 OA
ATOM      3  N   UNL     1       7.272  -1.946  25.867  0.00  0.00    +0.000 N 
ATOM      4  C   UNL     1       8.418  -1.443  26.611  0.00  0.00    +0.000 C 
ATOM      5  C   UNL     1       9.281  -0.590  25.668  0.00  0.00    +0.000 C 
ATOM      6  N   UNL     1       8.638  -0.247  24.503  0.00  0.00    +0.000 NA
ATOM      7  C   UNL     1       7.318   0.176  24.723  0.00  0.00    +0.000 C 
ATOM      8  C   UNL     1       6.417  -0.961  25.230  0.00  0.00    +0.000 C 
ENDROOT
BRANCH   1  15
ATOM      9  C   UNL     1       5.718  -6.302  29.326  0.00  0.00    +0.000 A 
ATOM     10  N   UNL     1       6.967  -6.281  28.486  0.00  0.00    +0.000 NA
ATOM     11  C   UNL     1       6.792  -5.366  27.618  0.00  0.00    +0.000 A 
ATOM     12  C   UNL     1       6.019  -4.064  27.341  0.00  0.00    +0.000 A 
ATOM     13  C   UNL     1       4.812  -4.003  28.227  0.00  0.00    +0.000 A 
ATOM     14  C   UNL     1       5.025  -5.064  29.321  0.00  0.00    +0.000 A 
ATOM     15  C   UNL     1       5.948  -3.980  25.766  0.00  0.00    +0.000 C 
ATOM     16  C   UNL     1       6.235  -5.456  25.380  0.00  0.00    +0.000 C 
ATOM     17  N   UNL     1       7.082  -5.982  26.365  0.00  0.00    +0.000 N 
ATOM     18  H   UNL     1       7.968  -5.695  26.148  0.00  0.00    +0.000 HD
ENDBRANCH   1  15
BRANCH   6  19
ATOM     19  S   UNL     1       8.922  -0.836  23.089  0.00  0.00    +0.000 S 
ATOM     20  O   UNL     1       7.547  -1.523  22.702  0.00  0.00    +0.000 OA
ATOM     21  O   UNL     1       9.879  -1.912  23.116  0.00  0.00    +0.000 OA
BRANCH  19  22
ATOM     22  C   UNL     1       9.117   0.043  21.639  0.00  0.00    +0.000 A 
ATOM     23  C   UNL     1       8.919   1.477  21.985  0.00  0.00    +0.000 A 
ATOM     24  C   UNL     1       7.864   2.412  21.499  0.00  0.00    +0.000 A 
ATOM     25  C   UNL     1       7.056   1.595  20.532  0.00  0.00    +0.000 A 
ATOM     26  C   UNL     1       7.116   0.342  19.859  0.00  0.00    +0.000 A 
ATOM     27  F   UNL     1       7.454   0.726  18.585  0.00  0.00    +0.000 F 
ATOM     28  C   UNL     1       8.362  -0.366  20.446  0.00  0.00    +0.000 A 
ENDBRANCH  19  22
ENDBRANCH   6  19
TORSDOF 3
ENDMDL
