MODEL 1
REMARK VINA RESULT:      -8.6      0.000      0.000
REMARK  Name = 
REMARK  4 active torsions:
REMARK  status: ('A' for Active; 'I' for Inactive)
REMARK    1  A    between atoms: C_9  and  C_10
REMARK    2  A    between atoms: C_16  and  C_18
REMARK    3  A    between atoms: C_18  and  C_21
REMARK    4  A    between atoms: C_30  and  C_32
REMARK                            x       y       z     vdW  Elec       q    Type
REMARK                         _______ _______ _______ _____ _____    ______ ____
ROOT
ATOM      1  C   UNL     1       9.134  -1.113  24.073  0.00  0.00    +0.000 C 
ATOM      2  C   UNL     1       9.511  -2.559  23.850  0.00  0.00    +0.000 C 
ATOM      3  N   UNL     1       8.431  -3.382  24.393  0.00  0.00    +0.000 N 
ATOM      4  C   UNL     1       7.818  -4.266  23.600  0.00  0.00    +0.000 C 
ATOM      5  O   UNL     1       8.205  -5.396  23.457  0.00  0.00    +0.000 OA
ATOM      6  C   UNL     1       8.050  -3.179  25.762  0.00  0.00    +0.000 C 
ATOM      7  C   UNL     1       8.744  -2.020  26.410  0.00  0.00    +0.000 C 
ATOM      8  C   UNL     1       8.979  -0.811  25.536  0.00  0.00    +0.000 C 
ENDROOT
BRANCH   1  14
ATOM      9  C   UNL     1       7.690   2.387  22.272  0.00  0.00    +0.000 C 
ATOM     10  C   UNL     1       8.291   3.218  23.370  0.00  0.00    +0.000 C 
ATOM     11  C   UNL     1       9.684   3.246  23.827  0.00  0.00    +0.000 C 
ATOM     12  C   UNL     1      10.454   2.230  23.054  0.00  0.00    +0.000 C 
ATOM     13  S   UNL     1      10.365   1.162  24.239  0.00  0.00    +0.000 S 
ATOM     14  C   UNL     1      10.178  -0.234  23.417  0.00  0.00    +0.000 C 
ATOM     15  N   UNL     1       9.894   0.285  22.227  0.00  0.00    +0.000 NA
ATOM     16  C   UNL     1       9.995   1.502  21.956  0.00  0.00    +0.000 C 
ATOM     17  C   UNL     1       8.633   1.734  21.407  0.00  0.00    +0.000 C 
ENDBRANCH   1  14
BRANCH   4  18
ATOM     18  C   UNL     1       6.711  -3.671  22.691  0.00  0.00    +0.000 C 
BRANCH  18  19
ATOM     19  C   UNL     1       5.663  -4.694  22.509  0.00  0.00    +0.000 C 
ATOM     20  O   UNL     1       5.788  -5.349  21.428  0.00  0.00    +0.000 OA
ATOM     21  N   UNL     1       4.437  -4.725  23.077  0.00  0.00    +0.000 N 
ATOM     22  C   UNL     1       3.934  -6.123  23.319  0.00  0.00    +0.000 C 
ATOM     23  C   UNL     1       4.828  -6.687  24.414  0.00  0.00    +0.000 C 
ATOM     24  C   UNL     1       5.395  -5.577  25.261  0.00  0.00    +0.000 C 
ATOM     25  C   UNL     1       4.428  -4.431  25.453  0.00  0.00    +0.000 C 
ATOM     26  C   UNL     1       4.052  -3.806  24.126  0.00  0.00    +0.000 C 
BRANCH  24  27
ATOM     27  C   UNL     1       5.678  -6.177  26.638  0.00  0.00    +0.000 C 
ATOM     28  O   UNL     1       6.802  -6.141  27.103  0.00  0.00    +0.000 OA
ATOM     29  N   UNL     1       4.861  -7.226  26.934  0.00  0.00    +0.000 N 
ATOM     30  H   UNL     1       5.006  -7.918  26.289  0.00  0.00    +0.000 HD
ATOM     31  H   UNL     1       4.936  -7.432  27.862  0.00  0.00    +0.000 HD
ENDBRANCH  24  27
ENDBRANCH  18  19
ENDBRANCH   4  18
TORSDOF 4
ENDMDL
MODEL 2
REMARK VINA RESULT:      -8.4      1.593      3.248
REMARK  Name = 
REMARK  4 active torsions:
REMARK  status: ('A' for Active; 'I' for Inactive)
REMARK    1  A    between atoms: C_9  and  C_10
REMARK    2  A    between atoms: C_16  and  C_18
REMARK    3  A    between atoms: C_18  and  C_21
REMARK    4  A    between atoms: C_30  and  C_32
REMARK                            x       y       z     vdW  Elec       q    Type
REMARK                         _______ _______ _______ _____ _____    ______ ____
ROOT
ATOM      1  C   UNL     1       8.791  -1.165  24.093  0.00  0.00    +0.000 C 
ATOM      2  C   UNL     1       9.366  -1.910  25.276  0.00  0.00    +0.000 C 
ATOM      3  N   UNL     1       8.295  -2.733  25.836  0.00  0.00    +0.000 N 
ATOM      4  C   UNL     1       8.476  -4.053  25.952  0.00  0.00    +0.000 C 
ATOM      5  O   UNL     1       8.971  -4.563  26.923  0.00  0.00    +0.000 OA
ATOM      6  C   UNL     1       7.070  -2.087  26.211  0.00  0.00    +0.000 C 
ATOM      7  C   UNL     1       7.018  -0.639  25.830  0.00  0.00    +0.000 C 
ATOM      8  C   UNL     1       7.657  -0.274  24.512  0.00  0.00    +0.000 C 
ENDROOT
BRANCH   1  14
ATOM      9  C   UNL     1       7.651   2.410  22.222  0.00  0.00    +0.000 C 
ATOM     10  C   UNL     1       8.321   3.208  23.305  0.00  0.00    +0.000 C 
ATOM     11  C   UNL     1       9.712   3.125  23.763  0.00  0.00    +0.000 C 
ATOM     12  C   UNL     1      10.392   2.033  23.011  0.00  0.00    +0.000 C 
ATOM     13  S   UNL     1      10.212   0.999  24.217  0.00  0.00    +0.000 S 
ATOM     14  C   UNL     1       9.907  -0.392  23.421  0.00  0.00    +0.000 C 
ATOM     15  N   UNL     1       9.667   0.127  22.221  0.00  0.00    +0.000 NA
ATOM     16  C   UNL     1       9.872   1.325  21.927  0.00  0.00    +0.000 C 
ATOM     17  C   UNL     1       8.535   1.662  21.372  0.00  0.00    +0.000 C 
ENDBRANCH   1  14
BRANCH   4  18
ATOM     18  C   UNL     1       8.224  -4.865  24.655  0.00  0.00    +0.000 C 
BRANCH  18  19
ATOM     19  C   UNL     1       6.783  -5.174  24.576  0.00  0.00    +0.000 C 
ATOM     20  O   UNL     1       6.224  -5.242  25.714  0.00  0.00    +0.000 OA
ATOM     21  N   UNL     1       6.126  -5.779  23.561  0.00  0.00    +0.000 N 
ATOM     22  C   UNL     1       4.705  -5.306  23.412  0.00  0.00    +0.000 C 
ATOM     23  C   UNL     1       4.811  -3.865  22.932  0.00  0.00    +0.000 C 
ATOM     24  C   UNL     1       6.110  -3.642  22.203  0.00  0.00    +0.000 C 
ATOM     25  C   UNL     1       6.546  -4.845  21.397  0.00  0.00    +0.000 C 
ATOM     26  C   UNL     1       6.759  -6.051  22.289  0.00  0.00    +0.000 C 
BRANCH  24  27
ATOM     27  C   UNL     1       5.871  -2.493  21.223  0.00  0.00    +0.000 C 
ATOM     28  O   UNL     1       5.487  -2.722  20.092  0.00  0.00    +0.000 OA
ATOM     29  N   UNL     1       6.686  -1.426  21.455  0.00  0.00    +0.000 N 
ATOM     30  H   UNL     1       7.594  -1.706  21.346  0.00  0.00    +0.000 HD
ATOM     31  H   UNL     1       6.369  -0.675  20.962  0.00  0.00    +0.000 HD
ENDBRANCH  24  27
ENDBRANCH  18  19
ENDBRANCH   4  18
TORSDOF 4
ENDMDL
MODEL 3
REMARK VINA RESULT:      -8.1      2.175      3.467
REMARK  Name = 
REMARK  4 active torsions:
REMARK  status: ('A' for Active; 'I' for Inactive)
REMARK    1  A    between atoms: C_9  and  C_10
REMARK    2  A    between atoms: C_16  and  C_18
REMARK    3  A    between atoms: C_18  and  C_21
REMARK    4  A    between atoms: C_30  and  C_32
REMARK                            x       y       z     vdW  Elec       q    Type
REMARK                         _______ _______ _______ _____ _____    ______ ____
ROOT
ATOM      1  C   UNL     1       8.071  -1.469  24.670  0.00  0.00    +0.000 C 
ATOM      2  C   UNL     1       6.832  -0.645  24.935  0.00  0.00    +0.000 C 
ATOM      3  N   UNL     1       5.682  -1.544  24.846  0.00  0.00    +0.000 N 
ATOM      4  C   UNL     1       4.848  -1.646  25.886  0.00  0.00    +0.000 C 
ATOM      5  O   UNL     1       3.896  -0.925  26.035  0.00  0.00    +0.000 OA
ATOM      6  C   UNL     1       5.515  -2.311  23.644  0.00  0.00    +0.000 C 
ATOM      7  C   UNL     1       6.658  -2.176  22.686  0.00  0.00    +0.000 C 
ATOM      8  C   UNL     1       8.034  -2.081  23.299  0.00  0.00    +0.000 C 
ENDROOT
BRANCH   1  14
ATOM      9  C   UNL     1       8.783   1.356  21.654  0.00  0.00    +0.000 C 
ATOM     10  C   UNL     1       8.353   2.466  22.571  0.00  0.00    +0.000 C 
ATOM     11  C   UNL     1       8.868   2.790  23.906  0.00  0.00    +0.000 C 
ATOM     12  C   UNL     1       9.890   1.771  24.278  0.00  0.00    +0.000 C 
ATOM     13  S   UNL     1       8.847   0.954  25.170  0.00  0.00    +0.000 S 
ATOM     14  C   UNL     1       9.288  -0.588  24.870  0.00  0.00    +0.000 C 
ATOM     15  N   UNL     1      10.068  -0.359  23.818  0.00  0.00    +0.000 NA
ATOM     16  C   UNL     1      10.415   0.782  23.445  0.00  0.00    +0.000 C 
ATOM     17  C   UNL     1      10.007   0.696  22.018  0.00  0.00    +0.000 C 
ENDBRANCH   1  14
BRANCH   4  18
ATOM     18  C   UNL     1       5.323  -2.599  27.014  0.00  0.00    +0.000 C 
BRANCH  18  19
ATOM     19  C   UNL     1       4.876  -3.966  26.682  0.00  0.00    +0.000 C 
ATOM     20  O   UNL     1       3.688  -4.007  26.235  0.00  0.00    +0.000 OA
ATOM     21  N   UNL     1       5.364  -5.130  27.164  0.00  0.00    +0.000 N 
ATOM     22  C   UNL     1       5.278  -6.262  26.176  0.00  0.00    +0.000 C 
ATOM     23  C   UNL     1       6.270  -5.909  25.076  0.00  0.00    +0.000 C 
ATOM     24  C   UNL     1       7.361  -5.018  25.611  0.00  0.00    +0.000 C 
ATOM     25  C   UNL     1       7.745  -5.348  27.035  0.00  0.00    +0.000 C 
ATOM     26  C   UNL     1       6.564  -5.186  27.970  0.00  0.00    +0.000 C 
BRANCH  24  27
ATOM     27  C   UNL     1       8.590  -5.256  24.735  0.00  0.00    +0.000 C 
ATOM     28  O   UNL     1       8.460  -5.537  23.558  0.00  0.00    +0.000 OA
ATOM     29  N   UNL     1       9.646  -5.758  25.433  0.00  0.00    +0.000 N 
ATOM     30  H   UNL     1       9.393  -6.605  25.802  0.00  0.00    +0.000 HD
ATOM     31  H   UNL     1      10.434  -5.700  24.900  0.00  0.00    +0.000 HD
ENDBRANCH  24  27
ENDBRANCH  18  19
ENDBRANCH   4  18
TORSDOF 4
ENDMDL
MODEL 4
REMARK VINA RESULT:      -8.1      2.115      3.145
REMARK  Name = 
REMARK  4 active torsions:
REMARK  status: ('A' for Active; 'I' for Inactive)
REMARK    1  A    between atoms: C_9  and  C_10
REMARK    2  A    between atoms: C_16  and  C_18
REMARK    3  A    between atoms: C_18  and  C_21
REMARK    4  A    between atoms: C_30  and  C_32
REMARK                            x       y       z     vdW  Elec       q    Type
REMARK                         _______ _______ _______ _____ _____    ______ ____
ROOT
ATOM      1  C   UNL     1       7.795  -0.585  24.360  0.00  0.00    +0.000 C 
ATOM      2  C   UNL     1       7.326  -0.217  22.972  0.00  0.00    +0.000 C 
ATOM      3  N   UNL     1       7.502  -1.396  22.124  0.00  0.00    +0.000 N 
ATOM      4  C   UNL     1       6.449  -1.893  21.466  0.00  0.00    +0.000 C 
ATOM      5  O   UNL     1       6.128  -1.520  20.369  0.00  0.00    +0.000 OA
ATOM      6  C   UNL     1       8.805  -1.995  22.061  0.00  0.00    +0.000 C 
ATOM      7  C   UNL     1       9.789  -1.387  23.012  0.00  0.00    +0.000 C 
ATOM      8  C   UNL     1       9.246  -0.974  24.359  0.00  0.00    +0.000 C 
ENDROOT
BRANCH   1  14
ATOM      9  C   UNL     1       8.724   3.210  22.837  0.00  0.00    +0.000 C 
ATOM     10  C   UNL     1       7.262   3.525  22.690  0.00  0.00    +0.000 C 
ATOM     11  C   UNL     1       6.215   3.470  23.715  0.00  0.00    +0.000 C 
ATOM     12  C   UNL     1       6.820   2.968  24.981  0.00  0.00    +0.000 C 
ATOM     13  S   UNL     1       6.280   1.486  24.730  0.00  0.00    +0.000 S 
ATOM     14  C   UNL     1       7.517   0.580  25.288  0.00  0.00    +0.000 C 
ATOM     15  N   UNL     1       8.432   1.541  25.369  0.00  0.00    +0.000 NA
ATOM     16  C   UNL     1       8.178   2.757  25.224  0.00  0.00    +0.000 C 
ATOM     17  C   UNL     1       9.194   3.086  24.189  0.00  0.00    +0.000 C 
ENDBRANCH   1  14
BRANCH   4  18
ATOM     18  C   UNL     1       5.528  -2.813  22.307  0.00  0.00    +0.000 C 
BRANCH  18  19
ATOM     19  C   UNL     1       5.830  -4.215  21.957  0.00  0.00    +0.000 C 
ATOM     20  O   UNL     1       5.918  -4.408  20.705  0.00  0.00    +0.000 OA
ATOM     21  N   UNL     1       5.608  -5.316  22.708  0.00  0.00    +0.000 N 
ATOM     22  C   UNL     1       6.621  -6.405  22.474  0.00  0.00    +0.000 C 
ATOM     23  C   UNL     1       7.926  -5.866  23.044  0.00  0.00    +0.000 C 
ATOM     24  C   UNL     1       7.655  -4.851  24.124  0.00  0.00    +0.000 C 
ATOM     25  C   UNL     1       6.434  -5.183  24.951  0.00  0.00    +0.000 C 
ATOM     26  C   UNL     1       5.188  -5.234  24.090  0.00  0.00    +0.000 C 
BRANCH  24  27
ATOM     27  C   UNL     1       8.864  -4.871  25.058  0.00  0.00    +0.000 C 
ATOM     28  O   UNL     1       9.975  -4.618  24.629  0.00  0.00    +0.000 OA
ATOM     29  N   UNL     1       8.724  -5.757  26.082  0.00  0.00    +0.000 N 
ATOM     30  H   UNL     1       8.636  -6.636  25.715  0.00  0.00    +0.000 HD
ATOM     31  H   UNL     1       9.397  -5.592  26.737  0.00  0.00    +0.000 HD
ENDBRANCH  24  27
ENDBRANCH  18  19
ENDBRANCH   4  18
TORSDOF 4
ENDMDL
MODEL 5
REMARK VINA RESULT:      -8.0      2.817      7.458
REMARK  Name = 
REMARK  4 active torsions:
REMARK  status: ('A' for Active; 'I' for Inactive)
REMARK    1  A    between atoms: C_9  and  C_10
REMARK    2  A    between atoms: C_16  and  C_18
REMARK    3  A    between atoms: C_18  and  C_21
REMARK    4  A    between atoms: C_30  and  C_32
REMARK                            x       y       z     vdW  Elec       q    Type
REMARK                         _______ _______ _______ _____ _____    ______ ____
ROOT
ATOM      1  C   UNL     1       6.503  -2.337  23.882  0.00  0.00    +0.000 C 
ATOM      2  C   UNL     1       7.048  -2.287  25.291  0.00  0.00    +0.000 C 
ATOM      3  N   UNL     1       8.390  -1.710  25.221  0.00  0.00    +0.000 N 
ATOM      4  C   UNL     1       8.673  -0.621  25.942  0.00  0.00    +0.000 C 
ATOM      5  O   UNL     1       9.078  -0.672  27.074  0.00  0.00    +0.000 OA
ATOM      6  C   UNL     1       9.346  -2.327  24.345  0.00  0.00    +0.000 C 
ATOM      7  C   UNL     1       8.766  -3.420  23.502  0.00  0.00    +0.000 C 
ATOM      8  C   UNL     1       7.360  -3.198  22.999  0.00  0.00    +0.000 C 
ENDROOT
BRANCH   1  14
ATOM      9  C   UNL     1       5.879  -5.925  25.961  0.00  0.00    +0.000 C 
ATOM     10  C   UNL     1       5.224  -5.176  27.086  0.00  0.00    +0.000 C 
ATOM     11  C   UNL     1       4.086  -4.252  27.020  0.00  0.00    +0.000 C 
ATOM     12  C   UNL     1       3.687  -4.097  25.593  0.00  0.00    +0.000 C 
ATOM     13  S   UNL     1       4.476  -2.716  25.452  0.00  0.00    +0.000 S 
ATOM     14  C   UNL     1       5.070  -2.823  23.936  0.00  0.00    +0.000 C 
ATOM     15  N   UNL     1       4.845  -4.118  23.738  0.00  0.00    +0.000 NA
ATOM     16  C   UNL     1       4.173  -4.834  24.512  0.00  0.00    +0.000 C 
ATOM     17  C   UNL     1       5.151  -5.933  24.721  0.00  0.00    +0.000 C 
ENDBRANCH   1  14
BRANCH   4  18
ATOM     18  C   UNL     1       8.221   0.720  25.306  0.00  0.00    +0.000 C 
BRANCH  18  19
ATOM     19  C   UNL     1       9.301   1.200  24.423  0.00  0.00    +0.000 C 
ATOM     20  O   UNL     1      10.462   0.988  24.893  0.00  0.00    +0.000 OA
ATOM     21  N   UNL     1       9.219   2.152  23.466  0.00  0.00    +0.000 N 
ATOM     22  C   UNL     1      10.153   1.910  22.311  0.00  0.00    +0.000 C 
ATOM     23  C   UNL     1       9.607   0.675  21.607  0.00  0.00    +0.000 C 
ATOM     24  C   UNL     1       8.128   0.534  21.852  0.00  0.00    +0.000 C 
ATOM     25  C   UNL     1       7.414   1.865  21.921  0.00  0.00    +0.000 C 
ATOM     26  C   UNL     1       7.954   2.717  23.050  0.00  0.00    +0.000 C 
BRANCH  24  27
ATOM     27  C   UNL     1       7.557  -0.235  20.661  0.00  0.00    +0.000 C 
ATOM     28  O   UNL     1       8.008  -0.060  19.545  0.00  0.00    +0.000 OA
ATOM     29  N   UNL     1       6.239  -0.540  20.814  0.00  0.00    +0.000 N 
ATOM     30  H   UNL     1       5.743   0.276  20.887  0.00  0.00    +0.000 HD
ATOM     31  H   UNL     1       5.984  -1.180  20.155  0.00  0.00    +0.000 HD
ENDBRANCH  24  27
ENDBRANCH  18  19
ENDBRANCH   4  18
TORSDOF 4
ENDMDL
MODEL 6
REMARK VINA RESULT:      -8.0      3.219      8.284
REMARK  Name = 
REMARK  4 active torsions:
REMARK  status: ('A' for Active; 'I' for Inactive)
REMARK    1  A    between atoms: C_9  and  C_10
REMARK    2  A    between atoms: C_16  and  C_18
REMARK    3  A    between atoms: C_18  and  C_21
REMARK    4  A    between atoms: C_30  and  C_32
REMARK                            x       y       z     vdW  Elec       q    Type
REMARK                         _______ _______ _______ _____ _____    ______ ____
ROOT
ATOM      1  C   UNL     1       5.393  -4.868  24.029  0.00  0.00    +0.000 C 
ATOM      2  C   UNL     1       6.845  -4.826  24.444  0.00  0.00    +0.000 C 
ATOM      3  N   UNL     1       7.610  -4.305  23.312  0.00  0.00    +0.000 N 
ATOM      4  C   UNL     1       8.373  -3.220  23.480  0.00  0.00    +0.000 C 
ATOM      5  O   UNL     1       9.519  -3.276  23.844  0.00  0.00    +0.000 OA
ATOM      6  C   UNL     1       7.480  -4.969  22.046  0.00  0.00    +0.000 C 
ATOM      7  C   UNL     1       6.440  -6.047  22.041  0.00  0.00    +0.000 C 
ATOM      8  C   UNL     1       5.193  -5.773  22.847  0.00  0.00    +0.000 C 
ENDROOT
BRANCH   1  14
ATOM      9  C   UNL     1       1.467  -6.063  23.170  0.00  0.00    +0.000 C 
ATOM     10  C   UNL     1       1.827  -7.496  23.443  0.00  0.00    +0.000 C 
ATOM     11  C   UNL     1       2.433  -8.063  24.653  0.00  0.00    +0.000 C 
ATOM     12  C   UNL     1       2.721  -6.952  25.602  0.00  0.00    +0.000 C 
ATOM     13  S   UNL     1       4.260  -6.897  25.177  0.00  0.00    +0.000 S 
ATOM     14  C   UNL     1       4.562  -5.294  25.221  0.00  0.00    +0.000 C 
ATOM     15  N   UNL     1       3.304  -4.868  25.285  0.00  0.00    +0.000 NA
ATOM     16  C   UNL     1       2.323  -5.621  25.466  0.00  0.00    +0.000 C 
ATOM     17  C   UNL     1       1.485  -5.194  24.314  0.00  0.00    +0.000 C 
ENDBRANCH   1  14
BRANCH   4  18
ATOM     18  C   UNL     1       7.616  -1.869  23.404  0.00  0.00    +0.000 C 
BRANCH  18  19
ATOM     19  C   UNL     1       7.519  -1.473  21.985  0.00  0.00    +0.000 C 
ATOM     20  O   UNL     1       6.540  -2.013  21.382  0.00  0.00    +0.000 OA
ATOM     21  N   UNL     1       8.508  -0.999  21.195  0.00  0.00    +0.000 N 
ATOM     22  C   UNL     1       8.016  -0.035  20.149  0.00  0.00    +0.000 C 
ATOM     23  C   UNL     1       7.578   1.203  20.919  0.00  0.00    +0.000 C 
ATOM     24  C   UNL     1       8.322   1.307  22.225  0.00  0.00    +0.000 C 
ATOM     25  C   UNL     1       9.750   0.822  22.128  0.00  0.00    +0.000 C 
ATOM     26  C   UNL     1       9.806  -0.636  21.720  0.00  0.00    +0.000 C 
BRANCH  24  27
ATOM     27  C   UNL     1       8.362   2.790  22.590  0.00  0.00    +0.000 C 
ATOM     28  O   UNL     1       7.553   3.562  22.110  0.00  0.00    +0.000 OA
ATOM     29  N   UNL     1       9.618   3.228  22.881  0.00  0.00    +0.000 N 
ATOM     30  H   UNL     1      10.168   3.113  22.106  0.00  0.00    +0.000 HD
ATOM     31  H   UNL     1       9.567   4.087  23.290  0.00  0.00    +0.000 HD
ENDBRANCH  24  27
ENDBRANCH  18  19
ENDBRANCH   4  18
TORSDOF 4
ENDMDL
MODEL 7
REMARK VINA RESULT:      -7.9      2.173      3.119
REMARK  Name = 
REMARK  4 active torsions:
REMARK  status: ('A' for Active; 'I' for Inactive)
REMARK    1  A    between atoms: C_9  and  C_10
REMARK    2  A    between atoms: C_16  and  C_18
REMARK    3  A    between atoms: C_18  and  C_21
REMARK    4  A    between atoms: C_30  and  C_32
REMARK                            x       y       z     vdW  Elec       q    Type
REMARK                         _______ _______ _______ _____ _____    ______ ____
ROOT
ATOM      1  C   UNL     1       7.204  -0.921  24.229  0.00  0.00    +0.000 C 
ATOM      2  C   UNL     1       8.538  -1.604  24.039  0.00  0.00    +0.000 C 
ATOM      3  N   UNL     1       8.682  -2.589  25.110  0.00  0.00    +0.000 N 
ATOM      4  C   UNL     1       8.899  -3.871  24.797  0.00  0.00    +0.000 C 
ATOM      5  O   UNL     1      10.000  -4.327  24.635  0.00  0.00    +0.000 OA
ATOM      6  C   UNL     1       8.550  -2.137  26.466  0.00  0.00    +0.000 C 
ATOM      7  C   UNL     1       8.132  -0.703  26.580  0.00  0.00    +0.000 C 
ATOM      8  C   UNL     1       7.138  -0.216  25.553  0.00  0.00    +0.000 C 
ENDROOT
BRANCH   1  14
ATOM      9  C   UNL     1       9.436   2.628  24.307  0.00  0.00    +0.000 C 
ATOM     10  C   UNL     1      10.299   2.128  23.183  0.00  0.00    +0.000 C 
ATOM     11  C   UNL     1       9.879   1.648  21.862  0.00  0.00    +0.000 C 
ATOM     12  C   UNL     1       8.390   1.664  21.806  0.00  0.00    +0.000 C 
ATOM     13  S   UNL     1       8.295   0.099  22.110  0.00  0.00    +0.000 S 
ATOM     14  C   UNL     1       6.975   0.023  23.067  0.00  0.00    +0.000 C 
ATOM     15  N   UNL     1       6.863   1.321  23.334  0.00  0.00    +0.000 NA
ATOM     16  C   UNL     1       7.530   2.209  22.761  0.00  0.00    +0.000 C 
ATOM     17  C   UNL     1       8.070   2.905  23.958  0.00  0.00    +0.000 C 
ENDBRANCH   1  14
BRANCH   4  18
ATOM     18  C   UNL     1       7.628  -4.677  24.424  0.00  0.00    +0.000 C 
BRANCH  18  19
ATOM     19  C   UNL     1       7.110  -5.317  25.648  0.00  0.00    +0.000 C 
ATOM     20  O   UNL     1       8.021  -5.847  26.358  0.00  0.00    +0.000 OA
ATOM     21  N   UNL     1       5.855  -5.762  25.875  0.00  0.00    +0.000 N 
ATOM     22  C   UNL     1       5.442  -5.656  27.319  0.00  0.00    +0.000 C 
ATOM     23  C   UNL     1       5.325  -4.162  27.592  0.00  0.00    +0.000 C 
ATOM     24  C   UNL     1       5.026  -3.411  26.322  0.00  0.00    +0.000 C 
ATOM     25  C   UNL     1       4.127  -4.181  25.381  0.00  0.00    +0.000 C 
ATOM     26  C   UNL     1       4.765  -5.489  24.964  0.00  0.00    +0.000 C 
BRANCH  24  27
ATOM     27  C   UNL     1       4.286  -2.137  26.728  0.00  0.00    +0.000 C 
ATOM     28  O   UNL     1       3.828  -1.396  25.879  0.00  0.00    +0.000 OA
ATOM     29  N   UNL     1       4.741  -1.616  27.901  0.00  0.00    +0.000 N 
ATOM     30  H   UNL     1       5.664  -1.385  27.796  0.00  0.00    +0.000 HD
ATOM     31  H   UNL     1       4.129  -0.954  28.211  0.00  0.00    +0.000 HD
ENDBRANCH  24  27
ENDBRANCH  18  19
ENDBRANCH   4  18
TORSDOF 4
ENDMDL
MODEL 8
REMARK VINA RESULT:      -7.9      1.801      2.584
REMARK  Name = 
REMARK  4 active torsions:
REMARK  status: ('A' for Active; 'I' for Inactive)
REMARK    1  A    between atoms: C_9  and  C_10
REMARK    2  A    between atoms: C_16  and  C_18
REMARK    3  A    between atoms: C_18  and  C_21
REMARK    4  A    between atoms: C_30  and  C_32
REMARK                            x       y       z     vdW  Elec       q    Type
REMARK                         _______ _______ _______ _____ _____    ______ ____
ROOT
ATOM      1  C   UNL     1       7.449  -2.063  24.791  0.00  0.00    +0.000 C 
ATOM      2  C   UNL     1       7.227  -2.329  23.321  0.00  0.00    +0.000 C 
ATOM      3  N   UNL     1       6.825  -3.728  23.185  0.00  0.00    +0.000 N 
ATOM      4  C   UNL     1       5.669  -4.023  22.581  0.00  0.00    +0.000 C 
ATOM      5  O   UNL     1       5.576  -4.192  21.393  0.00  0.00    +0.000 OA
ATOM      6  C   UNL     1       7.682  -4.735  23.744  0.00  0.00    +0.000 C 
ATOM      7  C   UNL     1       8.828  -4.176  24.529  0.00  0.00    +0.000 C 
ATOM      8  C   UNL     1       8.536  -2.939  25.344  0.00  0.00    +0.000 C 
ENDROOT
BRANCH   1  14
ATOM      9  C   UNL     1      10.193  -0.426  22.076  0.00  0.00    +0.000 C 
ATOM     10  C   UNL     1       9.087   0.321  21.386  0.00  0.00    +0.000 C 
ATOM     11  C   UNL     1       8.116   1.250  21.973  0.00  0.00    +0.000 C 
ATOM     12  C   UNL     1       8.346   1.305  23.445  0.00  0.00    +0.000 C 
ATOM     13  S   UNL     1       7.151   0.287  23.738  0.00  0.00    +0.000 S 
ATOM     14  C   UNL     1       7.754  -0.590  24.974  0.00  0.00    +0.000 C 
ATOM     15  N   UNL     1       9.021  -0.202  24.879  0.00  0.00    +0.000 NA
ATOM     16  C   UNL     1       9.411   0.728  24.139  0.00  0.00    +0.000 C 
ATOM     17  C   UNL     1      10.491   0.012  23.412  0.00  0.00    +0.000 C 
ENDBRANCH   1  14
BRANCH   4  18
ATOM     18  C   UNL     1       4.411  -3.899  23.479  0.00  0.00    +0.000 C 
BRANCH  18  19
ATOM     19  C   UNL     1       4.039  -5.250  23.943  0.00  0.00    +0.000 C 
ATOM     20  O   UNL     1       4.062  -6.119  23.017  0.00  0.00    +0.000 OA
ATOM     21  N   UNL     1       3.311  -5.573  25.034  0.00  0.00    +0.000 N 
ATOM     22  C   UNL     1       3.710  -6.890  25.643  0.00  0.00    +0.000 C 
ATOM     23  C   UNL     1       5.100  -6.659  26.220  0.00  0.00    +0.000 C 
ATOM     24  C   UNL     1       5.300  -5.205  26.557  0.00  0.00    +0.000 C 
ATOM     25  C   UNL     1       4.042  -4.541  27.067  0.00  0.00    +0.000 C 
ATOM     26  C   UNL     1       2.939  -4.590  26.030  0.00  0.00    +0.000 C 
BRANCH  24  27
ATOM     27  C   UNL     1       6.336  -5.154  27.680  0.00  0.00    +0.000 C 
ATOM     28  O   UNL     1       7.385  -5.761  27.574  0.00  0.00    +0.000 OA
ATOM     29  N   UNL     1       5.773  -4.992  28.909  0.00  0.00    +0.000 N 
ATOM     30  H   UNL     1       5.203  -5.740  29.085  0.00  0.00    +0.000 HD
ATOM     31  H   UNL     1       6.452  -4.767  29.540  0.00  0.00    +0.000 HD
ENDBRANCH  24  27
ENDBRANCH  18  19
ENDBRANCH   4  18
TORSDOF 4
ENDMDL
MODEL 9
REMARK VINA RESULT:      -7.8      3.279      7.944
REMARK  Name = 
REMARK  4 active torsions:
REMARK  status: ('A' for Active; 'I' for Inactive)
REMARK    1  A    between atoms: C_9  and  C_10
REMARK    2  A    between atoms: C_16  and  C_18
REMARK    3  A    between atoms: C_18  and  C_21
REMARK    4  A    between atoms: C_30  and  C_32
REMARK                            x       y       z     vdW  Elec       q    Type
REMARK                         _______ _______ _______ _____ _____    ______ ____
ROOT
ATOM      1  C   UNL     1       6.545  -4.812  25.400  0.00  0.00    +0.000 C 
ATOM      2  C   UNL     1       6.170  -3.472  25.988  0.00  0.00    +0.000 C 
ATOM      3  N   UNL     1       7.237  -2.532  25.651  0.00  0.00    +0.000 N 
ATOM      4  C   UNL     1       6.938  -1.411  24.987  0.00  0.00    +0.000 C 
ATOM      5  O   UNL     1       6.619  -0.389  25.537  0.00  0.00    +0.000 OA
ATOM      6  C   UNL     1       8.582  -2.873  26.022  0.00  0.00    +0.000 C 
ATOM      7  C   UNL     1       8.712  -4.251  26.595  0.00  0.00    +0.000 C 
ATOM      8  C   UNL     1       7.838  -5.315  25.974  0.00  0.00    +0.000 C 
ENDROOT
BRANCH   1  14
ATOM      9  C   UNL     1       5.435  -5.376  29.404  0.00  0.00    +0.000 C 
ATOM     10  C   UNL     1       4.171  -4.595  29.179  0.00  0.00    +0.000 C 
ATOM     11  C   UNL     1       3.129  -4.826  28.172  0.00  0.00    +0.000 C 
ATOM     12  C   UNL     1       3.550  -5.967  27.311  0.00  0.00    +0.000 C 
ATOM     13  S   UNL     1       4.073  -4.992  26.159  0.00  0.00    +0.000 S 
ATOM     14  C   UNL     1       5.402  -5.779  25.634  0.00  0.00    +0.000 C 
ATOM     15  N   UNL     1       5.517  -6.645  26.636  0.00  0.00    +0.000 NA
ATOM     16  C   UNL     1       4.648  -6.803  27.521  0.00  0.00    +0.000 C 
ATOM     17  C   UNL     1       5.507  -6.639  28.724  0.00  0.00    +0.000 C 
ENDBRANCH   1  14
BRANCH   4  18
ATOM     18  C   UNL     1       6.797  -1.577  23.452  0.00  0.00    +0.000 C 
BRANCH  18  19
ATOM     19  C   UNL     1       8.025  -1.062  22.816  0.00  0.00    +0.000 C 
ATOM     20  O   UNL     1       9.018  -1.844  22.945  0.00  0.00    +0.000 OA
ATOM     21  N   UNL     1       8.322   0.223  22.521  0.00  0.00    +0.000 N 
ATOM     22  C   UNL     1       9.188   0.364  21.298  0.00  0.00    +0.000 C 
ATOM     23  C   UNL     1       8.303  -0.054  20.132  0.00  0.00    +0.000 C 
ATOM     24  C   UNL     1       6.850   0.165  20.462  0.00  0.00    +0.000 C 
ATOM     25  C   UNL     1       6.618   1.393  21.313  0.00  0.00    +0.000 C 
ATOM     26  C   UNL     1       7.345   1.284  22.637  0.00  0.00    +0.000 C 
BRANCH  24  27
ATOM     27  C   UNL     1       6.126   0.381  19.133  0.00  0.00    +0.000 C 
ATOM     28  O   UNL     1       6.760   0.516  18.104  0.00  0.00    +0.000 OA
ATOM     29  N   UNL     1       4.937   1.028  19.281  0.00  0.00    +0.000 N 
ATOM     30  H   UNL     1       5.104   1.893  19.655  0.00  0.00    +0.000 HD
ATOM     31  H   UNL     1       4.438   0.961  18.471  0.00  0.00    +0.000 HD
ENDBRANCH  24  27
ENDBRANCH  18  19
ENDBRANCH   4  18
TORSDOF 4
ENDMDL
