MODEL 1
REMARK VINA RESULT:      -8.8      0.000      0.000
REMARK  Name = 
REMARK  4 active torsions:
REMARK  status: ('A' for Active; 'I' for Inactive)
REMARK    1  A    between atoms: C_4  and  C_5
REMARK    2  A    between atoms: C_5  and  C_6
REMARK    3  A    between atoms: N_15  and  C_16
REMARK    4  A    between atoms: C_16  and  C_19
REMARK                            x       y       z     vdW  Elec       q    Type
REMARK                         _______ _______ _______ _____ _____    ______ ____
ROOT
ATOM      1  C   UNL     1       9.241   0.552  22.658  0.00  0.00    +0.000 C 
ATOM      2  O   UNL     1      10.111   1.429  22.521  0.00  0.00    +0.000 OA
ATOM      3  N   UNL     1       9.420  -0.393  23.570  0.00  0.00    +0.000 N 
ATOM      4  C   UNL     1      10.125  -1.650  23.267  0.00  0.00    +0.000 C 
ATOM      5  C   UNL     1       9.796  -2.759  24.224  0.00  0.00    +0.000 C 
ATOM      6  N   UNL     1       9.046  -2.535  25.337  0.00  0.00    +0.000 NA
ATOM      7  C   UNL     1       8.447  -1.278  25.508  0.00  0.00    +0.000 C 
ATOM      8  C   UNL     1       9.396  -0.155  25.021  0.00  0.00    +0.000 C 
ENDROOT
BRANCH   1   9
ATOM      9  C   UNL     1       7.915   0.734  21.931  0.00  0.00    +0.000 C 
ATOM     10  C   UNL     1       7.810   2.173  21.434  0.00  0.00    +0.000 C 
ATOM     11  C   UNL     1       7.103   3.004  22.543  0.00  0.00    +0.000 C 
ATOM     12  C   UNL     1       6.781   2.030  23.684  0.00  0.00    +0.000 C 
ATOM     13  C   UNL     1       6.810   0.631  23.030  0.00  0.00    +0.000 C 
BRANCH   9  16
ATOM     14  C   UNL     1       5.917  -1.622  20.402  0.00  0.00    +0.000 A 
ATOM     15  N   UNL     1       7.082  -1.354  21.327  0.00  0.00    +0.000 NA
ATOM     16  C   UNL     1       7.730  -0.297  20.915  0.00  0.00    +0.000 A 
ATOM     17  C   UNL     1       7.880   0.181  19.579  0.00  0.00    +0.000 A 
ATOM     18  C   UNL     1       6.846   0.119  18.591  0.00  0.00    +0.000 A 
ATOM     19  C   UNL     1       5.783  -0.625  19.398  0.00  0.00    +0.000 A 
ENDBRANCH   9  16
ENDBRANCH   1   9
BRANCH   6  20
ATOM     20  C   UNL     1       8.303  -3.578  25.884  0.00  0.00    +0.000 C 
BRANCH  20  21
ATOM     21  C   UNL     1       7.519  -4.497  25.214  0.00  0.00    +0.000 A 
ATOM     22  C   UNL     1       6.877  -5.368  26.351  0.00  0.00    +0.000 A 
ATOM     23  C   UNL     1       5.563  -6.119  26.110  0.00  0.00    +0.000 A 
ATOM     24  C   UNL     1       5.180  -6.019  24.688  0.00  0.00    +0.000 A 
ATOM     25  C   UNL     1       5.372  -4.965  23.910  0.00  0.00    +0.000 A 
ATOM     26  C   UNL     1       5.283  -5.172  22.548  0.00  0.00    +0.000 A 
ATOM     27  C   UNL     1       5.643  -6.007  21.441  0.00  0.00    +0.000 A 
ATOM     28  C   UNL     1       7.081  -6.138  21.954  0.00  0.00    +0.000 A 
ATOM     29  C   UNL     1       7.682  -5.581  22.970  0.00  0.00    +0.000 A 
ATOM     30  C   UNL     1       6.971  -4.746  23.960  0.00  0.00    +0.000 A 
ENDBRANCH  20  21
ENDBRANCH   6  20
TORSDOF 4
ENDMDL
MODEL 2
REMARK VINA RESULT:      -8.4      1.005      2.781
REMARK  Name = 
REMARK  4 active torsions:
REMARK  status: ('A' for Active; 'I' for Inactive)
REMARK    1  A    between atoms: C_4  and  C_5
REMARK    2  A    between atoms: C_5  and  C_6
REMARK    3  A    between atoms: N_15  and  C_16
REMARK    4  A    between atoms: C_16  and  C_19
REMARK                            x       y       z     vdW  Elec       q    Type
REMARK                         _______ _______ _______ _____ _____    ______ ____
ROOT
ATOM      1  C   UNL     1       9.124   0.791  22.667  0.00  0.00    +0.000 C 
ATOM      2  O   UNL     1       9.942   1.696  22.432  0.00  0.00    +0.000 OA
ATOM      3  N   UNL     1       9.490  -0.219  23.445  0.00  0.00    +0.000 N 
ATOM      4  C   UNL     1      10.128  -1.431  22.906  0.00  0.00    +0.000 C 
ATOM      5  C   UNL     1      10.007  -2.620  23.815  0.00  0.00    +0.000 C 
ATOM      6  N   UNL     1       9.494  -2.502  25.069  0.00  0.00    +0.000 NA
ATOM      7  C   UNL     1       8.932  -1.277  25.459  0.00  0.00    +0.000 C 
ATOM      8  C   UNL     1       9.755  -0.097  24.886  0.00  0.00    +0.000 C 
ENDROOT
BRANCH   1   9
ATOM      9  C   UNL     1       7.678   0.998  22.237  0.00  0.00    +0.000 C 
ATOM     10  C   UNL     1       6.924  -0.322  22.361  0.00  0.00    +0.000 C 
ATOM     11  C   UNL     1       7.031  -1.057  20.994  0.00  0.00    +0.000 C 
ATOM     12  C   UNL     1       7.840  -0.141  20.065  0.00  0.00    +0.000 C 
ATOM     13  C   UNL     1       7.726   1.264  20.698  0.00  0.00    +0.000 C 
BRANCH   9  16
ATOM     14  C   UNL     1       7.827   3.389  24.715  0.00  0.00    +0.000 A 
ATOM     15  N   UNL     1       7.209   2.096  24.235  0.00  0.00    +0.000 NA
ATOM     16  C   UNL     1       7.081   2.132  22.936  0.00  0.00    +0.000 A 
ATOM     17  C   UNL     1       6.861   3.268  22.101  0.00  0.00    +0.000 A 
ATOM     18  C   UNL     1       7.455   4.551  22.331  0.00  0.00    +0.000 A 
ATOM     19  C   UNL     1       8.180   4.251  23.642  0.00  0.00    +0.000 A 
ENDBRANCH   9  16
ENDBRANCH   1   9
BRANCH   6  20
ATOM     20  C   UNL     1       8.884  -3.602  25.667  0.00  0.00    +0.000 C 
BRANCH  20  21
ATOM     21  C   UNL     1       7.957  -4.459  25.106  0.00  0.00    +0.000 A 
ATOM     22  C   UNL     1       7.350  -5.233  26.329  0.00  0.00    +0.000 A 
ATOM     23  C   UNL     1       5.955  -5.862  26.239  0.00  0.00    +0.000 A 
ATOM     24  C   UNL     1       5.449  -5.765  24.856  0.00  0.00    +0.000 A 
ATOM     25  C   UNL     1       5.661  -4.757  24.026  0.00  0.00    +0.000 A 
ATOM     26  C   UNL     1       5.424  -4.991  22.686  0.00  0.00    +0.000 A 
ATOM     27  C   UNL     1       5.597  -5.887  21.581  0.00  0.00    +0.000 A 
ATOM     28  C   UNL     1       7.059  -6.140  21.963  0.00  0.00    +0.000 A 
ATOM     29  C   UNL     1       7.804  -5.615  22.897  0.00  0.00    +0.000 A 
ATOM     30  C   UNL     1       7.271  -4.690  23.918  0.00  0.00    +0.000 A 
ENDBRANCH  20  21
ENDBRANCH   6  20
TORSDOF 4
ENDMDL
MODEL 3
REMARK VINA RESULT:      -8.4      2.317      6.201
REMARK  Name = 
REMARK  4 active torsions:
REMARK  status: ('A' for Active; 'I' for Inactive)
REMARK    1  A    between atoms: C_4  and  C_5
REMARK    2  A    between atoms: C_5  and  C_6
REMARK    3  A    between atoms: N_15  and  C_16
REMARK    4  A    between atoms: C_16  and  C_19
REMARK                            x       y       z     vdW  Elec       q    Type
REMARK                         _______ _______ _______ _____ _____    ______ ____
ROOT
ATOM      1  C   UNL     1       7.395  -4.232  26.388  0.00  0.00    +0.000 C 
ATOM      2  O   UNL     1       7.784  -5.064  27.225  0.00  0.00    +0.000 OA
ATOM      3  N   UNL     1       8.271  -3.375  25.879  0.00  0.00    +0.000 N 
ATOM      4  C   UNL     1       8.549  -2.074  26.508  0.00  0.00    +0.000 C 
ATOM      5  C   UNL     1       9.151  -1.074  25.563  0.00  0.00    +0.000 C 
ATOM      6  N   UNL     1       9.532  -1.430  24.306  0.00  0.00    +0.000 NA
ATOM      7  C   UNL     1       9.218  -2.715  23.841  0.00  0.00    +0.000 C 
ATOM      8  C   UNL     1       9.369  -3.755  24.978  0.00  0.00    +0.000 C 
ENDROOT
BRANCH   1   9
ATOM      9  C   UNL     1       5.989  -4.382  25.823  0.00  0.00    +0.000 C 
ATOM     10  C   UNL     1       5.569  -3.069  25.168  0.00  0.00    +0.000 C 
ATOM     11  C   UNL     1       4.844  -2.214  26.247  0.00  0.00    +0.000 C 
ATOM     12  C   UNL     1       4.830  -3.052  27.534  0.00  0.00    +0.000 C 
ATOM     13  C   UNL     1       5.045  -4.507  27.061  0.00  0.00    +0.000 C 
BRANCH   9  16
ATOM     14  C   UNL     1       4.082  -6.865  24.381  0.00  0.00    +0.000 A 
ATOM     15  N   UNL     1       5.097  -6.498  25.439  0.00  0.00    +0.000 NA
ATOM     16  C   UNL     1       5.888  -5.567  24.977  0.00  0.00    +0.000 A 
ATOM     17  C   UNL     1       6.295  -5.343  23.628  0.00  0.00    +0.000 A 
ATOM     18  C   UNL     1       5.436  -5.526  22.497  0.00  0.00    +0.000 A 
ATOM     19  C   UNL     1       4.197  -6.058  23.217  0.00  0.00    +0.000 A 
ENDBRANCH   9  16
ENDBRANCH   1   9
BRANCH   6  20
ATOM     20  C   UNL     1       9.552  -0.469  23.298  0.00  0.00    +0.000 C 
BRANCH  20  21
ATOM     21  C   UNL     1       8.512  -0.095  22.469  0.00  0.00    +0.000 A 
ATOM     22  C   UNL     1       8.062   1.307  23.013  0.00  0.00    +0.000 A 
ATOM     23  C   UNL     1       7.339   2.302  22.100  0.00  0.00    +0.000 A 
ATOM     24  C   UNL     1       7.018   1.659  20.811  0.00  0.00    +0.000 A 
ATOM     25  C   UNL     1       7.772   0.772  20.183  0.00  0.00    +0.000 A 
ATOM     26  C   UNL     1       7.164   0.024  19.194  0.00  0.00    +0.000 A 
ATOM     27  C   UNL     1       6.014  -0.740  18.812  0.00  0.00    +0.000 A 
ATOM     28  C   UNL     1       5.976  -1.441  20.174  0.00  0.00    +0.000 A 
ATOM     29  C   UNL     1       6.787  -1.375  21.194  0.00  0.00    +0.000 A 
ATOM     30  C   UNL     1       7.918  -0.426  21.256  0.00  0.00    +0.000 A 
ENDBRANCH  20  21
ENDBRANCH   6  20
TORSDOF 4
ENDMDL
MODEL 4
REMARK VINA RESULT:      -8.2      2.251      6.405
REMARK  Name = 
REMARK  4 active torsions:
REMARK  status: ('A' for Active; 'I' for Inactive)
REMARK    1  A    between atoms: C_4  and  C_5
REMARK    2  A    between atoms: C_5  and  C_6
REMARK    3  A    between atoms: N_15  and  C_16
REMARK    4  A    between atoms: C_16  and  C_19
REMARK                            x       y       z     vdW  Elec       q    Type
REMARK                         _______ _______ _______ _____ _____    ______ ____
ROOT
ATOM      1  C   UNL     1       7.492  -3.715  26.106  0.00  0.00    +0.000 C 
ATOM      2  O   UNL     1       7.728  -4.503  27.037  0.00  0.00    +0.000 OA
ATOM      3  N   UNL     1       8.467  -2.932  25.664  0.00  0.00    +0.000 N 
ATOM      4  C   UNL     1       8.729  -1.604  26.243  0.00  0.00    +0.000 C 
ATOM      5  C   UNL     1       9.495  -0.697  25.324  0.00  0.00    +0.000 C 
ATOM      6  N   UNL     1      10.015  -1.153  24.152  0.00  0.00    +0.000 NA
ATOM      7  C   UNL     1       9.698  -2.452  23.730  0.00  0.00    +0.000 C 
ATOM      8  C   UNL     1       9.651  -3.418  24.939  0.00  0.00    +0.000 C 
ENDROOT
BRANCH   1   9
ATOM      9  C   UNL     1       6.163  -3.843  25.373  0.00  0.00    +0.000 C 
ATOM     10  C   UNL     1       5.998  -2.660  24.424  0.00  0.00    +0.000 C 
ATOM     11  C   UNL     1       5.251  -1.536  25.196  0.00  0.00    +0.000 C 
ATOM     12  C   UNL     1       4.966  -2.083  26.602  0.00  0.00    +0.000 C 
ATOM     13  C   UNL     1       5.058  -3.618  26.454  0.00  0.00    +0.000 C 
BRANCH   9  16
ATOM     14  C   UNL     1       4.193  -6.267  23.917  0.00  0.00    +0.000 A 
ATOM     15  N   UNL     1       4.966  -5.826  25.139  0.00  0.00    +0.000 NA
ATOM     16  C   UNL     1       6.027  -5.163  24.765  0.00  0.00    +0.000 A 
ATOM     17  C   UNL     1       6.796  -5.325  23.574  0.00  0.00    +0.000 A 
ATOM     18  C   UNL     1       6.228  -5.632  22.296  0.00  0.00    +0.000 A 
ATOM     19  C   UNL     1       4.765  -5.782  22.710  0.00  0.00    +0.000 A 
ENDBRANCH   9  16
ENDBRANCH   1   9
BRANCH   6  20
ATOM     20  C   UNL     1      10.211  -0.264  23.097  0.00  0.00    +0.000 C 
BRANCH  20  21
ATOM     21  C   UNL     1       9.261   0.509  22.458  0.00  0.00    +0.000 A 
ATOM     22  C   UNL     1       9.145  -0.119  21.025  0.00  0.00    +0.000 A 
ATOM     23  C   UNL     1       7.869   0.061  20.195  0.00  0.00    +0.000 A 
ATOM     24  C   UNL     1       6.959   1.005  20.872  0.00  0.00    +0.000 A 
ATOM     25  C   UNL     1       6.794   1.112  22.181  0.00  0.00    +0.000 A 
ATOM     26  C   UNL     1       6.188   2.266  22.641  0.00  0.00    +0.000 A 
ATOM     27  C   UNL     1       6.118   3.694  22.552  0.00  0.00    +0.000 A 
ATOM     28  C   UNL     1       7.645   3.809  22.536  0.00  0.00    +0.000 A 
ATOM     29  C   UNL     1       8.575   2.902  22.660  0.00  0.00    +0.000 A 
ATOM     30  C   UNL     1       8.277   1.456  22.721  0.00  0.00    +0.000 A 
ENDBRANCH  20  21
ENDBRANCH   6  20
TORSDOF 4
ENDMDL
MODEL 5
REMARK VINA RESULT:      -7.9      1.578      2.429
REMARK  Name = 
REMARK  4 active torsions:
REMARK  status: ('A' for Active; 'I' for Inactive)
REMARK    1  A    between atoms: C_4  and  C_5
REMARK    2  A    between atoms: C_5  and  C_6
REMARK    3  A    between atoms: N_15  and  C_16
REMARK    4  A    between atoms: C_16  and  C_19
REMARK                            x       y       z     vdW  Elec       q    Type
REMARK                         _______ _______ _______ _____ _____    ______ ____
ROOT
ATOM      1  C   UNL     1       7.500   0.729  23.318  0.00  0.00    +0.000 C 
ATOM      2  O   UNL     1       7.482   1.969  23.389  0.00  0.00    +0.000 OA
ATOM      3  N   UNL     1       7.131   0.019  24.375  0.00  0.00    +0.000 N 
ATOM      4  C   UNL     1       8.086  -0.388  25.418  0.00  0.00    +0.000 C 
ATOM      5  C   UNL     1       7.615  -1.562  26.228  0.00  0.00    +0.000 C 
ATOM      6  N   UNL     1       6.359  -2.063  26.084  0.00  0.00    +0.000 NA
ATOM      7  C   UNL     1       5.545  -1.566  25.055  0.00  0.00    +0.000 C 
ATOM      8  C   UNL     1       5.754  -0.040  24.888  0.00  0.00    +0.000 C 
ENDROOT
BRANCH   1   9
ATOM      9  C   UNL     1       7.731   0.090  21.954  0.00  0.00    +0.000 C 
ATOM     10  C   UNL     1       8.345  -1.293  22.147  0.00  0.00    +0.000 C 
ATOM     11  C   UNL     1       9.892  -1.130  22.125  0.00  0.00    +0.000 C 
ATOM     12  C   UNL     1      10.173   0.362  21.899  0.00  0.00    +0.000 C 
ATOM     13  C   UNL     1       8.871   0.920  21.283  0.00  0.00    +0.000 C 
BRANCH   9  16
ATOM     14  C   UNL     1       6.072   1.131  19.118  0.00  0.00    +0.000 A 
ATOM     15  N   UNL     1       6.264   1.296  20.608  0.00  0.00    +0.000 NA
ATOM     16  C   UNL     1       6.517   0.133  21.145  0.00  0.00    +0.000 A 
ATOM     17  C   UNL     1       6.068  -1.153  20.719  0.00  0.00    +0.000 A 
ATOM     18  C   UNL     1       5.932  -1.534  19.345  0.00  0.00    +0.000 A 
ATOM     19  C   UNL     1       6.299  -0.204  18.688  0.00  0.00    +0.000 A 
ENDBRANCH   9  16
ENDBRANCH   1   9
BRANCH   6  20
ATOM     20  C   UNL     1       6.116  -3.402  26.379  0.00  0.00    +0.000 C 
BRANCH  20  21
ATOM     21  C   UNL     1       6.035  -4.459  25.493  0.00  0.00    +0.000 A 
ATOM     22  C   UNL     1       5.414  -5.629  26.335  0.00  0.00    +0.000 A 
ATOM     23  C   UNL     1       4.663  -6.773  25.646  0.00  0.00    +0.000 A 
ATOM     24  C   UNL     1       4.804  -6.656  24.182  0.00  0.00    +0.000 A 
ATOM     25  C   UNL     1       4.843  -5.523  23.499  0.00  0.00    +0.000 A 
ATOM     26  C   UNL     1       5.331  -5.588  22.209  0.00  0.00    +0.000 A 
ATOM     27  C   UNL     1       6.350  -6.102  21.342  0.00  0.00    +0.000 A 
ATOM     28  C   UNL     1       7.444  -5.759  22.358  0.00  0.00    +0.000 A 
ATOM     29  C   UNL     1       7.385  -5.142  23.506  0.00  0.00    +0.000 A 
ATOM     30  C   UNL     1       6.108  -4.744  24.134  0.00  0.00    +0.000 A 
ENDBRANCH  20  21
ENDBRANCH   6  20
TORSDOF 4
ENDMDL
MODEL 6
REMARK VINA RESULT:      -7.8      2.355      7.037
REMARK  Name = 
REMARK  4 active torsions:
REMARK  status: ('A' for Active; 'I' for Inactive)
REMARK    1  A    between atoms: C_4  and  C_5
REMARK    2  A    between atoms: C_5  and  C_6
REMARK    3  A    between atoms: N_15  and  C_16
REMARK    4  A    between atoms: C_16  and  C_19
REMARK                            x       y       z     vdW  Elec       q    Type
REMARK                         _______ _______ _______ _____ _____    ______ ____
ROOT
ATOM      1  C   UNL     1       9.029  -3.131  24.217  0.00  0.00    +0.000 C 
ATOM      2  O   UNL     1       9.705  -4.109  24.579  0.00  0.00    +0.000 OA
ATOM      3  N   UNL     1       9.652  -2.025  23.834  0.00  0.00    +0.000 N 
ATOM      4  C   UNL     1      10.016  -0.963  24.784  0.00  0.00    +0.000 C 
ATOM      5  C   UNL     1      10.239   0.370  24.128  0.00  0.00    +0.000 C 
ATOM      6  N   UNL     1      10.251   0.498  22.774  0.00  0.00    +0.000 NA
ATOM      7  C   UNL     1       9.900  -0.608  21.986  0.00  0.00    +0.000 C 
ATOM      8  C   UNL     1      10.454  -1.914  22.606  0.00  0.00    +0.000 C 
ENDROOT
BRANCH   1   9
ATOM      9  C   UNL     1       7.531  -3.326  24.017  0.00  0.00    +0.000 C 
ATOM     10  C   UNL     1       6.996  -2.213  23.121  0.00  0.00    +0.000 C 
ATOM     11  C   UNL     1       6.534  -1.048  24.041  0.00  0.00    +0.000 C 
ATOM     12  C   UNL     1       6.788  -1.501  25.486  0.00  0.00    +0.000 C 
ATOM     13  C   UNL     1       6.877  -3.041  25.407  0.00  0.00    +0.000 C 
BRANCH   9  16
ATOM     14  C   UNL     1       5.305  -5.937  23.692  0.00  0.00    +0.000 A 
ATOM     15  N   UNL     1       6.510  -5.381  24.413  0.00  0.00    +0.000 NA
ATOM     16  C   UNL     1       7.234  -4.686  23.577  0.00  0.00    +0.000 A 
ATOM     17  C   UNL     1       7.392  -4.880  22.172  0.00  0.00    +0.000 A 
ATOM     18  C   UNL     1       6.332  -5.294  21.303  0.00  0.00    +0.000 A 
ATOM     19  C   UNL     1       5.230  -5.496  22.342  0.00  0.00    +0.000 A 
ENDBRANCH   9  16
ENDBRANCH   1   9
BRANCH   6  20
ATOM     20  C   UNL     1       9.904   1.718  22.198  0.00  0.00    +0.000 C 
BRANCH  20  21
ATOM     21  C   UNL     1       9.140   2.725  22.754  0.00  0.00    +0.000 A 
ATOM     22  C   UNL     1       7.788   2.676  21.959  0.00  0.00    +0.000 A 
ATOM     23  C   UNL     1       6.498   3.223  22.580  0.00  0.00    +0.000 A 
ATOM     24  C   UNL     1       6.802   3.903  23.853  0.00  0.00    +0.000 A 
ATOM     25  C   UNL     1       7.727   3.532  24.724  0.00  0.00    +0.000 A 
ATOM     26  C   UNL     1       8.111   4.469  25.663  0.00  0.00    +0.000 A 
ATOM     27  C   UNL     1       8.481   5.831  25.909  0.00  0.00    +0.000 A 
ATOM     28  C   UNL     1       9.377   5.855  24.667  0.00  0.00    +0.000 A 
ATOM     29  C   UNL     1       9.698   4.913  23.823  0.00  0.00    +0.000 A 
ATOM     30  C   UNL     1       9.092   3.566  23.862  0.00  0.00    +0.000 A 
ENDBRANCH  20  21
ENDBRANCH   6  20
TORSDOF 4
ENDMDL
MODEL 7
REMARK VINA RESULT:      -7.7      2.031      3.275
REMARK  Name = 
REMARK  4 active torsions:
REMARK  status: ('A' for Active; 'I' for Inactive)
REMARK    1  A    between atoms: C_4  and  C_5
REMARK    2  A    between atoms: C_5  and  C_6
REMARK    3  A    between atoms: N_15  and  C_16
REMARK    4  A    between atoms: C_16  and  C_19
REMARK                            x       y       z     vdW  Elec       q    Type
REMARK                         _______ _______ _______ _____ _____    ______ ____
ROOT
ATOM      1  C   UNL     1       9.398  -1.755  22.872  0.00  0.00    +0.000 C 
ATOM      2  O   UNL     1      10.462  -1.877  22.242  0.00  0.00    +0.000 OA
ATOM      3  N   UNL     1       8.846  -2.831  23.416  0.00  0.00    +0.000 N 
ATOM      4  C   UNL     1       7.892  -3.678  22.682  0.00  0.00    +0.000 C 
ATOM      5  C   UNL     1       7.023  -4.509  23.580  0.00  0.00    +0.000 C 
ATOM      6  N   UNL     1       7.239  -4.562  24.922  0.00  0.00    +0.000 NA
ATOM      7  C   UNL     1       8.197  -3.708  25.489  0.00  0.00    +0.000 C 
ATOM      8  C   UNL     1       9.421  -3.569  24.550  0.00  0.00    +0.000 C 
ENDROOT
BRANCH   1   9
ATOM      9  C   UNL     1       8.901  -0.348  23.177  0.00  0.00    +0.000 C 
ATOM     10  C   UNL     1      10.008   0.654  22.866  0.00  0.00    +0.000 C 
ATOM     11  C   UNL     1      10.835   0.864  24.167  0.00  0.00    +0.000 C 
ATOM     12  C   UNL     1      10.184  -0.013  25.246  0.00  0.00    +0.000 C 
ATOM     13  C   UNL     1       8.752  -0.278  24.731  0.00  0.00    +0.000 C 
BRANCH   9  16
ATOM     14  C   UNL     1       6.364   1.828  22.334  0.00  0.00    +0.000 A 
ATOM     15  N   UNL     1       6.810   0.675  23.204  0.00  0.00    +0.000 NA
ATOM     16  C   UNL     1       7.620  -0.093  22.526  0.00  0.00    +0.000 A 
ATOM     17  C   UNL     1       7.634  -0.340  21.121  0.00  0.00    +0.000 A 
ATOM     18  C   UNL     1       7.350   0.660  20.135  0.00  0.00    +0.000 A 
ATOM     19  C   UNL     1       6.997   1.822  21.062  0.00  0.00    +0.000 A 
ENDBRANCH   9  16
ENDBRANCH   1   9
BRANCH   6  20
ATOM     20  C   UNL     1       6.176  -4.842  25.778  0.00  0.00    +0.000 C 
BRANCH  20  21
ATOM     21  C   UNL     1       4.869  -5.128  25.433  0.00  0.00    +0.000 A 
ATOM     22  C   UNL     1       4.056  -3.871  25.903  0.00  0.00    +0.000 A 
ATOM     23  C   UNL     1       2.711  -3.525  25.254  0.00  0.00    +0.000 A 
ATOM     24  C   UNL     1       2.301  -4.608  24.340  0.00  0.00    +0.000 A 
ATOM     25  C   UNL     1       3.114  -5.330  23.586  0.00  0.00    +0.000 A 
ATOM     26  C   UNL     1       2.610  -6.512  23.079  0.00  0.00    +0.000 A 
ATOM     27  C   UNL     1       1.861  -7.703  23.347  0.00  0.00    +0.000 A 
ATOM     28  C   UNL     1       2.589  -7.910  24.679  0.00  0.00    +0.000 A 
ATOM     29  C   UNL     1       3.573  -7.253  25.229  0.00  0.00    +0.000 A 
ATOM     30  C   UNL     1       4.119  -6.005  24.657  0.00  0.00    +0.000 A 
ENDBRANCH  20  21
ENDBRANCH   6  20
TORSDOF 4
ENDMDL
MODEL 8
REMARK VINA RESULT:      -7.7      1.533      4.160
REMARK  Name = 
REMARK  4 active torsions:
REMARK  status: ('A' for Active; 'I' for Inactive)
REMARK    1  A    between atoms: C_4  and  C_5
REMARK    2  A    between atoms: C_5  and  C_6
REMARK    3  A    between atoms: N_15  and  C_16
REMARK    4  A    between atoms: C_16  and  C_19
REMARK                            x       y       z     vdW  Elec       q    Type
REMARK                         _______ _______ _______ _____ _____    ______ ____
ROOT
ATOM      1  C   UNL     1       8.852   1.676  22.064  0.00  0.00    +0.000 C 
ATOM      2  O   UNL     1       9.952   2.100  21.671  0.00  0.00    +0.000 OA
ATOM      3  N   UNL     1       8.351   0.580  21.511  0.00  0.00    +0.000 N 
ATOM      4  C   UNL     1       7.498   0.627  20.313  0.00  0.00    +0.000 C 
ATOM      5  C   UNL     1       6.646  -0.598  20.143  0.00  0.00    +0.000 C 
ATOM      6  N   UNL     1       6.799  -1.684  20.948  0.00  0.00    +0.000 NA
ATOM      7  C   UNL     1       7.665  -1.594  22.048  0.00  0.00    +0.000 C 
ATOM      8  C   UNL     1       8.921  -0.765  21.684  0.00  0.00    +0.000 C 
ENDROOT
BRANCH   1   9
ATOM      9  C   UNL     1       8.242   2.305  23.310  0.00  0.00    +0.000 C 
ATOM     10  C   UNL     1       6.723   2.183  23.240  0.00  0.00    +0.000 C 
ATOM     11  C   UNL     1       6.177   3.466  22.551  0.00  0.00    +0.000 C 
ATOM     12  C   UNL     1       7.395   4.347  22.236  0.00  0.00    +0.000 C 
ATOM     13  C   UNL     1       8.505   3.840  23.183  0.00  0.00    +0.000 C 
BRANCH   9  16
ATOM     14  C   UNL     1       8.757  -0.307  25.499  0.00  0.00    +0.000 A 
ATOM     15  N   UNL     1       8.079   1.019  25.244  0.00  0.00    +0.000 NA
ATOM     16  C   UNL     1       8.861   1.775  24.521  0.00  0.00    +0.000 A 
ATOM     17  C   UNL     1      10.287   1.796  24.490  0.00  0.00    +0.000 A 
ATOM     18  C   UNL     1      11.103   0.624  24.601  0.00  0.00    +0.000 A 
ATOM     19  C   UNL     1      10.005  -0.415  24.827  0.00  0.00    +0.000 A 
ENDBRANCH   9  16
ENDBRANCH   1   9
BRANCH   6  20
ATOM     20  C   UNL     1       5.718  -2.533  21.166  0.00  0.00    +0.000 C 
BRANCH  20  21
ATOM     21  C   UNL     1       5.668  -3.640  21.993  0.00  0.00    +0.000 A 
ATOM     22  C   UNL     1       6.236  -4.810  21.115  0.00  0.00    +0.000 A 
ATOM     23  C   UNL     1       6.855  -6.048  21.773  0.00  0.00    +0.000 A 
ATOM     24  C   UNL     1       6.648  -5.998  23.232  0.00  0.00    +0.000 A 
ATOM     25  C   UNL     1       6.664  -4.904  23.977  0.00  0.00    +0.000 A 
ATOM     26  C   UNL     1       6.106  -4.998  25.237  0.00  0.00    +0.000 A 
ATOM     27  C   UNL     1       5.005  -5.471  26.023  0.00  0.00    +0.000 A 
ATOM     28  C   UNL     1       3.997  -4.984  24.977  0.00  0.00    +0.000 A 
ATOM     29  C   UNL     1       4.166  -4.314  23.870  0.00  0.00    +0.000 A 
ATOM     30  C   UNL     1       5.501  -3.990  23.328  0.00  0.00    +0.000 A 
ENDBRANCH  20  21
ENDBRANCH   6  20
TORSDOF 4
ENDMDL
MODEL 9
REMARK VINA RESULT:      -7.7      2.588      7.199
REMARK  Name = 
REMARK  4 active torsions:
REMARK  status: ('A' for Active; 'I' for Inactive)
REMARK    1  A    between atoms: C_4  and  C_5
REMARK    2  A    between atoms: C_5  and  C_6
REMARK    3  A    between atoms: N_15  and  C_16
REMARK    4  A    between atoms: C_16  and  C_19
REMARK                            x       y       z     vdW  Elec       q    Type
REMARK                         _______ _______ _______ _____ _____    ______ ____
ROOT
ATOM      1  C   UNL     1       8.049  -2.726  23.802  0.00  0.00    +0.000 C 
ATOM      2  O   UNL     1       8.353  -3.931  23.757  0.00  0.00    +0.000 OA
ATOM      3  N   UNL     1       8.919  -1.827  23.363  0.00  0.00    +0.000 N 
ATOM      4  C   UNL     1       9.939  -1.231  24.242  0.00  0.00    +0.000 C 
ATOM      5  C   UNL     1      10.472   0.076  23.730  0.00  0.00    +0.000 C 
ATOM      6  N   UNL     1      10.136   0.543  22.497  0.00  0.00    +0.000 NA
ATOM      7  C   UNL     1       9.159  -0.139  21.757  0.00  0.00    +0.000 C 
ATOM      8  C   UNL     1       9.301  -1.669  21.952  0.00  0.00    +0.000 C 
ENDROOT
BRANCH   1   9
ATOM      9  C   UNL     1       6.612  -2.359  24.148  0.00  0.00    +0.000 C 
ATOM     10  C   UNL     1       6.514  -0.849  24.343  0.00  0.00    +0.000 C 
ATOM     11  C   UNL     1       6.757  -0.551  25.850  0.00  0.00    +0.000 C 
ATOM     12  C   UNL     1       6.979  -1.907  26.535  0.00  0.00    +0.000 C 
ATOM     13  C   UNL     1       6.356  -2.943  25.574  0.00  0.00    +0.000 C 
BRANCH   9  16
ATOM     14  C   UNL     1       6.017  -3.869  21.107  0.00  0.00    +0.000 A 
ATOM     15  N   UNL     1       5.920  -2.611  21.940  0.00  0.00    +0.000 NA
ATOM     16  C   UNL     1       5.678  -2.931  23.182  0.00  0.00    +0.000 A 
ATOM     17  C   UNL     1       4.959  -4.058  23.681  0.00  0.00    +0.000 A 
ATOM     18  C   UNL     1       5.016  -5.362  23.092  0.00  0.00    +0.000 A 
ATOM     19  C   UNL     1       5.909  -5.048  21.893  0.00  0.00    +0.000 A 
ENDBRANCH   9  16
ENDBRANCH   1   9
BRANCH   6  20
ATOM     20  C   UNL     1      10.152   1.915  22.255  0.00  0.00    +0.000 C 
BRANCH  20  21
ATOM     21  C   UNL     1       9.891   2.932  23.154  0.00  0.00    +0.000 A 
ATOM     22  C   UNL     1      11.241   3.726  23.248  0.00  0.00    +0.000 A 
ATOM     23  C   UNL     1      11.252   5.196  23.683  0.00  0.00    +0.000 A 
ATOM     24  C   UNL     1       9.905   5.597  24.130  0.00  0.00    +0.000 A 
ATOM     25  C   UNL     1       8.762   5.178  23.610  0.00  0.00    +0.000 A 
ATOM     26  C   UNL     1       7.624   5.370  24.367  0.00  0.00    +0.000 A 
ATOM     27  C   UNL     1       7.023   5.277  25.665  0.00  0.00    +0.000 A 
ATOM     28  C   UNL     1       7.651   3.900  25.902  0.00  0.00    +0.000 A 
ATOM     29  C   UNL     1       8.364   3.137  25.119  0.00  0.00    +0.000 A 
ATOM     30  C   UNL     1       8.834   3.574  23.788  0.00  0.00    +0.000 A 
ENDBRANCH  20  21
ENDBRANCH   6  20
TORSDOF 4
ENDMDL
