MODEL 1
REMARK VINA RESULT:      -8.7      0.000      0.000
REMARK  Name = 
REMARK  8 active torsions:
REMARK  status: ('A' for Active; 'I' for Inactive)
REMARK    1  A    between atoms: C_5  and  C_6
REMARK    2  A    between atoms: C_6  and  O_8
REMARK    3  A    between atoms: O_8  and  N_9
REMARK    4  A    between atoms: C_17  and  C_19
REMARK    5  A    between atoms: C_24  and  C_25
REMARK    6  A    between atoms: C_41  and  N_42
REMARK    7  A    between atoms: N_42  and  S_44
REMARK    8  A    between atoms: S_44  and  C_47
REMARK                            x       y       z     vdW  Elec       q    Type
REMARK                         _______ _______ _______ _____ _____    ______ ____
ROOT
ATOM      1  O   UNL     1       9.896  -0.704  23.837  0.00  0.00    +0.000 OA
ENDROOT
BRANCH   1   2
ATOM      2  N   UNL     1       8.855  -1.249  24.634  0.00  0.00    +0.000 NA
ATOM      3  C   UNL     1       8.221  -0.488  25.582  0.00  0.00    +0.000 C 
ATOM      4  C   UNL     1       6.896  -1.062  26.088  0.00  0.00    +0.000 C 
ATOM      5  N   UNL     1       6.883  -2.505  25.896  0.00  0.00    +0.000 N 
ATOM      6  C   UNL     1       5.902  -3.281  25.670  0.00  0.00    +0.000 C 
ATOM      7  O   UNL     1       5.133  -3.486  26.687  0.00  0.00    +0.000 OA
ATOM      8  C   UNL     1       8.255  -3.086  26.172  0.00  0.00    +0.000 C 
ATOM      9  C   UNL     1       8.984  -2.621  24.888  0.00  0.00    +0.000 C 
BRANCH   6  10
ATOM     10  C   UNL     1       5.336  -3.582  24.478  0.00  0.00    +0.000 A 
ATOM     11  C   UNL     1       5.847  -4.997  24.356  0.00  0.00    +0.000 A 
ATOM     12  C   UNL     1       6.750  -5.580  23.375  0.00  0.00    +0.000 A 
ATOM     13  C   UNL     1       6.758  -4.692  22.084  0.00  0.00    +0.000 A 
ATOM     14  C   UNL     1       6.262  -5.715  20.962  0.00  0.00    +0.000 C 
ATOM     15  C   UNL     1       6.406  -3.293  22.055  0.00  0.00    +0.000 A 
ATOM     16  C   UNL     1       5.480  -2.833  23.246  0.00  0.00    +0.000 A 
ENDBRANCH   6  10
ENDBRANCH   1   2
BRANCH   1  17
ATOM     17  C   UNL     1       9.826  -1.181  22.525  0.00  0.00    +0.000 C 
ATOM     18  O   UNL     1      10.840  -1.988  22.391  0.00  0.00    +0.000 OA
BRANCH  17  21
ATOM     19  C   UNL     1       8.623   2.091  22.433  0.00  0.00    +0.000 A 
ATOM     20  C   UNL     1       9.769   1.059  22.406  0.00  0.00    +0.000 A 
ATOM     21  C   UNL     1       9.804  -0.189  21.645  0.00  0.00    +0.000 A 
ATOM     22  C   UNL     1       8.452  -0.333  21.028  0.00  0.00    +0.000 A 
ATOM     23  C   UNL     1       7.492   0.552  20.555  0.00  0.00    +0.000 A 
ATOM     24  C   UNL     1       7.710   1.911  21.276  0.00  0.00    +0.000 A 
BRANCH  23  25
ATOM     25  N   UNL     1       7.613   0.594  19.210  0.00  0.00    +0.000 N 
ATOM     26  H   UNL     1       8.129   1.376  18.969  0.00  0.00    +0.000 HD
BRANCH  25  27
ATOM     27  S   UNL     1       6.330   0.486  18.280  0.00  0.00    +0.000 S 
ATOM     28  O   UNL     1       6.574   1.416  17.160  0.00  0.00    +0.000 OA
ATOM     29  O   UNL     1       6.025  -0.828  17.840  0.00  0.00    +0.000 OA
ATOM     30  C   UNL     1       4.865   1.120  19.092  0.00  0.00    +0.000 C 
ENDBRANCH  25  27
ENDBRANCH  23  25
ENDBRANCH  17  21
ENDBRANCH   1  17
TORSDOF 6
ENDMDL
MODEL 2
REMARK VINA RESULT:      -8.3      3.443      7.297
REMARK  Name = 
REMARK  8 active torsions:
REMARK  status: ('A' for Active; 'I' for Inactive)
REMARK    1  A    between atoms: C_5  and  C_6
REMARK    2  A    between atoms: C_6  and  O_8
REMARK    3  A    between atoms: O_8  and  N_9
REMARK    4  A    between atoms: C_17  and  C_19
REMARK    5  A    between atoms: C_24  and  C_25
REMARK    6  A    between atoms: C_41  and  N_42
REMARK    7  A    between atoms: N_42  and  S_44
REMARK    8  A    between atoms: S_44  and  C_47
REMARK                            x       y       z     vdW  Elec       q    Type
REMARK                         _______ _______ _______ _____ _____    ______ ____
ROOT
ATOM      1  O   UNL     1       7.366  -2.844  24.639  0.00  0.00    +0.000 OA
ENDROOT
BRANCH   1   2
ATOM      2  N   UNL     1       7.939  -1.545  24.686  0.00  0.00    +0.000 NA
ATOM      3  C   UNL     1       8.959  -1.256  25.556  0.00  0.00    +0.000 C 
ATOM      4  C   UNL     1       9.725   0.032  25.245  0.00  0.00    +0.000 C 
ATOM      5  N   UNL     1       8.875   0.932  24.479  0.00  0.00    +0.000 N 
ATOM      6  C   UNL     1       9.196   1.796  23.604  0.00  0.00    +0.000 C 
ATOM      7  O   UNL     1       9.764   2.856  24.077  0.00  0.00    +0.000 OA
ATOM      8  C   UNL     1       7.445   0.858  24.974  0.00  0.00    +0.000 C 
ATOM      9  C   UNL     1       7.046  -0.512  24.374  0.00  0.00    +0.000 C 
BRANCH   6  10
ATOM     10  C   UNL     1       9.398   1.605  22.280  0.00  0.00    +0.000 A 
ATOM     11  C   UNL     1       8.086   2.163  21.785  0.00  0.00    +0.000 A 
ATOM     12  C   UNL     1       6.996   1.500  21.085  0.00  0.00    +0.000 A 
ATOM     13  C   UNL     1       7.534   0.198  20.400  0.00  0.00    +0.000 A 
ATOM     14  C   UNL     1       7.215   0.466  18.858  0.00  0.00    +0.000 C 
ATOM     15  C   UNL     1       8.712  -0.519  20.824  0.00  0.00    +0.000 A 
ATOM     16  C   UNL     1       9.744   0.353  21.636  0.00  0.00    +0.000 A 
ENDBRANCH   6  10
ENDBRANCH   1   2
BRANCH   1  17
ATOM     17  C   UNL     1       8.160  -3.714  23.887  0.00  0.00    +0.000 C 
ATOM     18  O   UNL     1       8.020  -3.335  22.648  0.00  0.00    +0.000 OA
BRANCH  17  21
ATOM     19  C   UNL     1       5.631  -5.889  22.871  0.00  0.00    +0.000 A 
ATOM     20  C   UNL     1       7.108  -5.447  22.925  0.00  0.00    +0.000 A 
ATOM     21  C   UNL     1       7.838  -4.982  24.105  0.00  0.00    +0.000 A 
ATOM     22  C   UNL     1       6.828  -4.877  25.199  0.00  0.00    +0.000 A 
ATOM     23  C   UNL     1       5.665  -5.561  25.529  0.00  0.00    +0.000 A 
ATOM     24  C   UNL     1       5.112  -6.203  24.226  0.00  0.00    +0.000 A 
BRANCH  23  25
ATOM     25  N   UNL     1       5.980  -6.439  26.507  0.00  0.00    +0.000 N 
ATOM     26  H   UNL     1       5.658  -7.315  26.254  0.00  0.00    +0.000 HD
BRANCH  25  27
ATOM     27  S   UNL     1       5.595  -6.136  28.017  0.00  0.00    +0.000 S 
ATOM     28  O   UNL     1       5.514  -7.454  28.677  0.00  0.00    +0.000 OA
ATOM     29  O   UNL     1       6.474  -5.247  28.687  0.00  0.00    +0.000 OA
ATOM     30  C   UNL     1       3.946  -5.450  28.159  0.00  0.00    +0.000 C 
ENDBRANCH  25  27
ENDBRANCH  23  25
ENDBRANCH  17  21
ENDBRANCH   1  17
TORSDOF 6
ENDMDL
MODEL 3
REMARK VINA RESULT:      -8.2      2.044      3.594
REMARK  Name = 
REMARK  8 active torsions:
REMARK  status: ('A' for Active; 'I' for Inactive)
REMARK    1  A    between atoms: C_5  and  C_6
REMARK    2  A    between atoms: C_6  and  O_8
REMARK    3  A    between atoms: O_8  and  N_9
REMARK    4  A    between atoms: C_17  and  C_19
REMARK    5  A    between atoms: C_24  and  C_25
REMARK    6  A    between atoms: C_41  and  N_42
REMARK    7  A    between atoms: N_42  and  S_44
REMARK    8  A    between atoms: S_44  and  C_47
REMARK                            x       y       z     vdW  Elec       q    Type
REMARK                         _______ _______ _______ _____ _____    ______ ____
ROOT
ATOM      1  O   UNL     1       7.583  -1.959  22.913  0.00  0.00    +0.000 OA
ENDROOT
BRANCH   1   2
ATOM      2  N   UNL     1       6.897  -3.196  23.038  0.00  0.00    +0.000 NA
ATOM      3  C   UNL     1       7.174  -4.242  22.196  0.00  0.00    +0.000 C 
ATOM      4  C   UNL     1       6.659  -5.603  22.669  0.00  0.00    +0.000 C 
ATOM      5  N   UNL     1       5.533  -5.412  23.572  0.00  0.00    +0.000 N 
ATOM      6  C   UNL     1       5.155  -6.126  24.554  0.00  0.00    +0.000 C 
ATOM      7  O   UNL     1       4.601  -7.245  24.223  0.00  0.00    +0.000 OA
ATOM      8  C   UNL     1       4.668  -4.260  23.102  0.00  0.00    +0.000 C 
ATOM      9  C   UNL     1       5.584  -3.080  23.512  0.00  0.00    +0.000 C 
BRANCH   6  10
ATOM     10  C   UNL     1       5.594  -6.083  25.833  0.00  0.00    +0.000 A 
ATOM     11  C   UNL     1       4.249  -6.120  26.517  0.00  0.00    +0.000 A 
ATOM     12  C   UNL     1       3.602  -5.122  27.356  0.00  0.00    +0.000 A 
ATOM     13  C   UNL     1       4.686  -4.154  27.941  0.00  0.00    +0.000 A 
ATOM     14  C   UNL     1       4.502  -4.346  29.516  0.00  0.00    +0.000 C 
ATOM     15  C   UNL     1       5.978  -3.922  27.344  0.00  0.00    +0.000 A 
ATOM     16  C   UNL     1       6.477  -5.086  26.404  0.00  0.00    +0.000 A 
ENDBRANCH   6  10
ENDBRANCH   1   2
BRANCH   1  17
ATOM     17  C   UNL     1       8.920  -2.161  22.559  0.00  0.00    +0.000 C 
ATOM     18  O   UNL     1       9.584  -2.154  23.680  0.00  0.00    +0.000 OA
BRANCH  17  21
ATOM     19  C   UNL     1       9.274   1.307  22.470  0.00  0.00    +0.000 A 
ATOM     20  C   UNL     1       9.852  -0.123  22.442  0.00  0.00    +0.000 A 
ATOM     21  C   UNL     1       9.335  -1.259  21.679  0.00  0.00    +0.000 A 
ATOM     22  C   UNL     1       8.057  -0.794  21.064  0.00  0.00    +0.000 A 
ATOM     23  C   UNL     1       7.581   0.423  20.593  0.00  0.00    +0.000 A 
ATOM     24  C   UNL     1       8.374   1.548  21.315  0.00  0.00    +0.000 A 
BRANCH  23  25
ATOM     25  N   UNL     1       7.708   0.409  19.248  0.00  0.00    +0.000 N 
ATOM     26  H   UNL     1       8.318   1.112  18.986  0.00  0.00    +0.000 HD
BRANCH  25  27
ATOM     27  S   UNL     1       6.422   0.435  18.316  0.00  0.00    +0.000 S 
ATOM     28  O   UNL     1       6.744   1.375  17.224  0.00  0.00    +0.000 OA
ATOM     29  O   UNL     1       6.011  -0.836  17.836  0.00  0.00    +0.000 OA
ATOM     30  C   UNL     1       5.012   1.163  19.147  0.00  0.00    +0.000 C 
ENDBRANCH  25  27
ENDBRANCH  23  25
ENDBRANCH  17  21
ENDBRANCH   1  17
TORSDOF 6
ENDMDL
MODEL 4
REMARK VINA RESULT:      -8.1      1.821      2.285
REMARK  Name = 
REMARK  8 active torsions:
REMARK  status: ('A' for Active; 'I' for Inactive)
REMARK    1  A    between atoms: C_5  and  C_6
REMARK    2  A    between atoms: C_6  and  O_8
REMARK    3  A    between atoms: O_8  and  N_9
REMARK    4  A    between atoms: C_17  and  C_19
REMARK    5  A    between atoms: C_24  and  C_25
REMARK    6  A    between atoms: C_41  and  N_42
REMARK    7  A    between atoms: N_42  and  S_44
REMARK    8  A    between atoms: S_44  and  C_47
REMARK                            x       y       z     vdW  Elec       q    Type
REMARK                         _______ _______ _______ _____ _____    ______ ____
ROOT
ATOM      1  O   UNL     1       8.665  -3.251  22.989  0.00  0.00    +0.000 OA
ENDROOT
BRANCH   1   2
ATOM      2  N   UNL     1       8.282  -3.612  24.309  0.00  0.00    +0.000 NA
ATOM      3  C   UNL     1       8.687  -2.869  25.387  0.00  0.00    +0.000 C 
ATOM      4  C   UNL     1       7.910  -3.131  26.679  0.00  0.00    +0.000 C 
ATOM      5  N   UNL     1       7.330  -4.466  26.637  0.00  0.00    +0.000 N 
ATOM      6  C   UNL     1       6.258  -4.897  27.167  0.00  0.00    +0.000 C 
ATOM      7  O   UNL     1       6.314  -5.044  28.450  0.00  0.00    +0.000 OA
ATOM      8  C   UNL     1       8.285  -5.437  25.974  0.00  0.00    +0.000 C 
ATOM      9  C   UNL     1       8.111  -4.989  24.502  0.00  0.00    +0.000 C 
BRANCH   6  10
ATOM     10  C   UNL     1       5.001  -4.837  26.671  0.00  0.00    +0.000 A 
ATOM     11  C   UNL     1       4.917  -6.247  26.142  0.00  0.00    +0.000 A 
ATOM     12  C   UNL     1       4.771  -6.722  24.774  0.00  0.00    +0.000 A 
ATOM     13  C   UNL     1       4.169  -5.580  23.888  0.00  0.00    +0.000 A 
ATOM     14  C   UNL     1       2.819  -6.240  23.348  0.00  0.00    +0.000 C 
ATOM     15  C   UNL     1       4.263  -4.174  24.198  0.00  0.00    +0.000 A 
ATOM     16  C   UNL     1       4.497  -3.861  25.726  0.00  0.00    +0.000 A 
ENDBRANCH   6  10
ENDBRANCH   1   2
BRANCH   1  17
ATOM     17  C   UNL     1       7.956  -2.129  22.552  0.00  0.00    +0.000 C 
ATOM     18  O   UNL     1       6.807  -2.580  22.134  0.00  0.00    +0.000 OA
BRANCH  17  21
ATOM     19  C   UNL     1       9.454   1.013  22.333  0.00  0.00    +0.000 A 
ATOM     20  C   UNL     1       9.516  -0.528  22.354  0.00  0.00    +0.000 A 
ATOM     21  C   UNL     1       8.635  -1.448  21.637  0.00  0.00    +0.000 A 
ATOM     22  C   UNL     1       7.577  -0.601  21.011  0.00  0.00    +0.000 A 
ATOM     23  C   UNL     1       7.530   0.688  20.498  0.00  0.00    +0.000 A 
ATOM     24  C   UNL     1       8.668   1.504  21.173  0.00  0.00    +0.000 A 
BRANCH  23  25
ATOM     25  N   UNL     1       7.622   0.588  19.153  0.00  0.00    +0.000 N 
ATOM     26  H   UNL     1       8.208   1.286  18.829  0.00  0.00    +0.000 HD
BRANCH  25  27
ATOM     27  S   UNL     1       6.312   0.524  18.258  0.00  0.00    +0.000 S 
ATOM     28  O   UNL     1       6.556   1.448  17.133  0.00  0.00    +0.000 OA
ATOM     29  O   UNL     1       5.955  -0.779  17.823  0.00  0.00    +0.000 OA
ATOM     30  C   UNL     1       4.890   1.202  19.109  0.00  0.00    +0.000 C 
ENDBRANCH  25  27
ENDBRANCH  23  25
ENDBRANCH  17  21
ENDBRANCH   1  17
TORSDOF 6
ENDMDL
MODEL 5
REMARK VINA RESULT:      -7.7      1.564      2.352
REMARK  Name = 
REMARK  8 active torsions:
REMARK  status: ('A' for Active; 'I' for Inactive)
REMARK    1  A    between atoms: C_5  and  C_6
REMARK    2  A    between atoms: C_6  and  O_8
REMARK    3  A    between atoms: O_8  and  N_9
REMARK    4  A    between atoms: C_17  and  C_19
REMARK    5  A    between atoms: C_24  and  C_25
REMARK    6  A    between atoms: C_41  and  N_42
REMARK    7  A    between atoms: N_42  and  S_44
REMARK    8  A    between atoms: S_44  and  C_47
REMARK                            x       y       z     vdW  Elec       q    Type
REMARK                         _______ _______ _______ _____ _____    ______ ____
ROOT
ATOM      1  O   UNL     1       8.838  -0.214  23.732  0.00  0.00    +0.000 OA
ENDROOT
BRANCH   1   2
ATOM      2  N   UNL     1       8.666  -1.442  24.426  0.00  0.00    +0.000 NA
ATOM      3  C   UNL     1       8.815  -1.508  25.787  0.00  0.00    +0.000 C 
ATOM      4  C   UNL     1       8.240  -2.768  26.438  0.00  0.00    +0.000 C 
ATOM      5  N   UNL     1       8.186  -3.842  25.457  0.00  0.00    +0.000 N 
ATOM      6  C   UNL     1       7.367  -4.811  25.365  0.00  0.00    +0.000 C 
ATOM      7  O   UNL     1       7.524  -5.734  26.255  0.00  0.00    +0.000 OA
ATOM      8  C   UNL     1       9.402  -3.796  24.555  0.00  0.00    +0.000 C 
ATOM      9  C   UNL     1       9.018  -2.576  23.683  0.00  0.00    +0.000 C 
BRANCH   6  10
ATOM     10  C   UNL     1       6.156  -4.823  24.762  0.00  0.00    +0.000 A 
ATOM     11  C   UNL     1       5.322  -4.444  25.961  0.00  0.00    +0.000 A 
ATOM     12  C   UNL     1       4.294  -5.202  26.659  0.00  0.00    +0.000 A 
ATOM     13  C   UNL     1       3.733  -6.313  25.709  0.00  0.00    +0.000 A 
ATOM     14  C   UNL     1       2.183  -5.939  25.623  0.00  0.00    +0.000 C 
ATOM     15  C   UNL     1       4.452  -6.864  24.585  0.00  0.00    +0.000 A 
ATOM     16  C   UNL     1       5.580  -5.923  24.014  0.00  0.00    +0.000 A 
ENDBRANCH   6  10
ENDBRANCH   1   2
BRANCH   1  17
ATOM     17  C   UNL     1       9.943  -0.273  22.877  0.00  0.00    +0.000 C 
ATOM     18  O   UNL     1      10.979  -0.015  23.624  0.00  0.00    +0.000 OA
BRANCH  17  21
ATOM     19  C   UNL     1       8.243   2.700  22.218  0.00  0.00    +0.000 A 
ATOM     20  C   UNL     1       9.538   1.879  22.385  0.00  0.00    +0.000 A 
ATOM     21  C   UNL     1       9.804   0.547  21.843  0.00  0.00    +0.000 A 
ATOM     22  C   UNL     1       8.522   0.087  21.234  0.00  0.00    +0.000 A 
ATOM     23  C   UNL     1       7.455   0.714  20.603  0.00  0.00    +0.000 A 
ATOM     24  C   UNL     1       7.423   2.189  21.090  0.00  0.00    +0.000 A 
BRANCH  23  25
ATOM     25  N   UNL     1       7.629   0.558  19.271  0.00  0.00    +0.000 N 
ATOM     26  H   UNL     1       8.209   1.262  18.949  0.00  0.00    +0.000 HD
BRANCH  25  27
ATOM     27  S   UNL     1       6.377   0.405  18.307  0.00  0.00    +0.000 S 
ATOM     28  O   UNL     1       6.617   1.346  17.195  0.00  0.00    +0.000 OA
ATOM     29  O   UNL     1       6.135  -0.919  17.855  0.00  0.00    +0.000 OA
ATOM     30  C   UNL     1       4.868   0.981  19.079  0.00  0.00    +0.000 C 
ENDBRANCH  25  27
ENDBRANCH  23  25
ENDBRANCH  17  21
ENDBRANCH   1  17
TORSDOF 6
ENDMDL
MODEL 6
REMARK VINA RESULT:      -7.6      3.264      6.851
REMARK  Name = 
REMARK  8 active torsions:
REMARK  status: ('A' for Active; 'I' for Inactive)
REMARK    1  A    between atoms: C_5  and  C_6
REMARK    2  A    between atoms: C_6  and  O_8
REMARK    3  A    between atoms: O_8  and  N_9
REMARK    4  A    between atoms: C_17  and  C_19
REMARK    5  A    between atoms: C_24  and  C_25
REMARK    6  A    between atoms: C_41  and  N_42
REMARK    7  A    between atoms: N_42  and  S_44
REMARK    8  A    between atoms: S_44  and  C_47
REMARK                            x       y       z     vdW  Elec       q    Type
REMARK                         _______ _______ _______ _____ _____    ______ ____
ROOT
ATOM      1  O   UNL     1       7.413  -2.830  24.686  0.00  0.00    +0.000 OA
ENDROOT
BRANCH   1   2
ATOM      2  N   UNL     1       8.006  -1.540  24.707  0.00  0.00    +0.000 NA
ATOM      3  C   UNL     1       9.053  -1.259  25.546  0.00  0.00    +0.000 C 
ATOM      4  C   UNL     1       9.830   0.014  25.203  0.00  0.00    +0.000 C 
ATOM      5  N   UNL     1       8.974   0.921  24.453  0.00  0.00    +0.000 N 
ATOM      6  C   UNL     1       9.285   1.773  23.562  0.00  0.00    +0.000 C 
ATOM      7  O   UNL     1       9.880   2.828  24.010  0.00  0.00    +0.000 OA
ATOM      8  C   UNL     1       7.557   0.873  24.987  0.00  0.00    +0.000 C 
ATOM      9  C   UNL     1       7.120  -0.496  24.409  0.00  0.00    +0.000 C 
BRANCH   6  10
ATOM     10  C   UNL     1       9.448   1.567  22.234  0.00  0.00    +0.000 A 
ATOM     11  C   UNL     1       8.146   2.170  21.767  0.00  0.00    +0.000 A 
ATOM     12  C   UNL     1       7.017   1.543  21.097  0.00  0.00    +0.000 A 
ATOM     13  C   UNL     1       7.491   0.219  20.407  0.00  0.00    +0.000 A 
ATOM     14  C   UNL     1       7.145   0.491  18.872  0.00  0.00    +0.000 C 
ATOM     15  C   UNL     1       8.652  -0.538  20.809  0.00  0.00    +0.000 A 
ATOM     16  C   UNL     1       9.734   0.300  21.591  0.00  0.00    +0.000 A 
ENDBRANCH   6  10
ENDBRANCH   1   2
BRANCH   1  17
ATOM     17  C   UNL     1       8.188  -3.726  23.944  0.00  0.00    +0.000 C 
ATOM     18  O   UNL     1       8.220  -3.243  22.734  0.00  0.00    +0.000 OA
BRANCH  17  21
ATOM     19  C   UNL     1       6.405  -5.884  21.865  0.00  0.00    +0.000 A 
ATOM     20  C   UNL     1       7.668  -5.489  22.657  0.00  0.00    +0.000 A 
ATOM     21  C   UNL     1       7.714  -4.962  24.021  0.00  0.00    +0.000 A 
ATOM     22  C   UNL     1       6.295  -4.742  24.426  0.00  0.00    +0.000 A 
ATOM     23  C   UNL     1       5.085  -5.359  24.135  0.00  0.00    +0.000 A 
ATOM     24  C   UNL     1       5.242  -6.078  22.766  0.00  0.00    +0.000 A 
BRANCH  23  25
ATOM     25  N   UNL     1       4.790  -6.172  25.174  0.00  0.00    +0.000 N 
ATOM     26  H   UNL     1       5.477  -6.848  25.245  0.00  0.00    +0.000 HD
BRANCH  25  27
ATOM     27  S   UNL     1       3.356  -6.843  25.291  0.00  0.00    +0.000 S 
ATOM     28  O   UNL     1       2.426  -5.906  24.632  0.00  0.00    +0.000 OA
ATOM     29  O   UNL     1       3.271  -8.157  24.759  0.00  0.00    +0.000 OA
ATOM     30  C   UNL     1       2.796  -6.927  26.990  0.00  0.00    +0.000 C 
ENDBRANCH  25  27
ENDBRANCH  23  25
ENDBRANCH  17  21
ENDBRANCH   1  17
TORSDOF 6
ENDMDL
MODEL 7
REMARK VINA RESULT:      -7.1      3.544      7.765
REMARK  Name = 
REMARK  8 active torsions:
REMARK  status: ('A' for Active; 'I' for Inactive)
REMARK    1  A    between atoms: C_5  and  C_6
REMARK    2  A    between atoms: C_6  and  O_8
REMARK    3  A    between atoms: O_8  and  N_9
REMARK    4  A    between atoms: C_17  and  C_19
REMARK    5  A    between atoms: C_24  and  C_25
REMARK    6  A    between atoms: C_41  and  N_42
REMARK    7  A    between atoms: N_42  and  S_44
REMARK    8  A    between atoms: S_44  and  C_47
REMARK                            x       y       z     vdW  Elec       q    Type
REMARK                         _______ _______ _______ _____ _____    ______ ____
ROOT
ATOM      1  O   UNL     1       6.770  -3.046  23.088  0.00  0.00    +0.000 OA
ENDROOT
BRANCH   1   2
ATOM      2  N   UNL     1       7.930  -2.345  23.515  0.00  0.00    +0.000 NA
ATOM      3  C   UNL     1       9.145  -2.975  23.591  0.00  0.00    +0.000 C 
ATOM      4  C   UNL     1      10.351  -2.038  23.689  0.00  0.00    +0.000 C 
ATOM      5  N   UNL     1       9.932  -0.760  24.246  0.00  0.00    +0.000 N 
ATOM      6  C   UNL     1      10.397   0.404  24.035  0.00  0.00    +0.000 C 
ATOM      7  O   UNL     1      11.547   0.631  24.579  0.00  0.00    +0.000 OA
ATOM      8  C   UNL     1       8.892  -0.970  25.328  0.00  0.00    +0.000 C 
ATOM      9  C   UNL     1       7.675  -1.321  24.436  0.00  0.00    +0.000 C 
BRANCH   6  10
ATOM     10  C   UNL     1      10.080   1.259  23.035  0.00  0.00    +0.000 A 
ATOM     11  C   UNL     1       9.609   2.412  23.888  0.00  0.00    +0.000 A 
ATOM     12  C   UNL     1       8.290   3.017  23.990  0.00  0.00    +0.000 A 
ATOM     13  C   UNL     1       7.464   2.685  22.702  0.00  0.00    +0.000 A 
ATOM     14  C   UNL     1       7.137   4.136  22.121  0.00  0.00    +0.000 C 
ATOM     15  C   UNL     1       7.716   1.554  21.842  0.00  0.00    +0.000 A 
ATOM     16  C   UNL     1       9.185   0.990  21.927  0.00  0.00    +0.000 A 
ENDBRANCH   6  10
ENDBRANCH   1   2
BRANCH   1  17
ATOM     17  C   UNL     1       6.961  -4.428  23.175  0.00  0.00    +0.000 C 
ATOM     18  O   UNL     1       7.050  -4.848  21.945  0.00  0.00    +0.000 OA
BRANCH  17  21
ATOM     19  C   UNL     1       4.326  -3.382  25.206  0.00  0.00    +0.000 A 
ATOM     20  C   UNL     1       4.883  -4.067  23.940  0.00  0.00    +0.000 A 
ATOM     21  C   UNL     1       5.998  -5.011  23.877  0.00  0.00    +0.000 A 
ATOM     22  C   UNL     1       6.578  -5.055  25.251  0.00  0.00    +0.000 A 
ATOM     23  C   UNL     1       6.069  -4.920  26.536  0.00  0.00    +0.000 A 
ATOM     24  C   UNL     1       4.758  -4.091  26.436  0.00  0.00    +0.000 A 
BRANCH  23  25
ATOM     25  N   UNL     1       5.918  -6.165  27.040  0.00  0.00    +0.000 N 
ATOM     26  H   UNL     1       5.263  -6.638  26.509  0.00  0.00    +0.000 HD
BRANCH  25  27
ATOM     27  S   UNL     1       5.619  -6.379  28.585  0.00  0.00    +0.000 S 
ATOM     28  O   UNL     1       6.319  -7.625  28.955  0.00  0.00    +0.000 OA
ATOM     29  O   UNL     1       5.980  -5.286  29.416  0.00  0.00    +0.000 OA
ATOM     30  C   UNL     1       3.887  -6.719  28.887  0.00  0.00    +0.000 C 
ENDBRANCH  25  27
ENDBRANCH  23  25
ENDBRANCH  17  21
ENDBRANCH   1  17
TORSDOF 6
ENDMDL
MODEL 8
REMARK VINA RESULT:      -7.1      1.934      3.110
REMARK  Name = 
REMARK  8 active torsions:
REMARK  status: ('A' for Active; 'I' for Inactive)
REMARK    1  A    between atoms: C_5  and  C_6
REMARK    2  A    between atoms: C_6  and  O_8
REMARK    3  A    between atoms: O_8  and  N_9
REMARK    4  A    between atoms: C_17  and  C_19
REMARK    5  A    between atoms: C_24  and  C_25
REMARK    6  A    between atoms: C_41  and  N_42
REMARK    7  A    between atoms: N_42  and  S_44
REMARK    8  A    between atoms: S_44  and  C_47
REMARK                            x       y       z     vdW  Elec       q    Type
REMARK                         _______ _______ _______ _____ _____    ______ ____
ROOT
ATOM      1  O   UNL     1       9.772  -2.609  23.218  0.00  0.00    +0.000 OA
ENDROOT
BRANCH   1   2
ATOM      2  N   UNL     1       9.217  -3.518  24.158  0.00  0.00    +0.000 NA
ATOM      3  C   UNL     1      10.025  -4.299  24.944  0.00  0.00    +0.000 C 
ATOM      4  C   UNL     1       9.330  -4.933  26.152  0.00  0.00    +0.000 C 
ATOM      5  N   UNL     1       7.902  -5.045  25.890  0.00  0.00    +0.000 N 
ATOM      6  C   UNL     1       6.927  -4.999  26.704  0.00  0.00    +0.000 C 
ATOM      7  O   UNL     1       6.796  -6.049  27.445  0.00  0.00    +0.000 OA
ATOM      8  C   UNL     1       7.658  -5.413  24.441  0.00  0.00    +0.000 C 
ATOM      9  C   UNL     1       7.976  -4.049  23.781  0.00  0.00    +0.000 C 
BRANCH   6  10
ATOM     10  C   UNL     1       6.286  -3.905  27.176  0.00  0.00    +0.000 A 
ATOM     11  C   UNL     1       4.917  -4.519  27.341  0.00  0.00    +0.000 A 
ATOM     12  C   UNL     1       3.666  -4.201  26.670  0.00  0.00    +0.000 A 
ATOM     13  C   UNL     1       3.743  -2.749  26.089  0.00  0.00    +0.000 A 
ATOM     14  C   UNL     1       2.532  -2.018  26.831  0.00  0.00    +0.000 C 
ATOM     15  C   UNL     1       4.971  -2.063  25.770  0.00  0.00    +0.000 A 
ATOM     16  C   UNL     1       6.234  -2.602  26.545  0.00  0.00    +0.000 A 
ENDBRANCH   6  10
ENDBRANCH   1   2
BRANCH   1  17
ATOM     17  C   UNL     1       9.976  -1.354  23.797  0.00  0.00    +0.000 C 
ATOM     18  O   UNL     1       8.941  -1.146  24.560  0.00  0.00    +0.000 OA
BRANCH  17  21
ATOM     19  C   UNL     1       9.593   2.107  23.595  0.00  0.00    +0.000 A 
ATOM     20  C   UNL     1      10.456   0.828  23.587  0.00  0.00    +0.000 A 
ATOM     21  C   UNL     1      10.166  -0.417  22.877  0.00  0.00    +0.000 A 
ATOM     22  C   UNL     1       8.801  -0.251  22.296  0.00  0.00    +0.000 A 
ATOM     23  C   UNL     1       8.067   0.822  21.808  0.00  0.00    +0.000 A 
ATOM     24  C   UNL     1       8.628   2.113  22.467  0.00  0.00    +0.000 A 
BRANCH  23  25
ATOM     25  N   UNL     1       8.154   0.788  20.460  0.00  0.00    +0.000 N 
ATOM     26  H   UNL     1       8.412   1.664  20.142  0.00  0.00    +0.000 HD
BRANCH  25  27
ATOM     27  S   UNL     1       6.948   0.232  19.588  0.00  0.00    +0.000 S 
ATOM     28  O   UNL     1       7.459   0.162  18.205  0.00  0.00    +0.000 OA
ATOM     29  O   UNL     1       6.417  -1.007  20.033  0.00  0.00    +0.000 OA
ATOM     30  C   UNL     1       5.587   1.392  19.517  0.00  0.00    +0.000 C 
ENDBRANCH  25  27
ENDBRANCH  23  25
ENDBRANCH  17  21
ENDBRANCH   1  17
TORSDOF 6
ENDMDL
MODEL 9
REMARK VINA RESULT:      -7.0      3.112      6.193
REMARK  Name = 
REMARK  8 active torsions:
REMARK  status: ('A' for Active; 'I' for Inactive)
REMARK    1  A    between atoms: C_5  and  C_6
REMARK    2  A    between atoms: C_6  and  O_8
REMARK    3  A    between atoms: O_8  and  N_9
REMARK    4  A    between atoms: C_17  and  C_19
REMARK    5  A    between atoms: C_24  and  C_25
REMARK    6  A    between atoms: C_41  and  N_42
REMARK    7  A    between atoms: N_42  and  S_44
REMARK    8  A    between atoms: S_44  and  C_47
REMARK                            x       y       z     vdW  Elec       q    Type
REMARK                         _______ _______ _______ _____ _____    ______ ____
ROOT
ATOM      1  O   UNL     1       8.476  -1.032  26.671  0.00  0.00    +0.000 OA
ENDROOT
BRANCH   1   2
ATOM      2  N   UNL     1       9.028  -0.228  25.638  0.00  0.00    +0.000 NA
ATOM      3  C   UNL     1      10.314   0.239  25.721  0.00  0.00    +0.000 C 
ATOM      4  C   UNL     1      10.899   0.752  24.403  0.00  0.00    +0.000 C 
ATOM      5  N   UNL     1       9.819   1.160  23.515  0.00  0.00    +0.000 N 
ATOM      6  C   UNL     1       9.767   1.138  22.246  0.00  0.00    +0.000 C 
ATOM      7  O   UNL     1      10.484   2.039  21.662  0.00  0.00    +0.000 OA
ATOM      8  C   UNL     1       8.711   1.826  24.304  0.00  0.00    +0.000 C 
ATOM      9  C   UNL     1       8.093   0.573  24.971  0.00  0.00    +0.000 C 
BRANCH   6  10
ATOM     10  C   UNL     1       9.416   0.106  21.444  0.00  0.00    +0.000 A 
ATOM     11  C   UNL     1       8.096   0.655  20.960  0.00  0.00    +0.000 A 
ATOM     12  C   UNL     1       6.746   0.151  21.162  0.00  0.00    +0.000 A 
ATOM     13  C   UNL     1       6.808  -1.373  21.518  0.00  0.00    +0.000 A 
ATOM     14  C   UNL     1       5.955  -2.035  20.342  0.00  0.00    +0.000 C 
ATOM     15  C   UNL     1       7.958  -2.028  22.093  0.00  0.00    +0.000 A 
ATOM     16  C   UNL     1       9.325  -1.288  21.831  0.00  0.00    +0.000 A 
ENDBRANCH   6  10
ENDBRANCH   1   2
BRANCH   1  17
ATOM     17  C   UNL     1       7.311  -1.672  26.239  0.00  0.00    +0.000 C 
ATOM     18  O   UNL     1       6.339  -1.120  26.907  0.00  0.00    +0.000 OA
BRANCH  17  21
ATOM     19  C   UNL     1       9.250  -4.253  24.919  0.00  0.00    +0.000 A 
ATOM     20  C   UNL     1       8.772  -3.369  26.090  0.00  0.00    +0.000 A 
ATOM     21  C   UNL     1       7.393  -2.988  26.390  0.00  0.00    +0.000 A 
ATOM     22  C   UNL     1       6.569  -3.496  25.254  0.00  0.00    +0.000 A 
ATOM     23  C   UNL     1       6.645  -4.589  24.400  0.00  0.00    +0.000 A 
ATOM     24  C   UNL     1       8.130  -5.042  24.348  0.00  0.00    +0.000 A 
BRANCH  23  25
ATOM     25  N   UNL     1       5.781  -5.520  24.862  0.00  0.00    +0.000 N 
ATOM     26  H   UNL     1       6.283  -6.213  25.313  0.00  0.00    +0.000 HD
BRANCH  25  27
ATOM     27  S   UNL     1       4.706  -6.175  23.894  0.00  0.00    +0.000 S 
ATOM     28  O   UNL     1       5.302  -6.117  22.545  0.00  0.00    +0.000 OA
ATOM     29  O   UNL     1       4.304  -7.487  24.254  0.00  0.00    +0.000 OA
ATOM     30  C   UNL     1       3.220  -5.182  23.781  0.00  0.00    +0.000 C 
ENDBRANCH  25  27
ENDBRANCH  23  25
ENDBRANCH  17  21
ENDBRANCH   1  17
TORSDOF 6
ENDMDL
