MODEL 1
REMARK VINA RESULT:      -8.6      0.000      0.000
REMARK  Name = 
REMARK  5 active torsions:
REMARK  status: ('A' for Active; 'I' for Inactive)
REMARK    1  A    between atoms: C_11  and  N_13
REMARK    2  A    between atoms: N_13  and  C_42
REMARK    3  A    between atoms: C_14  and  C_16
REMARK    4  A    between atoms: C_16  and  N_19
REMARK    5  A    between atoms: C_27  and  C_29
REMARK                            x       y       z     vdW  Elec       q    Type
REMARK                         _______ _______ _______ _____ _____    ______ ____
ROOT
ATOM      1  N   UNL     1       7.783   0.447  21.738  0.00  0.00    +0.000 N 
ATOM      2  C   UNL     1       8.568  -0.691  21.957  0.00  0.00    +0.000 C 
ATOM      3  O   UNL     1       9.621  -0.679  21.310  0.00  0.00    +0.000 OA
ENDROOT
BRANCH   1  10
ATOM      4  C   UNL     1       5.803   1.335  20.451  0.00  0.00    +0.000 C 
ATOM      5  C   UNL     1       5.072   1.427  19.240  0.00  0.00    +0.000 C 
ATOM      6  S   UNL     1       6.179   0.516  18.049  0.00  0.00    +0.000 S 
ATOM      7  O   UNL     1       5.730  -0.790  17.947  0.00  0.00    +0.000 OA
ATOM      8  O   UNL     1       6.537   1.349  17.027  0.00  0.00    +0.000 OA
ATOM      9  C   UNL     1       7.680   0.411  19.208  0.00  0.00    +0.000 C 
ATOM     10  C   UNL     1       6.927   0.310  20.526  0.00  0.00    +0.000 C 
ENDBRANCH   1  10
BRANCH   1  11
ATOM     11  C   UNL     1       8.547   1.526  21.651  0.00  0.00    +0.000 A 
ATOM     12  C   UNL     1       7.706   2.608  22.252  0.00  0.00    +0.000 A 
ATOM     13  C   UNL     1       8.130   3.581  23.277  0.00  0.00    +0.000 A 
ATOM     14  C   UNL     1       9.556   3.358  23.695  0.00  0.00    +0.000 A 
ATOM     15  F   UNL     1      10.109   4.632  23.769  0.00  0.00    +0.000 F 
ATOM     16  C   UNL     1      10.536   2.387  23.197  0.00  0.00    +0.000 A 
ATOM     17  C   UNL     1       9.967   1.621  21.919  0.00  0.00    +0.000 A 
ENDBRANCH   1  11
BRANCH   2  18
ATOM     18  C   UNL     1       7.941  -1.985  22.375  0.00  0.00    +0.000 C 
BRANCH  18  19
ATOM     19  N   UNL     1       8.012  -2.417  23.650  0.00  0.00    +0.000 NA
ATOM     20  C   UNL     1       7.001  -2.260  24.565  0.00  0.00    +0.000 C 
ATOM     21  C   UNL     1       5.938  -3.328  24.354  0.00  0.00    +0.000 C 
ATOM     22  N   UNL     1       6.672  -4.600  24.019  0.00  0.00    +0.000 N 
ATOM     23  C   UNL     1       5.716  -5.618  23.831  0.00  0.00    +0.000 C 
ATOM     24  O   UNL     1       5.344  -6.189  24.852  0.00  0.00    +0.000 OA
ATOM     25  C   UNL     1       7.758  -4.959  24.890  0.00  0.00    +0.000 C 
ATOM     26  C   UNL     1       9.070  -4.293  24.789  0.00  0.00    +0.000 C 
ATOM     27  C   UNL     1       9.187  -2.952  24.132  0.00  0.00    +0.000 C 
BRANCH  23  28
ATOM     28  C   UNL     1       5.021  -5.754  22.544  0.00  0.00    +0.000 C 
ATOM     29 CL   UNL     1       6.089  -5.790  21.143  0.00  0.00    +0.000 Cl
ENDBRANCH  23  28
ENDBRANCH  18  19
ENDBRANCH   2  18
TORSDOF 5
ENDMDL
MODEL 2
REMARK VINA RESULT:      -8.2      1.620      2.127
REMARK  Name = 
REMARK  5 active torsions:
REMARK  status: ('A' for Active; 'I' for Inactive)
REMARK    1  A    between atoms: C_11  and  N_13
REMARK    2  A    between atoms: N_13  and  C_42
REMARK    3  A    between atoms: C_14  and  C_16
REMARK    4  A    between atoms: C_16  and  N_19
REMARK    5  A    between atoms: C_27  and  C_29
REMARK                            x       y       z     vdW  Elec       q    Type
REMARK                         _______ _______ _______ _____ _____    ______ ____
ROOT
ATOM      1  N   UNL     1       7.508  -0.011  21.711  0.00  0.00    +0.000 N 
ATOM      2  C   UNL     1       7.844  -1.319  22.081  0.00  0.00    +0.000 C 
ATOM      3  O   UNL     1       8.892  -1.711  21.556  0.00  0.00    +0.000 OA
ENDROOT
BRANCH   1  10
ATOM      4  C   UNL     1       5.678   1.099  20.375  0.00  0.00    +0.000 C 
ATOM      5  C   UNL     1       5.063   1.362  19.125  0.00  0.00    +0.000 C 
ATOM      6  S   UNL     1       6.248   0.558  17.933  0.00  0.00    +0.000 S 
ATOM      7  O   UNL     1       5.775  -0.709  17.634  0.00  0.00    +0.000 OA
ATOM      8  O   UNL     1       6.720   1.492  17.056  0.00  0.00    +0.000 OA
ATOM      9  C   UNL     1       7.634   0.259  19.197  0.00  0.00    +0.000 C 
ATOM     10  C   UNL     1       6.762   0.030  20.422  0.00  0.00    +0.000 C 
ENDBRANCH   1  10
BRANCH   1  11
ATOM     11  C   UNL     1       8.594   0.745  21.647  0.00  0.00    +0.000 A 
ATOM     12  C   UNL     1       8.106   2.105  22.040  0.00  0.00    +0.000 A 
ATOM     13  C   UNL     1       8.720   3.004  23.034  0.00  0.00    +0.000 A 
ATOM     14  C   UNL     1       9.937   2.384  23.663  0.00  0.00    +0.000 A 
ATOM     15  F   UNL     1      10.874   3.411  23.712  0.00  0.00    +0.000 F 
ATOM     16  C   UNL     1      10.582   1.097  23.382  0.00  0.00    +0.000 A 
ATOM     17  C   UNL     1       9.927   0.409  22.101  0.00  0.00    +0.000 A 
ENDBRANCH   1  11
BRANCH   2  18
ATOM     18  C   UNL     1       6.787  -2.292  22.501  0.00  0.00    +0.000 C 
BRANCH  18  19
ATOM     19  N   UNL     1       7.030  -3.617  22.536  0.00  0.00    +0.000 NA
ATOM     20  C   UNL     1       7.816  -4.222  23.485  0.00  0.00    +0.000 C 
ATOM     21  C   UNL     1       7.023  -4.422  24.768  0.00  0.00    +0.000 C 
ATOM     22  N   UNL     1       5.632  -4.821  24.351  0.00  0.00    +0.000 N 
ATOM     23  C   UNL     1       4.870  -5.029  25.518  0.00  0.00    +0.000 C 
ATOM     24  O   UNL     1       4.962  -6.148  26.017  0.00  0.00    +0.000 OA
ATOM     25  C   UNL     1       5.534  -5.878  23.381  0.00  0.00    +0.000 C 
ATOM     26  C   UNL     1       5.783  -5.627  21.950  0.00  0.00    +0.000 C 
ATOM     27  C   UNL     1       6.575  -4.429  21.521  0.00  0.00    +0.000 C 
BRANCH  23  28
ATOM     28  C   UNL     1       4.266  -3.890  26.223  0.00  0.00    +0.000 C 
ATOM     29 CL   UNL     1       2.649  -3.469  25.666  0.00  0.00    +0.000 Cl
ENDBRANCH  23  28
ENDBRANCH  18  19
ENDBRANCH   2  18
TORSDOF 5
ENDMDL
MODEL 3
REMARK VINA RESULT:      -8.1      2.159      2.919
REMARK  Name = 
REMARK  5 active torsions:
REMARK  status: ('A' for Active; 'I' for Inactive)
REMARK    1  A    between atoms: C_11  and  N_13
REMARK    2  A    between atoms: N_13  and  C_42
REMARK    3  A    between atoms: C_14  and  C_16
REMARK    4  A    between atoms: C_16  and  N_19
REMARK    5  A    between atoms: C_27  and  C_29
REMARK                            x       y       z     vdW  Elec       q    Type
REMARK                         _______ _______ _______ _____ _____    ______ ____
ROOT
ATOM      1  N   UNL     1       7.663  -0.874  22.574  0.00  0.00    +0.000 N 
ATOM      2  C   UNL     1       7.313  -2.169  22.974  0.00  0.00    +0.000 C 
ATOM      3  O   UNL     1       8.182  -3.006  22.703  0.00  0.00    +0.000 OA
ENDROOT
BRANCH   1  10
ATOM      4  C   UNL     1       6.309  -1.601  20.573  0.00  0.00    +0.000 C 
ATOM      5  C   UNL     1       5.760  -1.315  19.297  0.00  0.00    +0.000 C 
ATOM      6  S   UNL     1       6.206   0.482  19.078  0.00  0.00    +0.000 S 
ATOM      7  O   UNL     1       7.371   0.555  18.333  0.00  0.00    +0.000 OA
ATOM      8  O   UNL     1       5.069   1.218  18.907  0.00  0.00    +0.000 OA
ATOM      9  C   UNL     1       6.770   0.770  20.869  0.00  0.00    +0.000 C 
ATOM     10  C   UNL     1       7.323  -0.620  21.146  0.00  0.00    +0.000 C 
ENDBRANCH   1  10
BRANCH   1  11
ATOM     11  C   UNL     1       8.950  -0.654  22.795  0.00  0.00    +0.000 A 
ATOM     12  C   UNL     1       9.269   0.513  21.913  0.00  0.00    +0.000 A 
ATOM     13  C   UNL     1       9.989   1.739  22.306  0.00  0.00    +0.000 A 
ATOM     14  C   UNL     1      10.376   1.711  23.758  0.00  0.00    +0.000 A 
ATOM     15  F   UNL     1      11.678   2.201  23.789  0.00  0.00    +0.000 F 
ATOM     16  C   UNL     1      10.188   0.653  24.756  0.00  0.00    +0.000 A 
ATOM     17  C   UNL     1       9.641  -0.678  24.067  0.00  0.00    +0.000 A 
ENDBRANCH   1  11
BRANCH   2  18
ATOM     18  C   UNL     1       5.876  -2.571  23.099  0.00  0.00    +0.000 C 
BRANCH  18  19
ATOM     19  N   UNL     1       5.302  -2.746  24.307  0.00  0.00    +0.000 NA
ATOM     20  C   UNL     1       4.650  -3.894  24.680  0.00  0.00    +0.000 C 
ATOM     21  C   UNL     1       5.659  -4.952  25.103  0.00  0.00    +0.000 C 
ATOM     22  N   UNL     1       6.739  -4.230  25.866  0.00  0.00    +0.000 N 
ATOM     23  C   UNL     1       7.687  -5.184  26.287  0.00  0.00    +0.000 C 
ATOM     24  O   UNL     1       7.427  -5.757  27.342  0.00  0.00    +0.000 OA
ATOM     25  C   UNL     1       6.299  -3.333  26.900  0.00  0.00    +0.000 C 
ATOM     26  C   UNL     1       5.772  -1.994  26.576  0.00  0.00    +0.000 C 
ATOM     27  C   UNL     1       5.249  -1.701  25.203  0.00  0.00    +0.000 C 
BRANCH  23  28
ATOM     28  C   UNL     1       8.733  -5.646  25.366  0.00  0.00    +0.000 C 
ATOM     29 CL   UNL     1       9.965  -4.440  25.004  0.00  0.00    +0.000 Cl
ENDBRANCH  23  28
ENDBRANCH  18  19
ENDBRANCH   2  18
TORSDOF 5
ENDMDL
MODEL 4
REMARK VINA RESULT:      -7.9      3.547      5.043
REMARK  Name = 
REMARK  5 active torsions:
REMARK  status: ('A' for Active; 'I' for Inactive)
REMARK    1  A    between atoms: C_11  and  N_13
REMARK    2  A    between atoms: N_13  and  C_42
REMARK    3  A    between atoms: C_14  and  C_16
REMARK    4  A    between atoms: C_16  and  N_19
REMARK    5  A    between atoms: C_27  and  C_29
REMARK                            x       y       z     vdW  Elec       q    Type
REMARK                         _______ _______ _______ _____ _____    ______ ____
ROOT
ATOM      1  N   UNL     1       7.966  -1.231  21.914  0.00  0.00    +0.000 N 
ATOM      2  C   UNL     1       7.609  -2.230  22.827  0.00  0.00    +0.000 C 
ATOM      3  O   UNL     1       6.531  -2.004  23.388  0.00  0.00    +0.000 OA
ENDROOT
BRANCH   1  10
ATOM      4  C   UNL     1       8.111   0.244  23.956  0.00  0.00    +0.000 C 
ATOM      5  C   UNL     1       8.840   1.163  24.754  0.00  0.00    +0.000 C 
ATOM      6  S   UNL     1      10.491   1.201  23.890  0.00  0.00    +0.000 S 
ATOM      7  O   UNL     1      10.510   2.289  23.033  0.00  0.00    +0.000 OA
ATOM      8  O   UNL     1      11.471   0.815  24.758  0.00  0.00    +0.000 OA
ATOM      9  C   UNL     1      10.160  -0.287  22.756  0.00  0.00    +0.000 C 
ATOM     10  C   UNL     1       8.662  -0.092  22.577  0.00  0.00    +0.000 C 
ENDBRANCH   1  10
BRANCH   1  11
ATOM     11  C   UNL     1       6.900  -0.806  21.252  0.00  0.00    +0.000 A 
ATOM     12  C   UNL     1       7.415   0.348  20.449  0.00  0.00    +0.000 A 
ATOM     13  C   UNL     1       7.198   0.580  19.009  0.00  0.00    +0.000 A 
ATOM     14  C   UNL     1       6.383  -0.520  18.388  0.00  0.00    +0.000 A 
ATOM     15  F   UNL     1       5.481   0.132  17.553  0.00  0.00    +0.000 F 
ATOM     16  C   UNL     1       5.767  -1.694  19.013  0.00  0.00    +0.000 A 
ATOM     17  C   UNL     1       5.890  -1.615  20.602  0.00  0.00    +0.000 A 
ENDBRANCH   1  11
BRANCH   2  18
ATOM     18  C   UNL     1       8.654  -3.072  23.490  0.00  0.00    +0.000 C 
BRANCH  18  19
ATOM     19  N   UNL     1       8.344  -4.256  24.054  0.00  0.00    +0.000 NA
ATOM     20  C   UNL     1       8.860  -4.688  25.251  0.00  0.00    +0.000 C 
ATOM     21  C   UNL     1       8.110  -4.039  26.405  0.00  0.00    +0.000 C 
ATOM     22  N   UNL     1       6.659  -3.999  26.002  0.00  0.00    +0.000 N 
ATOM     23  C   UNL     1       5.930  -3.416  27.057  0.00  0.00    +0.000 C 
ATOM     24  O   UNL     1       5.584  -4.186  27.950  0.00  0.00    +0.000 OA
ATOM     25  C   UNL     1       6.101  -5.226  25.501  0.00  0.00    +0.000 C 
ATOM     26  C   UNL     1       6.368  -5.680  24.124  0.00  0.00    +0.000 C 
ATOM     27  C   UNL     1       7.556  -5.159  23.374  0.00  0.00    +0.000 C 
BRANCH  23  28
ATOM     28  C   UNL     1       5.868  -1.955  27.198  0.00  0.00    +0.000 C 
ATOM     29 CL   UNL     1       4.711  -1.173  26.124  0.00  0.00    +0.000 Cl
ENDBRANCH  23  28
ENDBRANCH  18  19
ENDBRANCH   2  18
TORSDOF 5
ENDMDL
MODEL 5
REMARK VINA RESULT:      -7.7      3.891      7.144
REMARK  Name = 
REMARK  5 active torsions:
REMARK  status: ('A' for Active; 'I' for Inactive)
REMARK    1  A    between atoms: C_11  and  N_13
REMARK    2  A    between atoms: N_13  and  C_42
REMARK    3  A    between atoms: C_14  and  C_16
REMARK    4  A    between atoms: C_16  and  N_19
REMARK    5  A    between atoms: C_27  and  C_29
REMARK                            x       y       z     vdW  Elec       q    Type
REMARK                         _______ _______ _______ _____ _____    ______ ____
ROOT
ATOM      1  N   UNL     1       7.332  -1.309  22.533  0.00  0.00    +0.000 N 
ATOM      2  C   UNL     1       7.114  -0.483  23.642  0.00  0.00    +0.000 C 
ATOM      3  O   UNL     1       5.969  -0.583  24.097  0.00  0.00    +0.000 OA
ENDROOT
BRANCH   1  10
ATOM      4  C   UNL     1       8.017  -0.163  20.393  0.00  0.00    +0.000 C 
ATOM      5  C   UNL     1       7.704   0.259  19.075  0.00  0.00    +0.000 C 
ATOM      6  S   UNL     1       6.008  -0.474  18.827  0.00  0.00    +0.000 S 
ATOM      7  O   UNL     1       5.066   0.499  19.112  0.00  0.00    +0.000 OA
ATOM      8  O   UNL     1       6.026  -1.317  17.753  0.00  0.00    +0.000 OA
ATOM      9  C   UNL     1       6.035  -1.574  20.375  0.00  0.00    +0.000 C 
ATOM     10  C   UNL     1       6.878  -0.673  21.265  0.00  0.00    +0.000 C 
ENDBRANCH   1  10
BRANCH   1  11
ATOM     11  C   UNL     1       6.739  -2.481  22.707  0.00  0.00    +0.000 A 
ATOM     12  C   UNL     1       7.879  -3.442  22.840  0.00  0.00    +0.000 A 
ATOM     13  C   UNL     1       8.044  -4.467  23.888  0.00  0.00    +0.000 A 
ATOM     14  C   UNL     1       6.908  -4.440  24.872  0.00  0.00    +0.000 A 
ATOM     15  F   UNL     1       6.596  -5.778  25.092  0.00  0.00    +0.000 F 
ATOM     16  C   UNL     1       5.700  -3.609  24.882  0.00  0.00    +0.000 A 
ATOM     17  C   UNL     1       5.584  -2.769  23.532  0.00  0.00    +0.000 A 
ENDBRANCH   1  11
BRANCH   2  18
ATOM     18  C   UNL     1       7.904   0.775  23.827  0.00  0.00    +0.000 C 
BRANCH  18  19
ATOM     19  N   UNL     1       7.298   1.977  23.903  0.00  0.00    +0.000 NA
ATOM     20  C   UNL     1       7.376   2.801  24.998  0.00  0.00    +0.000 C 
ATOM     21  C   UNL     1       8.693   3.562  24.984  0.00  0.00    +0.000 C 
ATOM     22  N   UNL     1       8.957   3.932  23.548  0.00  0.00    +0.000 N 
ATOM     23  C   UNL     1      10.166   4.654  23.499  0.00  0.00    +0.000 C 
ATOM     24  O   UNL     1      10.071   5.859  23.714  0.00  0.00    +0.000 OA
ATOM     25  C   UNL     1       7.869   4.546  22.836  0.00  0.00    +0.000 C 
ATOM     26  C   UNL     1       6.745   3.744  22.319  0.00  0.00    +0.000 C 
ATOM     27  C   UNL     1       6.457   2.390  22.893  0.00  0.00    +0.000 C 
BRANCH  23  28
ATOM     28  C   UNL     1      11.453   3.945  23.488  0.00  0.00    +0.000 C 
ATOM     29 CL   UNL     1      12.855   4.994  23.299  0.00  0.00    +0.000 Cl
ENDBRANCH  23  28
ENDBRANCH  18  19
ENDBRANCH   2  18
TORSDOF 5
ENDMDL
MODEL 6
REMARK VINA RESULT:      -7.6      4.084      7.515
REMARK  Name = 
REMARK  5 active torsions:
REMARK  status: ('A' for Active; 'I' for Inactive)
REMARK    1  A    between atoms: C_11  and  N_13
REMARK    2  A    between atoms: N_13  and  C_42
REMARK    3  A    between atoms: C_14  and  C_16
REMARK    4  A    between atoms: C_16  and  N_19
REMARK    5  A    between atoms: C_27  and  C_29
REMARK                            x       y       z     vdW  Elec       q    Type
REMARK                         _______ _______ _______ _____ _____    ______ ____
ROOT
ATOM      1  N   UNL     1       7.139  -0.859  22.946  0.00  0.00    +0.000 N 
ATOM      2  C   UNL     1       7.696   0.360  23.349  0.00  0.00    +0.000 C 
ATOM      3  O   UNL     1       8.854   0.515  22.945  0.00  0.00    +0.000 OA
ENDROOT
BRANCH   1  10
ATOM      4  C   UNL     1       6.337  -2.879  24.228  0.00  0.00    +0.000 C 
ATOM      5  C   UNL     1       6.624  -4.084  24.918  0.00  0.00    +0.000 C 
ATOM      6  S   UNL     1       8.462  -4.252  24.657  0.00  0.00    +0.000 S 
ATOM      7  O   UNL     1       9.110  -3.736  25.766  0.00  0.00    +0.000 OA
ATOM      8  O   UNL     1       8.728  -5.429  24.018  0.00  0.00    +0.000 OA
ATOM      9  C   UNL     1       8.605  -2.884  23.346  0.00  0.00    +0.000 C 
ATOM     10  C   UNL     1       7.506  -1.971  23.868  0.00  0.00    +0.000 C 
ENDBRANCH   1  10
BRANCH   1  11
ATOM     11  C   UNL     1       7.499  -1.144  21.703  0.00  0.00    +0.000 A 
ATOM     12  C   UNL     1       6.314  -1.869  21.146  0.00  0.00    +0.000 A 
ATOM     13  C   UNL     1       5.648  -1.600  19.858  0.00  0.00    +0.000 A 
ATOM     14  C   UNL     1       6.295  -0.456  19.129  0.00  0.00    +0.000 A 
ATOM     15  F   UNL     1       6.364  -0.872  17.803  0.00  0.00    +0.000 F 
ATOM     16  C   UNL     1       7.472   0.339  19.493  0.00  0.00    +0.000 A 
ATOM     17  C   UNL     1       8.196  -0.283  20.771  0.00  0.00    +0.000 A 
ENDBRANCH   1  11
BRANCH   2  18
ATOM     18  C   UNL     1       7.220   1.047  24.591  0.00  0.00    +0.000 C 
BRANCH  18  19
ATOM     19  N   UNL     1       6.736   2.305  24.553  0.00  0.00    +0.000 NA
ATOM     20  C   UNL     1       7.008   3.254  25.507  0.00  0.00    +0.000 C 
ATOM     21  C   UNL     1       8.378   3.866  25.256  0.00  0.00    +0.000 C 
ATOM     22  N   UNL     1       8.514   4.012  23.763  0.00  0.00    +0.000 N 
ATOM     23  C   UNL     1       9.770   4.592  23.494  0.00  0.00    +0.000 C 
ATOM     24  O   UNL     1       9.807   5.818  23.544  0.00  0.00    +0.000 OA
ATOM     25  C   UNL     1       7.413   4.636  23.081  0.00  0.00    +0.000 C 
ATOM     26  C   UNL     1       6.171   3.894  22.795  0.00  0.00    +0.000 C 
ATOM     27  C   UNL     1       5.829   2.666  23.582  0.00  0.00    +0.000 C 
BRANCH  23  28
ATOM     28  C   UNL     1      10.979   3.758  23.460  0.00  0.00    +0.000 C 
ATOM     29 CL   UNL     1      12.480   4.667  23.308  0.00  0.00    +0.000 Cl
ENDBRANCH  23  28
ENDBRANCH  18  19
ENDBRANCH   2  18
TORSDOF 5
ENDMDL
MODEL 7
REMARK VINA RESULT:      -7.5      3.848      7.488
REMARK  Name = 
REMARK  5 active torsions:
REMARK  status: ('A' for Active; 'I' for Inactive)
REMARK    1  A    between atoms: C_11  and  N_13
REMARK    2  A    between atoms: N_13  and  C_42
REMARK    3  A    between atoms: C_14  and  C_16
REMARK    4  A    between atoms: C_16  and  N_19
REMARK    5  A    between atoms: C_27  and  C_29
REMARK                            x       y       z     vdW  Elec       q    Type
REMARK                         _______ _______ _______ _____ _____    ______ ____
ROOT
ATOM      1  N   UNL     1       7.586  -2.746  24.018  0.00  0.00    +0.000 N 
ATOM      2  C   UNL     1       8.691  -1.941  24.318  0.00  0.00    +0.000 C 
ATOM      3  O   UNL     1       9.745  -2.378  23.843  0.00  0.00    +0.000 OA
ENDROOT
BRANCH   1  10
ATOM      4  C   UNL     1       8.670  -4.106  25.846  0.00  0.00    +0.000 C 
ATOM      5  C   UNL     1       8.553  -5.007  26.935  0.00  0.00    +0.000 C 
ATOM      6  S   UNL     1       6.704  -5.162  27.112  0.00  0.00    +0.000 S 
ATOM      7  O   UNL     1       6.295  -6.298  26.433  0.00  0.00    +0.000 OA
ATOM      8  O   UNL     1       6.329  -4.768  28.364  0.00  0.00    +0.000 OA
ATOM      9  C   UNL     1       6.268  -3.730  25.943  0.00  0.00    +0.000 C 
ATOM     10  C   UNL     1       7.438  -3.873  24.982  0.00  0.00    +0.000 C 
ENDBRANCH   1  10
BRANCH   1  11
ATOM     11  C   UNL     1       7.668  -3.201  22.776  0.00  0.00    +0.000 A 
ATOM     12  C   UNL     1       7.768  -4.685  22.945  0.00  0.00    +0.000 A 
ATOM     13  C   UNL     1       6.975  -5.704  22.232  0.00  0.00    +0.000 A 
ATOM     14  C   UNL     1       5.993  -5.077  21.283  0.00  0.00    +0.000 A 
ATOM     15  F   UNL     1       6.070  -5.849  20.129  0.00  0.00    +0.000 F 
ATOM     16  C   UNL     1       5.780  -3.663  20.957  0.00  0.00    +0.000 A 
ATOM     17  C   UNL     1       6.909  -2.756  21.626  0.00  0.00    +0.000 A 
ENDBRANCH   1  11
BRANCH   2  18
ATOM     18  C   UNL     1       8.701  -1.079  25.542  0.00  0.00    +0.000 C 
BRANCH  18  19
ATOM     19  N   UNL     1       7.965   0.048  25.609  0.00  0.00    +0.000 NA
ATOM     20  C   UNL     1       8.490   1.310  25.475  0.00  0.00    +0.000 C 
ATOM     21  C   UNL     1       8.695   1.634  24.003  0.00  0.00    +0.000 C 
ATOM     22  N   UNL     1       7.511   1.060  23.271  0.00  0.00    +0.000 N 
ATOM     23  C   UNL     1       7.660   1.356  21.901  0.00  0.00    +0.000 C 
ATOM     24  O   UNL     1       7.248   2.459  21.550  0.00  0.00    +0.000 OA
ATOM     25  C   UNL     1       6.214   1.374  23.809  0.00  0.00    +0.000 C 
ATOM     26  C   UNL     1       5.692   0.675  24.998  0.00  0.00    +0.000 C 
ATOM     27  C   UNL     1       6.629  -0.019  25.938  0.00  0.00    +0.000 C 
BRANCH  23  28
ATOM     28  C   UNL     1       8.514   0.517  21.050  0.00  0.00    +0.000 C 
ATOM     29 CL   UNL     1       7.796   0.092  19.498  0.00  0.00    +0.000 Cl
ENDBRANCH  23  28
ENDBRANCH  18  19
ENDBRANCH   2  18
TORSDOF 5
ENDMDL
MODEL 8
REMARK VINA RESULT:      -7.5      1.783      2.252
REMARK  Name = 
REMARK  5 active torsions:
REMARK  status: ('A' for Active; 'I' for Inactive)
REMARK    1  A    between atoms: C_11  and  N_13
REMARK    2  A    between atoms: N_13  and  C_42
REMARK    3  A    between atoms: C_14  and  C_16
REMARK    4  A    between atoms: C_16  and  N_19
REMARK    5  A    between atoms: C_27  and  C_29
REMARK                            x       y       z     vdW  Elec       q    Type
REMARK                         _______ _______ _______ _____ _____    ______ ____
ROOT
ATOM      1  N   UNL     1       7.640  -0.232  22.976  0.00  0.00    +0.000 N 
ATOM      2  C   UNL     1       7.304  -1.430  23.617  0.00  0.00    +0.000 C 
ATOM      3  O   UNL     1       8.204  -2.275  23.557  0.00  0.00    +0.000 OA
ENDROOT
BRANCH   1  10
ATOM      4  C   UNL     1       6.501  -1.469  21.095  0.00  0.00    +0.000 C 
ATOM      5  C   UNL     1       6.001  -1.488  19.768  0.00  0.00    +0.000 C 
ATOM      6  S   UNL     1       6.252   0.281  19.235  0.00  0.00    +0.000 S 
ATOM      7  O   UNL     1       7.444   0.361  18.535  0.00  0.00    +0.000 OA
ATOM      8  O   UNL     1       5.051   0.829  18.887  0.00  0.00    +0.000 OA
ATOM      9  C   UNL     1       6.671   0.955  20.961  0.00  0.00    +0.000 C 
ATOM     10  C   UNL     1       7.360  -0.283  21.514  0.00  0.00    +0.000 C 
ENDBRANCH   1  10
BRANCH   1  11
ATOM     11  C   UNL     1       8.911   0.071  23.198  0.00  0.00    +0.000 A 
ATOM     12  C   UNL     1       9.341   0.756  21.939  0.00  0.00    +0.000 A 
ATOM     13  C   UNL     1      10.063   2.039  21.840  0.00  0.00    +0.000 A 
ATOM     14  C   UNL     1      10.324   2.632  23.197  0.00  0.00    +0.000 A 
ATOM     15  F   UNL     1      11.633   3.098  23.136  0.00  0.00    +0.000 F 
ATOM     16  C   UNL     1      10.018   2.095  24.527  0.00  0.00    +0.000 A 
ATOM     17  C   UNL     1       9.490   0.594  24.419  0.00  0.00    +0.000 A 
ENDBRANCH   1  11
BRANCH   2  18
ATOM     18  C   UNL     1       5.873  -1.844  23.764  0.00  0.00    +0.000 C 
BRANCH  18  19
ATOM     19  N   UNL     1       5.463  -2.580  24.817  0.00  0.00    +0.000 NA
ATOM     20  C   UNL     1       4.199  -3.103  24.935  0.00  0.00    +0.000 C 
ATOM     21  C   UNL     1       4.085  -4.377  24.110  0.00  0.00    +0.000 C 
ATOM     22  N   UNL     1       5.391  -5.109  24.274  0.00  0.00    +0.000 N 
ATOM     23  C   UNL     1       5.315  -6.306  23.534  0.00  0.00    +0.000 C 
ATOM     24  O   UNL     1       4.795  -7.255  24.114  0.00  0.00    +0.000 OA
ATOM     25  C   UNL     1       5.867  -5.273  25.621  0.00  0.00    +0.000 C 
ATOM     26  C   UNL     1       6.514  -4.162  26.343  0.00  0.00    +0.000 C 
ATOM     27  C   UNL     1       6.290  -2.747  25.906  0.00  0.00    +0.000 C 
BRANCH  23  28
ATOM     28  C   UNL     1       5.570  -6.300  22.087  0.00  0.00    +0.000 C 
ATOM     29 CL   UNL     1       7.197  -5.792  21.640  0.00  0.00    +0.000 Cl
ENDBRANCH  23  28
ENDBRANCH  18  19
ENDBRANCH   2  18
TORSDOF 5
ENDMDL
MODEL 9
REMARK VINA RESULT:      -7.5      3.942      6.714
REMARK  Name = 
REMARK  5 active torsions:
REMARK  status: ('A' for Active; 'I' for Inactive)
REMARK    1  A    between atoms: C_11  and  N_13
REMARK    2  A    between atoms: N_13  and  C_42
REMARK    3  A    between atoms: C_14  and  C_16
REMARK    4  A    between atoms: C_16  and  N_19
REMARK    5  A    between atoms: C_27  and  C_29
REMARK                            x       y       z     vdW  Elec       q    Type
REMARK                         _______ _______ _______ _____ _____    ______ ____
ROOT
ATOM      1  N   UNL     1       7.265  -1.739  24.657  0.00  0.00    +0.000 N 
ATOM      2  C   UNL     1       8.531  -1.584  25.233  0.00  0.00    +0.000 C 
ATOM      3  O   UNL     1       8.777  -2.443  26.088  0.00  0.00    +0.000 OA
ENDROOT
BRANCH   1  10
ATOM      4  C   UNL     1       6.550  -0.960  26.948  0.00  0.00    +0.000 C 
ATOM      5  C   UNL     1       5.700  -0.168  27.762  0.00  0.00    +0.000 C 
ATOM      6  S   UNL     1       4.730   0.791  26.492  0.00  0.00    +0.000 S 
ATOM      7  O   UNL     1       3.528   0.139  26.277  0.00  0.00    +0.000 OA
ATOM      8  O   UNL     1       4.922   2.129  26.684  0.00  0.00    +0.000 OA
ATOM      9  C   UNL     1       5.806   0.301  25.005  0.00  0.00    +0.000 C 
ATOM     10  C   UNL     1       6.198  -1.092  25.473  0.00  0.00    +0.000 C 
ENDBRANCH   1  10
BRANCH   1  11
ATOM     11  C   UNL     1       6.995  -3.022  24.469  0.00  0.00    +0.000 A 
ATOM     12  C   UNL     1       5.516  -3.048  24.244  0.00  0.00    +0.000 A 
ATOM     13  C   UNL     1       4.806  -3.739  23.151  0.00  0.00    +0.000 A 
ATOM     14  C   UNL     1       5.763  -4.437  22.225  0.00  0.00    +0.000 A 
ATOM     15  F   UNL     1       5.175  -5.672  21.970  0.00  0.00    +0.000 F 
ATOM     16  C   UNL     1       7.223  -4.556  22.305  0.00  0.00    +0.000 A 
ATOM     17  C   UNL     1       7.759  -3.976  23.691  0.00  0.00    +0.000 A 
ENDBRANCH   1  11
BRANCH   2  18
ATOM     18  C   UNL     1       9.191  -0.241  25.284  0.00  0.00    +0.000 C 
BRANCH  18  19
ATOM     19  N   UNL     1      10.003   0.177  24.293  0.00  0.00    +0.000 NA
ATOM     20  C   UNL     1      10.625  -0.670  23.410  0.00  0.00    +0.000 C 
ATOM     21  C   UNL     1       9.653  -1.090  22.318  0.00  0.00    +0.000 C 
ATOM     22  N   UNL     1       8.834   0.130  21.985  0.00  0.00    +0.000 N 
ATOM     23  C   UNL     1       7.929  -0.219  20.963  0.00  0.00    +0.000 C 
ATOM     24  O   UNL     1       8.369  -0.145  19.819  0.00  0.00    +0.000 OA
ATOM     25  C   UNL     1       9.566   1.344  21.742  0.00  0.00    +0.000 C 
ATOM     26  C   UNL     1      10.116   2.140  22.854  0.00  0.00    +0.000 C 
ATOM     27  C   UNL     1      10.341   1.509  24.194  0.00  0.00    +0.000 C 
BRANCH  23  28
ATOM     28  C   UNL     1       6.669  -0.900  21.288  0.00  0.00    +0.000 C 
ATOM     29 CL   UNL     1       5.838  -1.591  19.897  0.00  0.00    +0.000 Cl
ENDBRANCH  23  28
ENDBRANCH  18  19
ENDBRANCH   2  18
TORSDOF 5
ENDMDL
