MODEL 1
REMARK VINA RESULT:      -8.6      0.000      0.000
REMARK  Name = 
REMARK  4 active torsions:
REMARK  status: ('A' for Active; 'I' for Inactive)
REMARK    1  A    between atoms: C_11  and  N_13
REMARK    2  A    between atoms: N_13  and  C_40
REMARK    3  A    between atoms: N_16  and  C_17
REMARK    4  A    between atoms: N_16  and  C_28
REMARK                            x       y       z     vdW  Elec       q    Type
REMARK                         _______ _______ _______ _____ _____    ______ ____
ROOT
ATOM      1  N   UNL     1       8.770  -0.300  21.876  0.00  0.00    +0.000 N 
ATOM      2  C   UNL     1       8.901  -1.352  22.675  0.00  0.00    +0.000 C 
ATOM      3  O   UNL     1       9.718  -2.249  22.313  0.00  0.00    +0.000 OA
ATOM      4  N   UNL     1       7.743  -1.799  23.160  0.00  0.00    +0.000 N 
ENDROOT
BRANCH   1  11
ATOM      5  C   UNL     1       6.983   1.187  21.103  0.00  0.00    +0.000 C 
ATOM      6  C   UNL     1       5.924   1.419  20.137  0.00  0.00    +0.000 C 
ATOM      7  S   UNL     1       6.465   0.285  18.749  0.00  0.00    +0.000 S 
ATOM      8  O   UNL     1       6.726   0.988  17.620  0.00  0.00    +0.000 OA
ATOM      9  O   UNL     1       5.636  -0.849  18.828  0.00  0.00    +0.000 OA
ATOM     10  C   UNL     1       8.102  -0.259  19.474  0.00  0.00    +0.000 C 
ATOM     11  C   UNL     1       7.701  -0.219  20.930  0.00  0.00    +0.000 C 
ENDBRANCH   1  11
BRANCH   4  12
ATOM     12  C   UNL     1       7.203  -2.781  22.275  0.00  0.00    +0.000 A 
ATOM     13  C   UNL     1       7.832  -3.994  22.864  0.00  0.00    +0.000 A 
ATOM     14  C   UNL     1       7.162  -5.060  23.663  0.00  0.00    +0.000 A 
ATOM     15  C   UNL     1       5.661  -4.909  23.662  0.00  0.00    +0.000 A 
ATOM     16  F   UNL     1       5.342  -4.803  25.044  0.00  0.00    +0.000 F 
ATOM     17  C   UNL     1       4.867  -3.957  22.860  0.00  0.00    +0.000 A 
ATOM     18  C   UNL     1       5.740  -2.929  22.091  0.00  0.00    +0.000 A 
ENDBRANCH   4  12
BRANCH   4  19
ATOM     19  C   UNL     1       6.941  -1.453  24.196  0.00  0.00    +0.000 C 
ATOM     20  C   UNL     1       7.516  -1.808  25.610  0.00  0.00    +0.000 C 
ATOM     21  C   UNL     1       6.929  -1.241  26.761  0.00  0.00    +0.000 C 
ATOM     22  S   UNL     1       5.739  -0.025  25.998  0.00  0.00    +0.000 S 
ATOM     23  O   UNL     1       5.942   1.218  26.546  0.00  0.00    +0.000 OA
ATOM     24  O   UNL     1       4.503  -0.663  25.875  0.00  0.00    +0.000 OA
ATOM     25  C   UNL     1       6.457   0.008  24.284  0.00  0.00    +0.000 C 
ENDBRANCH   4  19
BRANCH   1  26
ATOM     26  C   UNL     1       9.626   0.701  21.985  0.00  0.00    +0.000 A 
ATOM     27  C   UNL     1      10.369   0.242  23.233  0.00  0.00    +0.000 A 
ATOM     28  C   UNL     1      10.541   0.948  24.501  0.00  0.00    +0.000 A 
ATOM     29  C   UNL     1      10.013   2.346  24.254  0.00  0.00    +0.000 A 
ATOM     30  C   UNL     1       9.319   3.058  23.273  0.00  0.00    +0.000 A 
ATOM     31  C   UNL     1       9.322   2.123  22.005  0.00  0.00    +0.000 A 
ENDBRANCH   1  26
TORSDOF 4
ENDMDL
MODEL 2
REMARK VINA RESULT:      -7.7      2.541      6.673
REMARK  Name = 
REMARK  4 active torsions:
REMARK  status: ('A' for Active; 'I' for Inactive)
REMARK    1  A    between atoms: C_11  and  N_13
REMARK    2  A    between atoms: N_13  and  C_40
REMARK    3  A    between atoms: N_16  and  C_17
REMARK    4  A    between atoms: N_16  and  C_28
REMARK                            x       y       z     vdW  Elec       q    Type
REMARK                         _______ _______ _______ _____ _____    ______ ____
ROOT
ATOM      1  N   UNL     1       7.420  -1.751  25.281  0.00  0.00    +0.000 N 
ATOM      2  C   UNL     1       8.547  -1.433  24.657  0.00  0.00    +0.000 C 
ATOM      3  O   UNL     1       9.626  -1.608  25.296  0.00  0.00    +0.000 OA
ATOM      4  N   UNL     1       8.472  -0.292  23.971  0.00  0.00    +0.000 N 
ENDROOT
BRANCH   1  11
ATOM      5  C   UNL     1       5.129  -1.264  25.998  0.00  0.00    +0.000 C 
ATOM      6  C   UNL     1       4.243  -0.367  26.719  0.00  0.00    +0.000 C 
ATOM      7  S   UNL     1       5.468   0.513  27.829  0.00  0.00    +0.000 S 
ATOM      8  O   UNL     1       5.194   0.282  29.136  0.00  0.00    +0.000 OA
ATOM      9  O   UNL     1       5.674   1.780  27.253  0.00  0.00    +0.000 OA
ATOM     10  C   UNL     1       6.991  -0.477  27.381  0.00  0.00    +0.000 C 
ATOM     11  C   UNL     1       6.633  -0.756  25.940  0.00  0.00    +0.000 C 
ENDBRANCH   1  11
BRANCH   4  12
ATOM     12  C   UNL     1       8.856   0.795  24.812  0.00  0.00    +0.000 A 
ATOM     13  C   UNL     1      10.334   0.663  24.703  0.00  0.00    +0.000 A 
ATOM     14  C   UNL     1      11.267   1.554  23.956  0.00  0.00    +0.000 A 
ATOM     15  C   UNL     1      10.578   2.798  23.450  0.00  0.00    +0.000 A 
ATOM     16  F   UNL     1      10.797   2.744  22.046  0.00  0.00    +0.000 F 
ATOM     17  C   UNL     1       9.201   3.235  23.756  0.00  0.00    +0.000 A 
ATOM     18  C   UNL     1       8.385   2.175  24.547  0.00  0.00    +0.000 A 
ENDBRANCH   4  12
BRANCH   4  19
ATOM     19  C   UNL     1       8.012   0.060  22.746  0.00  0.00    +0.000 C 
ATOM     20  C   UNL     1       9.017  -0.209  21.573  0.00  0.00    +0.000 C 
ATOM     21  C   UNL     1       8.555  -0.167  20.240  0.00  0.00    +0.000 C 
ATOM     22  S   UNL     1       6.715  -0.006  20.499  0.00  0.00    +0.000 S 
ATOM     23  O   UNL     1       6.066  -0.981  19.781  0.00  0.00    +0.000 OA
ATOM     24  O   UNL     1       6.404   1.355  20.483  0.00  0.00    +0.000 OA
ATOM     25  C   UNL     1       6.655  -0.510  22.288  0.00  0.00    +0.000 C 
ENDBRANCH   4  19
BRANCH   1  26
ATOM     26  C   UNL     1       7.007  -3.007  25.261  0.00  0.00    +0.000 A 
ATOM     27  C   UNL     1       7.754  -3.522  26.485  0.00  0.00    +0.000 A 
ATOM     28  C   UNL     1       8.707  -4.627  26.572  0.00  0.00    +0.000 A 
ATOM     29  C   UNL     1       8.642  -5.317  25.225  0.00  0.00    +0.000 A 
ATOM     30  C   UNL     1       8.080  -5.121  23.962  0.00  0.00    +0.000 A 
ATOM     31  C   UNL     1       7.059  -3.935  24.142  0.00  0.00    +0.000 A 
ENDBRANCH   1  26
TORSDOF 4
ENDMDL
MODEL 3
REMARK VINA RESULT:      -7.5      2.380      6.607
REMARK  Name = 
REMARK  4 active torsions:
REMARK  status: ('A' for Active; 'I' for Inactive)
REMARK    1  A    between atoms: C_11  and  N_13
REMARK    2  A    between atoms: N_13  and  C_40
REMARK    3  A    between atoms: N_16  and  C_17
REMARK    4  A    between atoms: N_16  and  C_28
REMARK                            x       y       z     vdW  Elec       q    Type
REMARK                         _______ _______ _______ _____ _____    ______ ____
ROOT
ATOM      1  N   UNL     1       7.857  -3.278  24.291  0.00  0.00    +0.000 N 
ATOM      2  C   UNL     1       8.917  -2.609  23.853  0.00  0.00    +0.000 C 
ATOM      3  O   UNL     1      10.022  -2.848  24.425  0.00  0.00    +0.000 OA
ATOM      4  N   UNL     1       8.671  -1.323  23.608  0.00  0.00    +0.000 N 
ENDROOT
BRANCH   1  11
ATOM      5  C   UNL     1       5.487  -2.750  24.617  0.00  0.00    +0.000 C 
ATOM      6  C   UNL     1       4.462  -2.254  25.519  0.00  0.00    +0.000 C 
ATOM      7  S   UNL     1       5.299  -2.520  27.174  0.00  0.00    +0.000 S 
ATOM      8  O   UNL     1       4.597  -3.391  27.939  0.00  0.00    +0.000 OA
ATOM      9  O   UNL     1       5.750  -1.253  27.588  0.00  0.00    +0.000 OA
ATOM     10  C   UNL     1       6.829  -3.403  26.559  0.00  0.00    +0.000 C 
ATOM     11  C   UNL     1       6.951  -2.694  25.231  0.00  0.00    +0.000 C 
ENDBRANCH   1  11
BRANCH   4  12
ATOM     12  C   UNL     1       8.915  -0.557  24.787  0.00  0.00    +0.000 A 
ATOM     13  C   UNL     1      10.303  -0.111  24.491  0.00  0.00    +0.000 A 
ATOM     14  C   UNL     1      10.748   1.259  24.104  0.00  0.00    +0.000 A 
ATOM     15  C   UNL     1       9.638   2.272  24.238  0.00  0.00    +0.000 A 
ATOM     16  F   UNL     1       9.533   2.816  22.928  0.00  0.00    +0.000 F 
ATOM     17  C   UNL     1       8.303   2.053  24.829  0.00  0.00    +0.000 A 
ATOM     18  C   UNL     1       8.026   0.564  25.174  0.00  0.00    +0.000 A 
ENDBRANCH   4  12
BRANCH   4  19
ATOM     19  C   UNL     1       8.144  -0.630  22.568  0.00  0.00    +0.000 C 
ATOM     20  C   UNL     1       9.014  -0.653  21.265  0.00  0.00    +0.000 C 
ATOM     21  C   UNL     1       8.446  -0.231  20.044  0.00  0.00    +0.000 C 
ATOM     22  S   UNL     1       6.659  -0.012  20.533  0.00  0.00    +0.000 S 
ATOM     23  O   UNL     1       5.859  -0.715  19.665  0.00  0.00    +0.000 OA
ATOM     24  O   UNL     1       6.481   1.324  20.896  0.00  0.00    +0.000 OA
ATOM     25  C   UNL     1       6.704  -0.961  22.130  0.00  0.00    +0.000 C 
ENDBRANCH   4  19
BRANCH   1  26
ATOM     26  C   UNL     1       7.623  -4.490  23.821  0.00  0.00    +0.000 A 
ATOM     27  C   UNL     1       7.469  -4.147  22.344  0.00  0.00    +0.000 A 
ATOM     28  C   UNL     1       6.331  -4.403  21.463  0.00  0.00    +0.000 A 
ATOM     29  C   UNL     1       5.400  -5.291  22.262  0.00  0.00    +0.000 A 
ATOM     30  C   UNL     1       5.259  -5.778  23.563  0.00  0.00    +0.000 A 
ATOM     31  C   UNL     1       6.619  -5.436  24.282  0.00  0.00    +0.000 A 
ENDBRANCH   1  26
TORSDOF 4
ENDMDL
MODEL 4
REMARK VINA RESULT:      -7.4      2.513      4.709
REMARK  Name = 
REMARK  4 active torsions:
REMARK  status: ('A' for Active; 'I' for Inactive)
REMARK    1  A    between atoms: C_11  and  N_13
REMARK    2  A    between atoms: N_13  and  C_40
REMARK    3  A    between atoms: N_16  and  C_17
REMARK    4  A    between atoms: N_16  and  C_28
REMARK                            x       y       z     vdW  Elec       q    Type
REMARK                         _______ _______ _______ _____ _____    ______ ____
ROOT
ATOM      1  N   UNL     1       7.149  -0.624  24.111  0.00  0.00    +0.000 N 
ATOM      2  C   UNL     1       7.007  -1.672  23.308  0.00  0.00    +0.000 C 
ATOM      3  O   UNL     1       6.506  -1.454  22.166  0.00  0.00    +0.000 OA
ATOM      4  N   UNL     1       6.554  -2.761  23.930  0.00  0.00    +0.000 N 
ENDROOT
BRANCH   1  11
ATOM      5  C   UNL     1       6.945  -0.034  26.480  0.00  0.00    +0.000 C 
ATOM      6  C   UNL     1       6.064   0.358  27.566  0.00  0.00    +0.000 C 
ATOM      7  S   UNL     1       4.608   1.036  26.604  0.00  0.00    +0.000 S 
ATOM      8  O   UNL     1       4.416   2.351  26.873  0.00  0.00    +0.000 OA
ATOM      9  O   UNL     1       3.613   0.042  26.654  0.00  0.00    +0.000 OA
ATOM     10  C   UNL     1       5.340   0.905  24.887  0.00  0.00    +0.000 C 
ATOM     11  C   UNL     1       6.180  -0.328  25.120  0.00  0.00    +0.000 C 
ENDBRANCH   1  11
BRANCH   4  12
ATOM     12  C   UNL     1       5.127  -2.776  23.886  0.00  0.00    +0.000 A 
ATOM     13  C   UNL     1       4.938  -3.811  22.833  0.00  0.00    +0.000 A 
ATOM     14  C   UNL     1       4.457  -5.209  23.019  0.00  0.00    +0.000 A 
ATOM     15  C   UNL     1       3.952  -5.452  24.420  0.00  0.00    +0.000 A 
ATOM     16  F   UNL     1       4.758  -6.531  24.876  0.00  0.00    +0.000 F 
ATOM     17  C   UNL     1       3.765  -4.444  25.482  0.00  0.00    +0.000 A 
ATOM     18  C   UNL     1       4.323  -3.045  25.101  0.00  0.00    +0.000 A 
ENDBRANCH   4  12
BRANCH   4  19
ATOM     19  C   UNL     1       7.119  -3.747  24.669  0.00  0.00    +0.000 C 
ATOM     20  C   UNL     1       8.032  -4.726  23.854  0.00  0.00    +0.000 C 
ATOM     21  C   UNL     1       8.902  -5.599  24.543  0.00  0.00    +0.000 C 
ATOM     22  S   UNL     1       8.716  -4.986  26.294  0.00  0.00    +0.000 S 
ATOM     23  O   UNL     1       9.958  -4.727  26.821  0.00  0.00    +0.000 OA
ATOM     24  O   UNL     1       7.721  -5.750  26.906  0.00  0.00    +0.000 OA
ATOM     25  C   UNL     1       7.926  -3.346  25.919  0.00  0.00    +0.000 C 
ENDBRANCH   4  19
BRANCH   1  26
ATOM     26  C   UNL     1       8.225   0.135  23.993  0.00  0.00    +0.000 A 
ATOM     27  C   UNL     1       7.691   1.148  22.989  0.00  0.00    +0.000 A 
ATOM     28  C   UNL     1       8.224   1.495  21.673  0.00  0.00    +0.000 A 
ATOM     29  C   UNL     1       9.564   0.793  21.589  0.00  0.00    +0.000 A 
ATOM     30  C   UNL     1      10.315  -0.145  22.301  0.00  0.00    +0.000 A 
ATOM     31  C   UNL     1       9.579  -0.297  23.685  0.00  0.00    +0.000 A 
ENDBRANCH   1  26
TORSDOF 4
ENDMDL
MODEL 5
REMARK VINA RESULT:      -7.4      2.992      5.273
REMARK  Name = 
REMARK  4 active torsions:
REMARK  status: ('A' for Active; 'I' for Inactive)
REMARK    1  A    between atoms: C_11  and  N_13
REMARK    2  A    between atoms: N_13  and  C_40
REMARK    3  A    between atoms: N_16  and  C_17
REMARK    4  A    between atoms: N_16  and  C_28
REMARK                            x       y       z     vdW  Elec       q    Type
REMARK                         _______ _______ _______ _____ _____    ______ ____
ROOT
ATOM      1  N   UNL     1       7.257  -1.235  22.461  0.00  0.00    +0.000 N 
ATOM      2  C   UNL     1       6.979  -0.708  23.648  0.00  0.00    +0.000 C 
ATOM      3  O   UNL     1       5.970  -1.169  24.257  0.00  0.00    +0.000 OA
ATOM      4  N   UNL     1       7.109   0.618  23.684  0.00  0.00    +0.000 N 
ENDROOT
BRANCH   1  11
ATOM      5  C   UNL     1       8.117  -0.304  20.365  0.00  0.00    +0.000 C 
ATOM      6  C   UNL     1       7.805   0.273  19.069  0.00  0.00    +0.000 C 
ATOM      7  S   UNL     1       6.049  -0.334  18.833  0.00  0.00    +0.000 S 
ATOM      8  O   UNL     1       5.953  -1.137  17.745  0.00  0.00    +0.000 OA
ATOM      9  O   UNL     1       5.218   0.767  19.108  0.00  0.00    +0.000 OA
ATOM     10  C   UNL     1       5.937  -1.418  20.354  0.00  0.00    +0.000 C 
ATOM     11  C   UNL     1       6.834  -0.599  21.252  0.00  0.00    +0.000 C 
ENDBRANCH   1  11
BRANCH   4  12
ATOM     12  C   UNL     1       5.866   1.229  23.336  0.00  0.00    +0.000 A 
ATOM     13  C   UNL     1       5.405   1.610  24.699  0.00  0.00    +0.000 A 
ATOM     14  C   UNL     1       5.352   2.981  25.283  0.00  0.00    +0.000 A 
ATOM     15  C   UNL     1       5.630   4.046  24.251  0.00  0.00    +0.000 A 
ATOM     16  F   UNL     1       6.749   4.739  24.791  0.00  0.00    +0.000 F 
ATOM     17  C   UNL     1       5.779   3.852  22.795  0.00  0.00    +0.000 A 
ATOM     18  C   UNL     1       5.806   2.357  22.377  0.00  0.00    +0.000 A 
ENDBRANCH   4  12
BRANCH   4  19
ATOM     19  C   UNL     1       8.147   1.475  23.849  0.00  0.00    +0.000 C 
ATOM     20  C   UNL     1       9.401   0.848  24.549  0.00  0.00    +0.000 C 
ATOM     21  C   UNL     1      10.633   1.535  24.510  0.00  0.00    +0.000 C 
ATOM     22  S   UNL     1      10.233   2.929  23.338  0.00  0.00    +0.000 S 
ATOM     23  O   UNL     1      11.170   2.964  22.334  0.00  0.00    +0.000 OA
ATOM     24  O   UNL     1       9.827   4.023  24.106  0.00  0.00    +0.000 OA
ATOM     25  C   UNL     1       8.675   2.224  22.611  0.00  0.00    +0.000 C 
ENDBRANCH   4  19
BRANCH   1  26
ATOM     26  C   UNL     1       7.966  -2.348  22.403  0.00  0.00    +0.000 A 
ATOM     27  C   UNL     1       6.826  -3.358  22.435  0.00  0.00    +0.000 A 
ATOM     28  C   UNL     1       6.597  -4.444  23.386  0.00  0.00    +0.000 A 
ATOM     29  C   UNL     1       7.857  -4.511  24.225  0.00  0.00    +0.000 A 
ATOM     30  C   UNL     1       9.031  -3.784  24.431  0.00  0.00    +0.000 A 
ATOM     31  C   UNL     1       9.077  -2.732  23.260  0.00  0.00    +0.000 A 
ENDBRANCH   1  26
TORSDOF 4
ENDMDL
MODEL 6
REMARK VINA RESULT:      -7.2      3.089      6.382
REMARK  Name = 
REMARK  4 active torsions:
REMARK  status: ('A' for Active; 'I' for Inactive)
REMARK    1  A    between atoms: C_11  and  N_13
REMARK    2  A    between atoms: N_13  and  C_40
REMARK    3  A    between atoms: N_16  and  C_17
REMARK    4  A    between atoms: N_16  and  C_28
REMARK                            x       y       z     vdW  Elec       q    Type
REMARK                         _______ _______ _______ _____ _____    ______ ____
ROOT
ATOM      1  N   UNL     1       6.089  -3.049  24.792  0.00  0.00    +0.000 N 
ATOM      2  C   UNL     1       5.756  -2.219  23.811  0.00  0.00    +0.000 C 
ATOM      3  O   UNL     1       5.251  -2.735  22.770  0.00  0.00    +0.000 OA
ATOM      4  N   UNL     1       6.661  -1.265  23.591  0.00  0.00    +0.000 N 
ENDROOT
BRANCH   1  11
ATOM      5  C   UNL     1       7.679  -3.835  26.482  0.00  0.00    +0.000 C 
ATOM      6  C   UNL     1       8.993  -4.389  26.753  0.00  0.00    +0.000 C 
ATOM      7  S   UNL     1       9.412  -5.122  25.082  0.00  0.00    +0.000 S 
ATOM      8  O   UNL     1       9.572  -6.466  25.166  0.00  0.00    +0.000 OA
ATOM      9  O   UNL     1      10.322  -4.231  24.484  0.00  0.00    +0.000 OA
ATOM     10  C   UNL     1       7.779  -4.794  24.231  0.00  0.00    +0.000 C 
ATOM     11  C   UNL     1       7.433  -3.509  24.947  0.00  0.00    +0.000 C 
ENDBRANCH   1  11
BRANCH   4  12
ATOM     12  C   UNL     1       7.608  -1.720  22.625  0.00  0.00    +0.000 A 
ATOM     13  C   UNL     1       7.027  -1.084  21.412  0.00  0.00    +0.000 A 
ATOM     14  C   UNL     1       7.564   0.087  20.662  0.00  0.00    +0.000 A 
ATOM     15  C   UNL     1       8.940   0.481  21.139  0.00  0.00    +0.000 A 
ATOM     16  F   UNL     1       8.773   1.838  21.531  0.00  0.00    +0.000 F 
ATOM     17  C   UNL     1       9.787  -0.249  22.103  0.00  0.00    +0.000 A 
ATOM     18  C   UNL     1       9.056  -1.442  22.778  0.00  0.00    +0.000 A 
ENDBRANCH   4  12
BRANCH   4  19
ATOM     19  C   UNL     1       6.938  -0.061  24.149  0.00  0.00    +0.000 C 
ATOM     20  C   UNL     1       5.737   0.946  24.151  0.00  0.00    +0.000 C 
ATOM     21  C   UNL     1       5.803   2.103  24.956  0.00  0.00    +0.000 C 
ATOM     22  S   UNL     1       7.362   1.780  25.927  0.00  0.00    +0.000 S 
ATOM     23  O   UNL     1       7.100   1.912  27.269  0.00  0.00    +0.000 OA
ATOM     24  O   UNL     1       8.418   2.386  25.244  0.00  0.00    +0.000 OA
ATOM     25  C   UNL     1       7.520  -0.039  25.575  0.00  0.00    +0.000 C 
ENDBRANCH   4  19
BRANCH   1  26
ATOM     26  C   UNL     1       5.163  -3.425  25.657  0.00  0.00    +0.000 A 
ATOM     27  C   UNL     1       4.678  -4.685  24.952  0.00  0.00    +0.000 A 
ATOM     28  C   UNL     1       3.325  -5.016  24.507  0.00  0.00    +0.000 A 
ATOM     29  C   UNL     1       2.438  -3.936  25.090  0.00  0.00    +0.000 A 
ATOM     30  C   UNL     1       2.556  -2.717  25.761  0.00  0.00    +0.000 A 
ATOM     31  C   UNL     1       4.070  -2.623  26.184  0.00  0.00    +0.000 A 
ENDBRANCH   1  26
TORSDOF 4
ENDMDL
MODEL 7
REMARK VINA RESULT:      -6.6      3.905      6.731
REMARK  Name = 
REMARK  4 active torsions:
REMARK  status: ('A' for Active; 'I' for Inactive)
REMARK    1  A    between atoms: C_11  and  N_13
REMARK    2  A    between atoms: N_13  and  C_40
REMARK    3  A    between atoms: N_16  and  C_17
REMARK    4  A    between atoms: N_16  and  C_28
REMARK                            x       y       z     vdW  Elec       q    Type
REMARK                         _______ _______ _______ _____ _____    ______ ____
ROOT
ATOM      1  N   UNL     1       6.148  -3.200  25.035  0.00  0.00    +0.000 N 
ATOM      2  C   UNL     1       4.936  -3.670  25.309  0.00  0.00    +0.000 C 
ATOM      3  O   UNL     1       4.004  -3.349  24.514  0.00  0.00    +0.000 OA
ATOM      4  N   UNL     1       4.624  -3.613  26.603  0.00  0.00    +0.000 N 
ENDROOT
BRANCH   1  11
ATOM      5  C   UNL     1       8.175  -2.267  26.046  0.00  0.00    +0.000 C 
ATOM      6  C   UNL     1       8.819  -1.108  26.638  0.00  0.00    +0.000 C 
ATOM      7  S   UNL     1       7.741   0.268  25.965  0.00  0.00    +0.000 S 
ATOM      8  O   UNL     1       8.459   1.111  25.183  0.00  0.00    +0.000 OA
ATOM      9  O   UNL     1       6.902   0.657  27.025  0.00  0.00    +0.000 OA
ATOM     10  C   UNL     1       6.658  -0.767  24.844  0.00  0.00    +0.000 C 
ATOM     11  C   UNL     1       6.649  -2.026  25.679  0.00  0.00    +0.000 C 
ENDBRANCH   1  11
BRANCH   4  12
ATOM     12  C   UNL     1       3.994  -2.364  26.888  0.00  0.00    +0.000 A 
ATOM     13  C   UNL     1       2.575  -2.774  26.709  0.00  0.00    +0.000 A 
ATOM     14  C   UNL     1       1.552  -2.972  27.776  0.00  0.00    +0.000 A 
ATOM     15  C   UNL     1       2.042  -2.502  29.123  0.00  0.00    +0.000 A 
ATOM     16  F   UNL     1       1.935  -3.665  29.934  0.00  0.00    +0.000 F 
ATOM     17  C   UNL     1       3.294  -1.772  29.406  0.00  0.00    +0.000 A 
ATOM     18  C   UNL     1       4.228  -1.660  28.170  0.00  0.00    +0.000 A 
ENDBRANCH   4  12
BRANCH   4  19
ATOM     19  C   UNL     1       4.874  -4.393  27.683  0.00  0.00    +0.000 C 
ATOM     20  C   UNL     1       3.890  -5.601  27.855  0.00  0.00    +0.000 C 
ATOM     21  C   UNL     1       4.217  -6.641  28.750  0.00  0.00    +0.000 C 
ATOM     22  S   UNL     1       5.959  -6.176  29.224  0.00  0.00    +0.000 S 
ATOM     23  O   UNL     1       6.789  -7.253  29.028  0.00  0.00    +0.000 OA
ATOM     24  O   UNL     1       5.890  -5.409  30.389  0.00  0.00    +0.000 OA
ATOM     25  C   UNL     1       6.294  -4.969  27.851  0.00  0.00    +0.000 C 
ENDBRANCH   4  19
BRANCH   1  26
ATOM     26  C   UNL     1       6.911  -3.853  24.176  0.00  0.00    +0.000 A 
ATOM     27  C   UNL     1       6.616  -3.034  22.926  0.00  0.00    +0.000 A 
ATOM     28  C   UNL     1       6.083  -3.490  21.643  0.00  0.00    +0.000 A 
ATOM     29  C   UNL     1       6.086  -5.002  21.725  0.00  0.00    +0.000 A 
ATOM     30  C   UNL     1       6.297  -6.011  22.667  0.00  0.00    +0.000 A 
ATOM     31  C   UNL     1       6.922  -5.285  23.917  0.00  0.00    +0.000 A 
ENDBRANCH   1  26
TORSDOF 4
ENDMDL
MODEL 8
REMARK VINA RESULT:      -6.5      2.926      4.032
REMARK  Name = 
REMARK  4 active torsions:
REMARK  status: ('A' for Active; 'I' for Inactive)
REMARK    1  A    between atoms: C_11  and  N_13
REMARK    2  A    between atoms: N_13  and  C_40
REMARK    3  A    between atoms: N_16  and  C_17
REMARK    4  A    between atoms: N_16  and  C_28
REMARK                            x       y       z     vdW  Elec       q    Type
REMARK                         _______ _______ _______ _____ _____    ______ ____
ROOT
ATOM      1  N   UNL     1       8.061  -2.795  24.309  0.00  0.00    +0.000 N 
ATOM      2  C   UNL     1       7.859  -2.602  25.607  0.00  0.00    +0.000 C 
ATOM      3  O   UNL     1       8.299  -3.491  26.394  0.00  0.00    +0.000 OA
ATOM      4  N   UNL     1       6.642  -2.140  25.893  0.00  0.00    +0.000 N 
ENDROOT
BRANCH   1  11
ATOM      5  C   UNL     1       6.888  -2.444  22.187  0.00  0.00    +0.000 C 
ATOM      6  C   UNL     1       5.931  -2.960  21.224  0.00  0.00    +0.000 C 
ATOM      7  S   UNL     1       5.951  -4.781  21.657  0.00  0.00    +0.000 S 
ATOM      8  O   UNL     1       6.385  -5.526  20.610  0.00  0.00    +0.000 OA
ATOM      9  O   UNL     1       4.776  -5.019  22.393  0.00  0.00    +0.000 OA
ATOM     10  C   UNL     1       7.321  -4.736  22.931  0.00  0.00    +0.000 C 
ATOM     11  C   UNL     1       7.042  -3.356  23.478  0.00  0.00    +0.000 C 
ENDBRANCH   1  11
BRANCH   4  12
ATOM     12  C   UNL     1       5.756  -3.237  26.115  0.00  0.00    +0.000 A 
ATOM     13  C   UNL     1       5.588  -3.106  27.587  0.00  0.00    +0.000 A 
ATOM     14  C   UNL     1       4.381  -2.622  28.318  0.00  0.00    +0.000 A 
ATOM     15  C   UNL     1       3.195  -2.454  27.401  0.00  0.00    +0.000 A 
ATOM     16  F   UNL     1       2.845  -1.085  27.568  0.00  0.00    +0.000 F 
ATOM     17  C   UNL     1       3.107  -2.855  25.983  0.00  0.00    +0.000 A 
ATOM     18  C   UNL     1       4.462  -3.338  25.399  0.00  0.00    +0.000 A 
ENDBRANCH   4  12
BRANCH   4  19
ATOM     19  C   UNL     1       6.058  -0.917  25.897  0.00  0.00    +0.000 C 
ATOM     20  C   UNL     1       6.688   0.101  26.909  0.00  0.00    +0.000 C 
ATOM     21  C   UNL     1       6.375   1.472  26.800  0.00  0.00    +0.000 C 
ATOM     22  S   UNL     1       5.419   1.499  25.200  0.00  0.00    +0.000 S 
ATOM     23  O   UNL     1       5.959   2.442  24.361  0.00  0.00    +0.000 OA
ATOM     24  O   UNL     1       4.064   1.376  25.515  0.00  0.00    +0.000 OA
ATOM     25  C   UNL     1       5.933  -0.167  24.556  0.00  0.00    +0.000 C 
ENDBRANCH   4  19
BRANCH   1  26
ATOM     26  C   UNL     1       9.214  -2.429  23.776  0.00  0.00    +0.000 A 
ATOM     27  C   UNL     1       9.609  -1.354  24.780  0.00  0.00    +0.000 A 
ATOM     28  C   UNL     1       9.908   0.056  24.535  0.00  0.00    +0.000 A 
ATOM     29  C   UNL     1       9.965   0.194  23.028  0.00  0.00    +0.000 A 
ATOM     30  C   UNL     1       9.685  -0.556  21.884  0.00  0.00    +0.000 A 
ATOM     31  C   UNL     1       9.461  -2.028  22.400  0.00  0.00    +0.000 A 
ENDBRANCH   1  26
TORSDOF 4
ENDMDL
MODEL 9
REMARK VINA RESULT:      -6.3      2.367      3.267
REMARK  Name = 
REMARK  4 active torsions:
REMARK  status: ('A' for Active; 'I' for Inactive)
REMARK    1  A    between atoms: C_11  and  N_13
REMARK    2  A    between atoms: N_13  and  C_40
REMARK    3  A    between atoms: N_16  and  C_17
REMARK    4  A    between atoms: N_16  and  C_28
REMARK                            x       y       z     vdW  Elec       q    Type
REMARK                         _______ _______ _______ _____ _____    ______ ____
ROOT
ATOM      1  N   UNL     1       8.461  -1.602  24.691  0.00  0.00    +0.000 N 
ATOM      2  C   UNL     1       8.426  -2.911  24.908  0.00  0.00    +0.000 C 
ATOM      3  O   UNL     1       9.531  -3.528  24.869  0.00  0.00    +0.000 OA
ATOM      4  N   UNL     1       7.410  -3.523  24.300  0.00  0.00    +0.000 N 
ENDROOT
BRANCH   1  11
ATOM      5  C   UNL     1       6.978  -0.023  23.548  0.00  0.00    +0.000 C 
ATOM      6  C   UNL     1       6.645   0.658  22.309  0.00  0.00    +0.000 C 
ATOM      7  S   UNL     1       8.271   0.518  21.390  0.00  0.00    +0.000 S 
ATOM      8  O   UNL     1       8.792   1.742  21.134  0.00  0.00    +0.000 OA
ATOM      9  O   UNL     1       8.093  -0.506  20.440  0.00  0.00    +0.000 OA
ATOM     10  C   UNL     1       9.283  -0.260  22.758  0.00  0.00    +0.000 C 
ATOM     11  C   UNL     1       8.174  -1.058  23.401  0.00  0.00    +0.000 C 
ENDBRANCH   1  11
BRANCH   4  12
ATOM     12  C   UNL     1       7.817  -3.944  22.999  0.00  0.00    +0.000 A 
ATOM     13  C   UNL     1       7.779  -5.417  23.208  0.00  0.00    +0.000 A 
ATOM     14  C   UNL     1       6.776  -6.379  22.668  0.00  0.00    +0.000 A 
ATOM     15  C   UNL     1       5.857  -5.732  21.662  0.00  0.00    +0.000 A 
ATOM     16  F   UNL     1       4.564  -5.949  22.215  0.00  0.00    +0.000 F 
ATOM     17  C   UNL     1       5.972  -4.371  21.102  0.00  0.00    +0.000 A 
ATOM     18  C   UNL     1       7.077  -3.520  21.787  0.00  0.00    +0.000 A 
ENDBRANCH   4  12
BRANCH   4  19
ATOM     19  C   UNL     1       6.099  -3.715  24.586  0.00  0.00    +0.000 C 
ATOM     20  C   UNL     1       5.826  -4.348  25.994  0.00  0.00    +0.000 C 
ATOM     21  C   UNL     1       4.519  -4.322  26.524  0.00  0.00    +0.000 C 
ATOM     22  S   UNL     1       3.644  -3.244  25.280  0.00  0.00    +0.000 S 
ATOM     23  O   UNL     1       3.000  -2.222  25.935  0.00  0.00    +0.000 OA
ATOM     24  O   UNL     1       3.070  -4.083  24.324  0.00  0.00    +0.000 OA
ATOM     25  C   UNL     1       5.145  -2.511  24.464  0.00  0.00    +0.000 C 
ENDBRANCH   4  19
BRANCH   1  26
ATOM     26  C   UNL     1       8.735  -0.791  25.699  0.00  0.00    +0.000 A 
ATOM     27  C   UNL     1       7.709  -1.302  26.701  0.00  0.00    +0.000 A 
ATOM     28  C   UNL     1       6.646  -0.559  27.377  0.00  0.00    +0.000 A 
ATOM     29  C   UNL     1       6.906   0.896  27.047  0.00  0.00    +0.000 A 
ATOM     30  C   UNL     1       7.726   1.664  26.217  0.00  0.00    +0.000 A 
ATOM     31  C   UNL     1       8.810   0.662  25.666  0.00  0.00    +0.000 A 
ENDBRANCH   1  26
TORSDOF 4
ENDMDL
