MODEL 1
REMARK VINA RESULT:      -8.7      0.000      0.000
REMARK  Name = 
REMARK  4 active torsions:
REMARK  status: ('A' for Active; 'I' for Inactive)
REMARK    1  A    between atoms: C_7  and  C_8
REMARK    2  A    between atoms: C_24  and  C_26
REMARK    3  A    between atoms: C_26  and  C_29
REMARK    4  A    between atoms: C_29  and  C_31
REMARK                            x       y       z     vdW  Elec       q    Type
REMARK                         _______ _______ _______ _____ _____    ______ ____
ROOT
ATOM      1  C   UNL     1       7.749   0.817  21.969  0.00  0.00    +0.000 C 
ATOM      2  C   UNL     1       9.148   0.099  21.686  0.00  0.00    +0.000 A 
ATOM      3  C   UNL     1      10.014   0.757  22.270  0.00  0.00    +0.000 A 
ATOM      4  C   UNL     1      10.647   1.062  23.685  0.00  0.00    +0.000 A 
ATOM      5  C   UNL     1      10.359  -0.290  24.269  0.00  0.00    +0.000 A 
ATOM      6  C   UNL     1       9.849  -1.515  23.901  0.00  0.00    +0.000 A 
ATOM      7  C   UNL     1       9.442  -1.261  22.352  0.00  0.00    +0.000 A 
ATOM      8  C   UNL     1       8.270  -2.035  22.273  0.00  0.00    +0.000 C 
ATOM      9  N   UNL     1       7.248  -1.497  22.914  0.00  0.00    +0.000 N 
ATOM     10  C   UNL     1       6.332  -1.962  23.887  0.00  0.00    +0.000 C 
ATOM     11  O   UNL     1       5.507  -2.704  23.291  0.00  0.00    +0.000 OA
ATOM     12  C   UNL     1       7.018  -0.265  22.630  0.00  0.00    +0.000 C 
ENDROOT
BRANCH   1  16
ATOM     13  C   UNL     1       5.295   0.278  18.746  0.00  0.00    +0.000 A 
ATOM     14  C   UNL     1       6.735  -0.184  18.680  0.00  0.00    +0.000 A 
ATOM     15  C   UNL     1       7.864   0.243  19.591  0.00  0.00    +0.000 A 
ATOM     16  C   UNL     1       7.354   1.254  20.622  0.00  0.00    +0.000 A 
ATOM     17  C   UNL     1       6.181   2.120  20.424  0.00  0.00    +0.000 A 
ATOM     18  C   UNL     1       5.144   1.527  19.516  0.00  0.00    +0.000 A 
ENDBRANCH   1  16
BRANCH  10  19
ATOM     19  C   UNL     1       7.164  -2.582  24.951  0.00  0.00    +0.000 C 
BRANCH  19  20
ATOM     20  C   UNL     1       6.343  -3.544  25.814  0.00  0.00    +0.000 C 
ATOM     21  O   UNL     1       6.203  -3.302  27.022  0.00  0.00    +0.000 OA
BRANCH  20  22
ATOM     22  C   UNL     1       6.765  -4.897  25.507  0.00  0.00    +0.000 A 
ATOM     23  C   UNL     1       5.387  -5.493  25.336  0.00  0.00    +0.000 A 
ATOM     24  C   UNL     1       4.730  -6.051  24.194  0.00  0.00    +0.000 A 
ATOM     25  C   UNL     1       5.693  -6.241  23.074  0.00  0.00    +0.000 A 
ATOM     26  C   UNL     1       7.184  -5.724  23.017  0.00  0.00    +0.000 A 
ATOM     27  C   UNL     1       7.624  -5.126  24.331  0.00  0.00    +0.000 A 
ATOM     28  O   UNL     1       7.266  -4.994  21.820  0.00  0.00    +0.000 OA
ATOM     29  C   UNL     1       6.248  -5.502  20.933  0.00  0.00    +0.000 C 
ATOM     30  O   UNL     1       5.219  -6.070  21.749  0.00  0.00    +0.000 OA
ENDBRANCH  20  22
ENDBRANCH  19  20
ENDBRANCH  10  19
TORSDOF 4
ENDMDL
MODEL 2
REMARK VINA RESULT:      -8.4      1.859      2.774
REMARK  Name = 
REMARK  4 active torsions:
REMARK  status: ('A' for Active; 'I' for Inactive)
REMARK    1  A    between atoms: C_7  and  C_8
REMARK    2  A    between atoms: C_24  and  C_26
REMARK    3  A    between atoms: C_26  and  C_29
REMARK    4  A    between atoms: C_29  and  C_31
REMARK                            x       y       z     vdW  Elec       q    Type
REMARK                         _______ _______ _______ _____ _____    ______ ____
ROOT
ATOM      1  C   UNL     1       7.653   1.745  22.782  0.00  0.00    +0.000 C 
ATOM      2  C   UNL     1       9.078   1.725  22.059  0.00  0.00    +0.000 A 
ATOM      3  C   UNL     1       9.926   1.939  22.930  0.00  0.00    +0.000 A 
ATOM      4  C   UNL     1      10.714   1.284  24.132  0.00  0.00    +0.000 A 
ATOM      5  C   UNL     1      10.695  -0.110  23.577  0.00  0.00    +0.000 A 
ATOM      6  C   UNL     1      10.302  -0.795  22.449  0.00  0.00    +0.000 A 
ATOM      7  C   UNL     1       9.643   0.384  21.550  0.00  0.00    +0.000 A 
ATOM      8  C   UNL     1       8.584  -0.324  20.951  0.00  0.00    +0.000 C 
ATOM      9  N   UNL     1       7.605  -0.604  21.794  0.00  0.00    +0.000 N 
ATOM     10  C   UNL     1       6.911  -1.784  22.149  0.00  0.00    +0.000 C 
ATOM     11  O   UNL     1       6.113  -2.040  21.209  0.00  0.00    +0.000 OA
ATOM     12  C   UNL     1       7.176   0.396  22.477  0.00  0.00    +0.000 C 
ENDROOT
BRANCH   1  16
ATOM     13  C   UNL     1       4.840   4.697  23.054  0.00  0.00    +0.000 A 
ATOM     14  C   UNL     1       4.585   3.495  22.169  0.00  0.00    +0.000 A 
ATOM     15  C   UNL     1       5.617   2.514  21.659  0.00  0.00    +0.000 A 
ATOM     16  C   UNL     1       7.011   2.910  22.156  0.00  0.00    +0.000 A 
ATOM     17  C   UNL     1       7.399   4.278  22.533  0.00  0.00    +0.000 A 
ATOM     18  C   UNL     1       6.257   5.105  23.048  0.00  0.00    +0.000 A 
ENDBRANCH   1  16
BRANCH  10  19
ATOM     19  C   UNL     1       7.964  -2.791  22.443  0.00  0.00    +0.000 C 
BRANCH  19  20
ATOM     20  C   UNL     1       7.848  -3.322  23.873  0.00  0.00    +0.000 C 
ATOM     21  O   UNL     1       8.607  -2.877  24.747  0.00  0.00    +0.000 OA
BRANCH  20  22
ATOM     22  C   UNL     1       7.770  -4.769  23.813  0.00  0.00    +0.000 A 
ATOM     23  C   UNL     1       7.223  -4.990  25.204  0.00  0.00    +0.000 A 
ATOM     24  C   UNL     1       5.972  -5.514  25.659  0.00  0.00    +0.000 A 
ATOM     25  C   UNL     1       5.214  -6.122  24.530  0.00  0.00    +0.000 A 
ATOM     26  C   UNL     1       5.584  -6.040  22.996  0.00  0.00    +0.000 A 
ATOM     27  C   UNL     1       6.930  -5.394  22.775  0.00  0.00    +0.000 A 
ATOM     28  O   UNL     1       4.426  -5.546  22.374  0.00  0.00    +0.000 OA
ATOM     29  C   UNL     1       3.304  -5.887  23.213  0.00  0.00    +0.000 C 
ATOM     30  O   UNL     1       3.800  -6.029  24.548  0.00  0.00    +0.000 OA
ENDBRANCH  20  22
ENDBRANCH  19  20
ENDBRANCH  10  19
TORSDOF 4
ENDMDL
MODEL 3
REMARK VINA RESULT:      -8.4      1.861      3.388
REMARK  Name = 
REMARK  4 active torsions:
REMARK  status: ('A' for Active; 'I' for Inactive)
REMARK    1  A    between atoms: C_7  and  C_8
REMARK    2  A    between atoms: C_24  and  C_26
REMARK    3  A    between atoms: C_26  and  C_29
REMARK    4  A    between atoms: C_29  and  C_31
REMARK                            x       y       z     vdW  Elec       q    Type
REMARK                         _______ _______ _______ _____ _____    ______ ____
ROOT
ATOM      1  C   UNL     1       7.291  -0.040  22.518  0.00  0.00    +0.000 C 
ATOM      2  C   UNL     1       8.811  -0.495  22.700  0.00  0.00    +0.000 A 
ATOM      3  C   UNL     1       9.205  -0.015  23.767  0.00  0.00    +0.000 A 
ATOM      4  C   UNL     1       9.144  -0.175  25.338  0.00  0.00    +0.000 A 
ATOM      5  C   UNL     1       8.964  -1.665  25.326  0.00  0.00    +0.000 A 
ATOM      6  C   UNL     1       8.931  -2.720  24.442  0.00  0.00    +0.000 A 
ATOM      7  C   UNL     1       9.120  -1.973  23.015  0.00  0.00    +0.000 A 
ATOM      8  C   UNL     1       8.282  -2.764  22.208  0.00  0.00    +0.000 C 
ATOM      9  N   UNL     1       6.997  -2.571  22.448  0.00  0.00    +0.000 N 
ATOM     10  C   UNL     1       5.904  -3.422  22.735  0.00  0.00    +0.000 C 
ATOM     11  O   UNL     1       5.571  -3.973  21.653  0.00  0.00    +0.000 OA
ATOM     12  C   UNL     1       6.625  -1.341  22.450  0.00  0.00    +0.000 C 
ENDROOT
BRANCH   1  16
ATOM     13  C   UNL     1       6.073   0.625  18.674  0.00  0.00    +0.000 A 
ATOM     14  C   UNL     1       7.455   0.068  18.938  0.00  0.00    +0.000 A 
ATOM     15  C   UNL     1       8.206   0.100  20.251  0.00  0.00    +0.000 A 
ATOM     16  C   UNL     1       7.369   0.808  21.319  0.00  0.00    +0.000 A 
ATOM     17  C   UNL     1       6.323   1.801  21.029  0.00  0.00    +0.000 A 
ATOM     18  C   UNL     1       5.659   1.602  19.698  0.00  0.00    +0.000 A 
ENDBRANCH   1  16
BRANCH  10  19
ATOM     19  C   UNL     1       6.368  -4.306  23.837  0.00  0.00    +0.000 C 
BRANCH  19  20
ATOM     20  C   UNL     1       5.197  -4.798  24.690  0.00  0.00    +0.000 C 
ATOM     21  O   UNL     1       4.610  -3.996  25.432  0.00  0.00    +0.000 OA
BRANCH  20  22
ATOM     22  C   UNL     1       5.593  -6.040  25.326  0.00  0.00    +0.000 A 
ATOM     23  C   UNL     1       6.922  -5.564  25.865  0.00  0.00    +0.000 A 
ATOM     24  C   UNL     1       7.397  -5.394  27.204  0.00  0.00    +0.000 A 
ATOM     25  C   UNL     1       6.452  -6.007  28.179  0.00  0.00    +0.000 A 
ATOM     26  C   UNL     1       5.016  -6.585  27.862  0.00  0.00    +0.000 A 
ATOM     27  C   UNL     1       4.732  -6.607  26.380  0.00  0.00    +0.000 A 
ATOM     28  O   UNL     1       4.159  -5.927  28.759  0.00  0.00    +0.000 OA
ATOM     29  C   UNL     1       4.949  -5.520  29.895  0.00  0.00    +0.000 C 
ATOM     30  O   UNL     1       6.302  -5.387  29.444  0.00  0.00    +0.000 OA
ENDBRANCH  20  22
ENDBRANCH  19  20
ENDBRANCH  10  19
TORSDOF 4
ENDMDL
MODEL 4
REMARK VINA RESULT:      -8.3      2.011      3.674
REMARK  Name = 
REMARK  4 active torsions:
REMARK  status: ('A' for Active; 'I' for Inactive)
REMARK    1  A    between atoms: C_7  and  C_8
REMARK    2  A    between atoms: C_24  and  C_26
REMARK    3  A    between atoms: C_26  and  C_29
REMARK    4  A    between atoms: C_29  and  C_31
REMARK                            x       y       z     vdW  Elec       q    Type
REMARK                         _______ _______ _______ _____ _____    ______ ____
ROOT
ATOM      1  C   UNL     1       7.650   1.726  22.846  0.00  0.00    +0.000 C 
ATOM      2  C   UNL     1       9.137   1.713  22.261  0.00  0.00    +0.000 A 
ATOM      3  C   UNL     1       9.904   1.768  23.226  0.00  0.00    +0.000 A 
ATOM      4  C   UNL     1      10.538   0.925  24.402  0.00  0.00    +0.000 A 
ATOM      5  C   UNL     1      10.510  -0.386  23.673  0.00  0.00    +0.000 A 
ATOM      6  C   UNL     1      10.199  -0.903  22.436  0.00  0.00    +0.000 A 
ATOM      7  C   UNL     1       9.687   0.413  21.638  0.00  0.00    +0.000 A 
ATOM      8  C   UNL     1       8.661  -0.153  20.859  0.00  0.00    +0.000 C 
ATOM      9  N   UNL     1       7.592  -0.477  21.565  0.00  0.00    +0.000 N 
ATOM     10  C   UNL     1       6.813  -1.649  21.701  0.00  0.00    +0.000 C 
ATOM     11  O   UNL     1       6.100  -1.741  20.666  0.00  0.00    +0.000 OA
ATOM     12  C   UNL     1       7.144   0.455  22.328  0.00  0.00    +0.000 C 
ENDROOT
BRANCH   1  16
ATOM     13  C   UNL     1       5.287   5.005  23.450  0.00  0.00    +0.000 A 
ATOM     14  C   UNL     1       4.810   3.892  22.542  0.00  0.00    +0.000 A 
ATOM     15  C   UNL     1       5.661   2.810  21.916  0.00  0.00    +0.000 A 
ATOM     16  C   UNL     1       7.127   2.995  22.318  0.00  0.00    +0.000 A 
ATOM     17  C   UNL     1       7.721   4.280  22.716  0.00  0.00    +0.000 A 
ATOM     18  C   UNL     1       6.741   5.223  23.350  0.00  0.00    +0.000 A 
ENDBRANCH   1  16
BRANCH  10  19
ATOM     19  C   UNL     1       7.784  -2.744  21.959  0.00  0.00    +0.000 C 
BRANCH  19  20
ATOM     20  C   UNL     1       7.259  -3.722  23.013  0.00  0.00    +0.000 C 
ATOM     21  O   UNL     1       6.123  -3.553  23.481  0.00  0.00    +0.000 OA
BRANCH  20  22
ATOM     22  C   UNL     1       8.302  -3.924  24.000  0.00  0.00    +0.000 A 
ATOM     23  C   UNL     1       7.983  -2.726  24.864  0.00  0.00    +0.000 A 
ATOM     24  C   UNL     1       7.520  -2.628  26.214  0.00  0.00    +0.000 A 
ATOM     25  C   UNL     1       7.588  -3.953  26.891  0.00  0.00    +0.000 A 
ATOM     26  C   UNL     1       7.910  -5.342  26.212  0.00  0.00    +0.000 A 
ATOM     27  C   UNL     1       8.321  -5.182  24.769  0.00  0.00    +0.000 A 
ATOM     28  O   UNL     1       6.841  -6.177  26.577  0.00  0.00    +0.000 OA
ATOM     29  C   UNL     1       6.287  -5.661  27.805  0.00  0.00    +0.000 C 
ATOM     30  O   UNL     1       6.594  -4.263  27.853  0.00  0.00    +0.000 OA
ENDBRANCH  20  22
ENDBRANCH  19  20
ENDBRANCH  10  19
TORSDOF 4
ENDMDL
MODEL 5
REMARK VINA RESULT:      -8.2      2.436      7.645
REMARK  Name = 
REMARK  4 active torsions:
REMARK  status: ('A' for Active; 'I' for Inactive)
REMARK    1  A    between atoms: C_7  and  C_8
REMARK    2  A    between atoms: C_24  and  C_26
REMARK    3  A    between atoms: C_26  and  C_29
REMARK    4  A    between atoms: C_29  and  C_31
REMARK                            x       y       z     vdW  Elec       q    Type
REMARK                         _______ _______ _______ _____ _____    ______ ____
ROOT
ATOM      1  C   UNL     1       5.557  -4.041  25.448  0.00  0.00    +0.000 C 
ATOM      2  C   UNL     1       6.181  -5.380  24.839  0.00  0.00    +0.000 A 
ATOM      3  C   UNL     1       5.316  -5.880  24.114  0.00  0.00    +0.000 A 
ATOM      4  C   UNL     1       4.610  -5.766  22.705  0.00  0.00    +0.000 A 
ATOM      5  C   UNL     1       5.799  -5.190  21.992  0.00  0.00    +0.000 A 
ATOM      6  C   UNL     1       7.121  -4.879  22.219  0.00  0.00    +0.000 A 
ATOM      7  C   UNL     1       7.298  -5.275  23.782  0.00  0.00    +0.000 A 
ATOM      8  C   UNL     1       8.181  -4.260  24.196  0.00  0.00    +0.000 C 
ATOM      9  N   UNL     1       7.605  -3.073  24.279  0.00  0.00    +0.000 N 
ATOM     10  C   UNL     1       7.905  -1.789  23.768  0.00  0.00    +0.000 C 
ATOM     11  O   UNL     1       8.850  -1.327  24.462  0.00  0.00    +0.000 OA
ATOM     12  C   UNL     1       6.510  -3.048  24.951  0.00  0.00    +0.000 C 
ENDROOT
BRANCH   1  16
ATOM     13  C   UNL     1       5.134  -6.891  28.346  0.00  0.00    +0.000 A 
ATOM     14  C   UNL     1       3.982  -5.959  28.035  0.00  0.00    +0.000 A 
ATOM     15  C   UNL     1       4.059  -4.646  27.289  0.00  0.00    +0.000 A 
ATOM     16  C   UNL     1       5.507  -4.355  26.884  0.00  0.00    +0.000 A 
ATOM     17  C   UNL     1       6.686  -4.892  27.580  0.00  0.00    +0.000 A 
ATOM     18  C   UNL     1       6.442  -6.218  28.239  0.00  0.00    +0.000 A 
ENDBRANCH   1  16
BRANCH  10  19
ATOM     19  C   UNL     1       8.159  -1.987  22.317  0.00  0.00    +0.000 C 
BRANCH  19  20
ATOM     20  C   UNL     1       7.196  -1.160  21.462  0.00  0.00    +0.000 C 
ATOM     21  O   UNL     1       6.330  -1.742  20.791  0.00  0.00    +0.000 OA
BRANCH  20  22
ATOM     22  C   UNL     1       7.972  -0.175  20.734  0.00  0.00    +0.000 A 
ATOM     23  C   UNL     1       7.014   0.982  20.897  0.00  0.00    +0.000 A 
ATOM     24  C   UNL     1       7.142   2.231  21.585  0.00  0.00    +0.000 A 
ATOM     25  C   UNL     1       8.553   2.455  22.009  0.00  0.00    +0.000 A 
ATOM     26  C   UNL     1       9.736   1.411  21.931  0.00  0.00    +0.000 A 
ATOM     27  C   UNL     1       9.330   0.152  21.205  0.00  0.00    +0.000 A 
ATOM     28  O   UNL     1      10.260   1.365  23.233  0.00  0.00    +0.000 OA
ATOM     29  C   UNL     1       9.947   2.621  23.871  0.00  0.00    +0.000 C 
ATOM     30  O   UNL     1       8.783   3.146  23.224  0.00  0.00    +0.000 OA
ENDBRANCH  20  22
ENDBRANCH  19  20
ENDBRANCH  10  19
TORSDOF 4
ENDMDL
MODEL 6
REMARK VINA RESULT:      -8.2      2.543      4.415
REMARK  Name = 
REMARK  4 active torsions:
REMARK  status: ('A' for Active; 'I' for Inactive)
REMARK    1  A    between atoms: C_7  and  C_8
REMARK    2  A    between atoms: C_24  and  C_26
REMARK    3  A    between atoms: C_26  and  C_29
REMARK    4  A    between atoms: C_29  and  C_31
REMARK                            x       y       z     vdW  Elec       q    Type
REMARK                         _______ _______ _______ _____ _____    ______ ____
ROOT
ATOM      1  C   UNL     1       8.205   1.589  23.450  0.00  0.00    +0.000 C 
ATOM      2  C   UNL     1       8.685   1.633  24.973  0.00  0.00    +0.000 A 
ATOM      3  C   UNL     1       7.666   1.665  25.669  0.00  0.00    +0.000 A 
ATOM      4  C   UNL     1       6.482   0.788  26.241  0.00  0.00    +0.000 A 
ATOM      5  C   UNL     1       7.263  -0.492  26.296  0.00  0.00    +0.000 A 
ATOM      6  C   UNL     1       8.539  -0.964  26.086  0.00  0.00    +0.000 A 
ATOM      7  C   UNL     1       9.317   0.373  25.598  0.00  0.00    +0.000 A 
ATOM      8  C   UNL     1      10.189  -0.184  24.643  0.00  0.00    +0.000 C 
ATOM      9  N   UNL     1       9.574  -0.560  23.535  0.00  0.00    +0.000 N 
ATOM     10  C   UNL     1       9.541  -1.754  22.778  0.00  0.00    +0.000 C 
ATOM     11  O   UNL     1      10.625  -1.818  22.142  0.00  0.00    +0.000 OA
ATOM     12  C   UNL     1       8.808   0.329  23.012  0.00  0.00    +0.000 C 
ENDROOT
BRANCH   1  16
ATOM     13  C   UNL     1       8.451   5.644  23.893  0.00  0.00    +0.000 A 
ATOM     14  C   UNL     1       7.529   5.057  22.846  0.00  0.00    +0.000 A 
ATOM     15  C   UNL     1       7.571   3.651  22.291  0.00  0.00    +0.000 A 
ATOM     16  C   UNL     1       8.719   2.866  22.933  0.00  0.00    +0.000 A 
ATOM     17  C   UNL     1       9.924   3.482  23.508  0.00  0.00    +0.000 A 
ATOM     18  C   UNL     1       9.695   4.866  24.041  0.00  0.00    +0.000 A 
ENDBRANCH   1  16
BRANCH  10  19
ATOM     19  C   UNL     1       9.258  -2.837  23.756  0.00  0.00    +0.000 C 
BRANCH  19  20
ATOM     20  C   UNL     1       7.896  -3.484  23.496  0.00  0.00    +0.000 C 
ATOM     21  O   UNL     1       6.864  -2.848  23.758  0.00  0.00    +0.000 OA
BRANCH  20  22
ATOM     22  C   UNL     1       7.931  -4.835  24.025  0.00  0.00    +0.000 A 
ATOM     23  C   UNL     1       8.880  -4.568  25.169  0.00  0.00    +0.000 A 
ATOM     24  C   UNL     1       8.698  -4.633  26.587  0.00  0.00    +0.000 A 
ATOM     25  C   UNL     1       7.399  -5.281  26.922  0.00  0.00    +0.000 A 
ATOM     26  C   UNL     1       6.252  -5.667  25.908  0.00  0.00    +0.000 A 
ATOM     27  C   UNL     1       6.672  -5.457  24.474  0.00  0.00    +0.000 A 
ATOM     28  O   UNL     1       5.096  -5.060  26.426  0.00  0.00    +0.000 OA
ATOM     29  C   UNL     1       5.293  -4.892  27.845  0.00  0.00    +0.000 C 
ATOM     30  O   UNL     1       6.705  -4.830  28.072  0.00  0.00    +0.000 OA
ENDBRANCH  20  22
ENDBRANCH  19  20
ENDBRANCH  10  19
TORSDOF 4
ENDMDL
MODEL 7
REMARK VINA RESULT:      -8.0      2.389      7.320
REMARK  Name = 
REMARK  4 active torsions:
REMARK  status: ('A' for Active; 'I' for Inactive)
REMARK    1  A    between atoms: C_7  and  C_8
REMARK    2  A    between atoms: C_24  and  C_26
REMARK    3  A    between atoms: C_26  and  C_29
REMARK    4  A    between atoms: C_29  and  C_31
REMARK                            x       y       z     vdW  Elec       q    Type
REMARK                         _______ _______ _______ _____ _____    ______ ____
ROOT
ATOM      1  C   UNL     1       4.111  -4.416  23.978  0.00  0.00    +0.000 C 
ATOM      2  C   UNL     1       5.359  -5.391  24.190  0.00  0.00    +0.000 A 
ATOM      3  C   UNL     1       5.436  -6.100  23.183  0.00  0.00    +0.000 A 
ATOM      4  C   UNL     1       5.890  -6.121  21.669  0.00  0.00    +0.000 A 
ATOM      5  C   UNL     1       6.981  -5.103  21.829  0.00  0.00    +0.000 A 
ATOM      6  C   UNL     1       7.605  -4.366  22.811  0.00  0.00    +0.000 A 
ATOM      7  C   UNL     1       6.785  -4.807  24.139  0.00  0.00    +0.000 A 
ATOM      8  C   UNL     1       6.770  -3.585  24.837  0.00  0.00    +0.000 C 
ATOM      9  N   UNL     1       5.959  -2.691  24.301  0.00  0.00    +0.000 N 
ATOM     10  C   UNL     1       6.101  -1.344  23.892  0.00  0.00    +0.000 C 
ATOM     11  O   UNL     1       6.111  -0.640  24.936  0.00  0.00    +0.000 OA
ATOM     12  C   UNL     1       4.768  -3.112  24.063  0.00  0.00    +0.000 C 
ENDROOT
BRANCH   1  16
ATOM     13  C   UNL     1       2.317  -7.523  25.936  0.00  0.00    +0.000 A 
ATOM     14  C   UNL     1       1.518  -6.691  24.956  0.00  0.00    +0.000 A 
ATOM     15  C   UNL     1       1.880  -5.320  24.430  0.00  0.00    +0.000 A 
ATOM     16  C   UNL     1       3.200  -4.850  25.048  0.00  0.00    +0.000 A 
ATOM     17  C   UNL     1       3.724  -5.320  26.339  0.00  0.00    +0.000 A 
ATOM     18  C   UNL     1       3.293  -6.714  26.690  0.00  0.00    +0.000 A 
ENDBRANCH   1  16
BRANCH  10  19
ATOM     19  C   UNL     1       7.317  -1.314  23.038  0.00  0.00    +0.000 C 
BRANCH  19  20
ATOM     20  C   UNL     1       6.978  -0.946  21.592  0.00  0.00    +0.000 C 
ATOM     21  O   UNL     1       6.331  -1.747  20.901  0.00  0.00    +0.000 OA
BRANCH  20  22
ATOM     22  C   UNL     1       8.178  -0.429  20.965  0.00  0.00    +0.000 A 
ATOM     23  C   UNL     1       7.840   1.039  21.087  0.00  0.00    +0.000 A 
ATOM     24  C   UNL     1       8.461   2.097  21.824  0.00  0.00    +0.000 A 
ATOM     25  C   UNL     1       9.775   1.657  22.371  0.00  0.00    +0.000 A 
ATOM     26  C   UNL     1      10.356   0.188  22.356  0.00  0.00    +0.000 A 
ATOM     27  C   UNL     1       9.489  -0.754  21.557  0.00  0.00    +0.000 A 
ATOM     28  O   UNL     1      10.684  -0.082  23.695  0.00  0.00    +0.000 OA
ATOM     29  C   UNL     1      10.920   1.183  24.347  0.00  0.00    +0.000 C 
ATOM     30  O   UNL     1      10.185   2.177  23.624  0.00  0.00    +0.000 OA
ENDBRANCH  20  22
ENDBRANCH  19  20
ENDBRANCH  10  19
TORSDOF 4
ENDMDL
MODEL 8
REMARK VINA RESULT:      -7.8      2.282      7.162
REMARK  Name = 
REMARK  4 active torsions:
REMARK  status: ('A' for Active; 'I' for Inactive)
REMARK    1  A    between atoms: C_7  and  C_8
REMARK    2  A    between atoms: C_24  and  C_26
REMARK    3  A    between atoms: C_26  and  C_29
REMARK    4  A    between atoms: C_29  and  C_31
REMARK                            x       y       z     vdW  Elec       q    Type
REMARK                         _______ _______ _______ _____ _____    ______ ____
ROOT
ATOM      1  C   UNL     1       6.016  -4.683  25.499  0.00  0.00    +0.000 C 
ATOM      2  C   UNL     1       6.975  -5.311  24.386  0.00  0.00    +0.000 A 
ATOM      3  C   UNL     1       6.320  -5.374  23.342  0.00  0.00    +0.000 A 
ATOM      4  C   UNL     1       5.755  -4.522  22.137  0.00  0.00    +0.000 A 
ATOM      5  C   UNL     1       6.857  -3.503  22.149  0.00  0.00    +0.000 A 
ATOM      6  C   UNL     1       8.049  -3.241  22.785  0.00  0.00    +0.000 A 
ATOM      7  C   UNL     1       8.146  -4.468  23.842  0.00  0.00    +0.000 A 
ATOM      8  C   UNL     1       8.739  -3.808  24.934  0.00  0.00    +0.000 C 
ATOM      9  N   UNL     1       7.914  -2.982  25.552  0.00  0.00    +0.000 N 
ATOM     10  C   UNL     1       7.979  -1.623  25.939  0.00  0.00    +0.000 C 
ATOM     11  O   UNL     1       8.723  -1.563  26.953  0.00  0.00    +0.000 OA
ATOM     12  C   UNL     1       6.776  -3.489  25.870  0.00  0.00    +0.000 C 
ENDROOT
BRANCH   1  16
ATOM     13  C   UNL     1       4.389  -6.078  28.979  0.00  0.00    +0.000 A 
ATOM     14  C   UNL     1       5.845  -5.663  28.944  0.00  0.00    +0.000 A 
ATOM     15  C   UNL     1       6.702  -5.481  27.711  0.00  0.00    +0.000 A 
ATOM     16  C   UNL     1       5.888  -5.795  26.452  0.00  0.00    +0.000 A 
ATOM     17  C   UNL     1       4.713  -6.680  26.425  0.00  0.00    +0.000 A 
ATOM     18  C   UNL     1       3.959  -6.717  27.722  0.00  0.00    +0.000 A 
ENDBRANCH   1  16
BRANCH  10  19
ATOM     19  C   UNL     1       8.417  -0.885  24.726  0.00  0.00    +0.000 C 
BRANCH  19  20
ATOM     20  C   UNL     1       7.327   0.064  24.223  0.00  0.00    +0.000 C 
ATOM     21  O   UNL     1       6.288  -0.410  23.740  0.00  0.00    +0.000 OA
BRANCH  20  22
ATOM     22  C   UNL     1       7.959   1.092  23.420  0.00  0.00    +0.000 A 
ATOM     23  C   UNL     1       9.001   0.213  22.768  0.00  0.00    +0.000 A 
ATOM     24  C   UNL     1       9.200  -0.169  21.404  0.00  0.00    +0.000 A 
ATOM     25  C   UNL     1       8.333   0.637  20.500  0.00  0.00    +0.000 A 
ATOM     26  C   UNL     1       7.186   1.631  20.936  0.00  0.00    +0.000 A 
ATOM     27  C   UNL     1       7.147   1.825  22.432  0.00  0.00    +0.000 A 
ATOM     28  O   UNL     1       6.052   1.204  20.226  0.00  0.00    +0.000 OA
ATOM     29  C   UNL     1       6.513   0.514  19.046  0.00  0.00    +0.000 C 
ATOM     30  O   UNL     1       7.824   0.014  19.333  0.00  0.00    +0.000 OA
ENDBRANCH  20  22
ENDBRANCH  19  20
ENDBRANCH  10  19
TORSDOF 4
ENDMDL
MODEL 9
REMARK VINA RESULT:      -7.7      2.317      6.909
REMARK  Name = 
REMARK  4 active torsions:
REMARK  status: ('A' for Active; 'I' for Inactive)
REMARK    1  A    between atoms: C_7  and  C_8
REMARK    2  A    between atoms: C_24  and  C_26
REMARK    3  A    between atoms: C_26  and  C_29
REMARK    4  A    between atoms: C_29  and  C_31
REMARK                            x       y       z     vdW  Elec       q    Type
REMARK                         _______ _______ _______ _____ _____    ______ ____
ROOT
ATOM      1  C   UNL     1       5.847  -5.191  24.214  0.00  0.00    +0.000 C 
ATOM      2  C   UNL     1       5.668  -4.449  25.618  0.00  0.00    +0.000 A 
ATOM      3  C   UNL     1       6.284  -5.113  26.456  0.00  0.00    +0.000 A 
ATOM      4  C   UNL     1       7.725  -5.452  27.008  0.00  0.00    +0.000 A 
ATOM      5  C   UNL     1       8.329  -4.121  26.667  0.00  0.00    +0.000 A 
ATOM      6  C   UNL     1       7.967  -2.892  26.164  0.00  0.00    +0.000 A 
ATOM      7  C   UNL     1       6.389  -3.105  25.854  0.00  0.00    +0.000 A 
ATOM      8  C   UNL     1       6.262  -2.343  24.678  0.00  0.00    +0.000 C 
ATOM      9  N   UNL     1       6.825  -2.912  23.627  0.00  0.00    +0.000 N 
ATOM     10  C   UNL     1       7.754  -2.486  22.648  0.00  0.00    +0.000 C 
ATOM     11  O   UNL     1       7.132  -1.736  21.851  0.00  0.00    +0.000 OA
ATOM     12  C   UNL     1       6.493  -4.138  23.430  0.00  0.00    +0.000 C 
ENDROOT
BRANCH   1  16
ATOM     13  C   UNL     1       2.081  -5.957  25.605  0.00  0.00    +0.000 A 
ATOM     14  C   UNL     1       2.993  -7.107  25.234  0.00  0.00    +0.000 A 
ATOM     15  C   UNL     1       4.239  -7.031  24.381  0.00  0.00    +0.000 A 
ATOM     16  C   UNL     1       4.466  -5.593  23.906  0.00  0.00    +0.000 A 
ATOM     17  C   UNL     1       3.401  -4.588  23.768  0.00  0.00    +0.000 A 
ATOM     18  C   UNL     1       2.255  -4.795  24.714  0.00  0.00    +0.000 A 
ENDBRANCH   1  16
BRANCH  10  19
ATOM     19  C   UNL     1       8.883  -1.887  23.407  0.00  0.00    +0.000 C 
BRANCH  19  20
ATOM     20  C   UNL     1       9.886  -1.205  22.473  0.00  0.00    +0.000 C 
ATOM     21  O   UNL     1      10.941  -1.791  22.188  0.00  0.00    +0.000 OA
BRANCH  20  22
ATOM     22  C   UNL     1      10.048   0.167  22.911  0.00  0.00    +0.000 A 
ATOM     23  C   UNL     1       9.513   0.831  21.663  0.00  0.00    +0.000 A 
ATOM     24  C   UNL     1       8.355   1.642  21.444  0.00  0.00    +0.000 A 
ATOM     25  C   UNL     1       7.735   2.036  22.739  0.00  0.00    +0.000 A 
ATOM     26  C   UNL     1       8.123   1.494  24.172  0.00  0.00    +0.000 A 
ATOM     27  C   UNL     1       9.348   0.615  24.129  0.00  0.00    +0.000 A 
ATOM     28  O   UNL     1       6.914   1.035  24.721  0.00  0.00    +0.000 OA
ATOM     29  C   UNL     1       5.843   1.754  24.075  0.00  0.00    +0.000 C 
ATOM     30  O   UNL     1       6.325   2.168  22.792  0.00  0.00    +0.000 OA
ENDBRANCH  20  22
ENDBRANCH  19  20
ENDBRANCH  10  19
TORSDOF 4
ENDMDL
