MODEL 1
REMARK VINA RESULT:      -8.9      0.000      0.000
REMARK  Name = 
REMARK  5 active torsions:
REMARK  status: ('A' for Active; 'I' for Inactive)
REMARK    1  A    between atoms: C_7  and  C_8
REMARK    2  A    between atoms: C_24  and  C_26
REMARK    3  A    between atoms: N_28  and  C_30
REMARK    4  A    between atoms: C_30  and  C_33
REMARK    5  A    between atoms: C_33  and  C_36
REMARK                            x       y       z     vdW  Elec       q    Type
REMARK                         _______ _______ _______ _____ _____    ______ ____
ROOT
ATOM      1  C   UNL     1      10.082   1.158  22.669  0.00  0.00    +0.000 C 
ATOM      2  C   UNL     1       9.053   1.293  21.719  0.00  0.00    +0.000 A 
ATOM      3  C   UNL     1       7.870   1.906  22.045  0.00  0.00    +0.000 A 
ATOM      4  C   UNL     1       6.758   1.997  21.134  0.00  0.00    +0.000 A 
ATOM      5  C   UNL     1       6.943   0.860  20.117  0.00  0.00    +0.000 A 
ATOM      6  C   UNL     1       7.938  -0.060  19.821  0.00  0.00    +0.000 A 
ATOM      7  C   UNL     1       8.815  -0.151  21.052  0.00  0.00    +0.000 A 
ATOM      8  C   UNL     1       8.665  -1.449  21.831  0.00  0.00    +0.000 C 
ATOM      9  N   UNL     1       9.654  -1.395  22.677  0.00  0.00    +0.000 N 
ATOM     10  C   UNL     1       9.822  -2.210  23.829  0.00  0.00    +0.000 C 
ATOM     11  O   UNL     1      10.455  -3.136  23.455  0.00  0.00    +0.000 OA
ATOM     12  C   UNL     1      10.409  -0.315  22.888  0.00  0.00    +0.000 C 
ENDROOT
BRANCH   1  16
ATOM     13  C   UNL     1       8.219   4.300  24.465  0.00  0.00    +0.000 A 
ATOM     14  C   UNL     1       9.561   4.477  23.830  0.00  0.00    +0.000 A 
ATOM     15  C   UNL     1      10.573   3.416  23.500  0.00  0.00    +0.000 A 
ATOM     16  C   UNL     1      10.024   2.062  23.825  0.00  0.00    +0.000 A 
ATOM     17  C   UNL     1       8.979   1.786  24.901  0.00  0.00    +0.000 A 
ATOM     18  C   UNL     1       8.073   3.000  25.153  0.00  0.00    +0.000 A 
ENDBRANCH   1  16
BRANCH  10  19
ATOM     19  C   UNL     1       8.582  -2.493  24.183  0.00  0.00    +0.000 C 
ATOM     20  O   UNL     1       8.163  -1.761  24.996  0.00  0.00    +0.000 OA
ATOM     21  N   UNL     1       8.222  -3.777  23.995  0.00  0.00    +0.000 N 
ATOM     22  H   UNL     1       9.007  -4.300  23.766  0.00  0.00    +0.000 HD
BRANCH  21  23
ATOM     23  C   UNL     1       7.032  -3.975  23.161  0.00  0.00    +0.000 C 
BRANCH  23  24
ATOM     24  C   UNL     1       6.533  -5.434  23.592  0.00  0.00    +0.000 C 
BRANCH  24  25
ATOM     25  C   UNL     1       5.269  -5.321  24.131  0.00  0.00    +0.000 C 
ATOM     26  C   UNL     1       4.446  -4.023  24.069  0.00  0.00    +0.000 C 
ATOM     27  N   UNL     1       3.449  -4.021  25.082  0.00  0.00    +0.000 N 
ATOM     28  H   UNL     1       2.620  -4.206  24.745  0.00  0.00    +0.000 HD
ATOM     29  C   UNL     1       3.735  -5.068  26.035  0.00  0.00    +0.000 A 
ATOM     30  C   UNL     1       3.938  -4.155  27.210  0.00  0.00    +0.000 A 
ATOM     31  C   UNL     1       5.204  -3.853  27.920  0.00  0.00    +0.000 A 
ATOM     32  C   UNL     1       6.335  -4.711  27.411  0.00  0.00    +0.000 A 
ATOM     33  F   UNL     1       7.389  -3.819  27.205  0.00  0.00    +0.000 F 
ATOM     34  C   UNL     1       6.309  -5.766  26.408  0.00  0.00    +0.000 A 
ATOM     35  C   UNL     1       4.972  -5.783  25.586  0.00  0.00    +0.000 A 
ENDBRANCH  24  25
ENDBRANCH  23  24
ENDBRANCH  21  23
ENDBRANCH  10  19
TORSDOF 5
ENDMDL
MODEL 2
REMARK VINA RESULT:      -8.9      1.851      2.580
REMARK  Name = 
REMARK  5 active torsions:
REMARK  status: ('A' for Active; 'I' for Inactive)
REMARK    1  A    between atoms: C_7  and  C_8
REMARK    2  A    between atoms: C_24  and  C_26
REMARK    3  A    between atoms: N_28  and  C_30
REMARK    4  A    between atoms: C_30  and  C_33
REMARK    5  A    between atoms: C_33  and  C_36
REMARK                            x       y       z     vdW  Elec       q    Type
REMARK                         _______ _______ _______ _____ _____    ______ ____
ROOT
ATOM      1  C   UNL     1       8.192   2.242  21.649  0.00  0.00    +0.000 C 
ATOM      2  C   UNL     1       7.332   1.875  20.596  0.00  0.00    +0.000 A 
ATOM      3  C   UNL     1       5.971   1.937  20.746  0.00  0.00    +0.000 A 
ATOM      4  C   UNL     1       5.051   1.497  19.729  0.00  0.00    +0.000 A 
ATOM      5  C   UNL     1       5.825   0.500  18.853  0.00  0.00    +0.000 A 
ATOM      6  C   UNL     1       7.143   0.082  18.747  0.00  0.00    +0.000 A 
ATOM      7  C   UNL     1       7.811   0.437  20.058  0.00  0.00    +0.000 A 
ATOM      8  C   UNL     1       8.120  -0.759  20.945  0.00  0.00    +0.000 C 
ATOM      9  N   UNL     1       8.878  -0.244  21.872  0.00  0.00    +0.000 N 
ATOM     10  C   UNL     1       9.223  -0.849  23.110  0.00  0.00    +0.000 C 
ATOM     11  O   UNL     1      10.229  -1.432  22.892  0.00  0.00    +0.000 OA
ATOM     12  C   UNL     1       9.076   1.065  22.044  0.00  0.00    +0.000 C 
ENDROOT
BRANCH   1  16
ATOM     13  C   UNL     1       8.868   4.755  24.780  0.00  0.00    +0.000 A 
ATOM     14  C   UNL     1       8.381   3.361  25.018  0.00  0.00    +0.000 A 
ATOM     15  C   UNL     1       7.693   2.444  24.045  0.00  0.00    +0.000 A 
ATOM     16  C   UNL     1       7.612   3.091  22.698  0.00  0.00    +0.000 A 
ATOM     17  C   UNL     1       7.571   4.597  22.460  0.00  0.00    +0.000 A 
ATOM     18  C   UNL     1       8.264   5.381  23.584  0.00  0.00    +0.000 A 
ENDBRANCH   1  16
BRANCH  10  19
ATOM     19  C   UNL     1       8.183  -1.618  23.371  0.00  0.00    +0.000 C 
ATOM     20  O   UNL     1       7.334  -1.054  23.949  0.00  0.00    +0.000 OA
ATOM     21  N   UNL     1       8.456  -2.936  23.429  0.00  0.00    +0.000 N 
ATOM     22  H   UNL     1       9.419  -3.065  23.413  0.00  0.00    +0.000 HD
BRANCH  21  23
ATOM     23  C   UNL     1       7.664  -3.777  22.527  0.00  0.00    +0.000 C 
BRANCH  23  24
ATOM     24  C   UNL     1       7.468  -5.123  23.373  0.00  0.00    +0.000 C 
BRANCH  24  25
ATOM     25  C   UNL     1       7.641  -4.827  24.708  0.00  0.00    +0.000 C 
ATOM     26  C   UNL     1       8.498  -5.686  25.652  0.00  0.00    +0.000 C 
ATOM     27  N   UNL     1       8.120  -5.463  27.004  0.00  0.00    +0.000 N 
ATOM     28  H   UNL     1       8.718  -4.927  27.440  0.00  0.00    +0.000 HD
ATOM     29  C   UNL     1       6.858  -4.763  27.037  0.00  0.00    +0.000 A 
ATOM     30  C   UNL     1       6.097  -5.853  27.738  0.00  0.00    +0.000 A 
ATOM     31  C   UNL     1       5.030  -6.720  27.182  0.00  0.00    +0.000 A 
ATOM     32  C   UNL     1       4.648  -6.292  25.787  0.00  0.00    +0.000 A 
ATOM     33  F   UNL     1       4.629  -7.475  25.047  0.00  0.00    +0.000 F 
ATOM     34  C   UNL     1       5.138  -5.166  25.005  0.00  0.00    +0.000 A 
ATOM     35  C   UNL     1       6.424  -4.515  25.625  0.00  0.00    +0.000 A 
ENDBRANCH  24  25
ENDBRANCH  23  24
ENDBRANCH  21  23
ENDBRANCH  10  19
TORSDOF 5
ENDMDL
MODEL 3
REMARK VINA RESULT:      -8.8      2.696      8.720
REMARK  Name = 
REMARK  5 active torsions:
REMARK  status: ('A' for Active; 'I' for Inactive)
REMARK    1  A    between atoms: C_7  and  C_8
REMARK    2  A    between atoms: C_24  and  C_26
REMARK    3  A    between atoms: N_28  and  C_30
REMARK    4  A    between atoms: C_30  and  C_33
REMARK    5  A    between atoms: C_33  and  C_36
REMARK                            x       y       z     vdW  Elec       q    Type
REMARK                         _______ _______ _______ _____ _____    ______ ____
ROOT
ATOM      1  C   UNL     1       4.464  -6.902  24.907  0.00  0.00    +0.000 C 
ATOM      2  C   UNL     1       4.863  -6.356  26.142  0.00  0.00    +0.000 A 
ATOM      3  C   UNL     1       4.025  -5.535  26.853  0.00  0.00    +0.000 A 
ATOM      4  C   UNL     1       4.417  -4.890  28.078  0.00  0.00    +0.000 A 
ATOM      5  C   UNL     1       5.952  -4.824  28.057  0.00  0.00    +0.000 A 
ATOM      6  C   UNL     1       6.960  -5.340  27.256  0.00  0.00    +0.000 A 
ATOM      7  C   UNL     1       6.314  -5.696  25.934  0.00  0.00    +0.000 A 
ATOM      8  C   UNL     1       6.686  -4.768  24.788  0.00  0.00    +0.000 C 
ATOM      9  N   UNL     1       6.217  -5.392  23.745  0.00  0.00    +0.000 N 
ATOM     10  C   UNL     1       6.036  -4.845  22.447  0.00  0.00    +0.000 C 
ATOM     11  O   UNL     1       7.048  -5.073  21.879  0.00  0.00    +0.000 OA
ATOM     12  C   UNL     1       5.414  -6.458  23.802  0.00  0.00    +0.000 C 
ENDROOT
BRANCH   1  16
ATOM     13  C   UNL     1       1.455  -8.140  22.460  0.00  0.00    +0.000 A 
ATOM     14  C   UNL     1       1.872  -6.704  22.481  0.00  0.00    +0.000 A 
ATOM     15  C   UNL     1       2.630  -5.979  23.559  0.00  0.00    +0.000 A 
ATOM     16  C   UNL     1       3.018  -6.932  24.645  0.00  0.00    +0.000 A 
ATOM     17  C   UNL     1       2.252  -8.201  25.000  0.00  0.00    +0.000 A 
ATOM     18  C   UNL     1       1.483  -8.769  23.797  0.00  0.00    +0.000 A 
ENDBRANCH   1  16
BRANCH  10  19
ATOM     19  C   UNL     1       5.811  -3.567  22.685  0.00  0.00    +0.000 C 
ATOM     20  O   UNL     1       4.695  -3.347  22.967  0.00  0.00    +0.000 OA
ATOM     21  N   UNL     1       6.670  -2.722  22.085  0.00  0.00    +0.000 N 
ATOM     22  H   UNL     1       7.219  -3.216  21.454  0.00  0.00    +0.000 HD
BRANCH  21  23
ATOM     23  C   UNL     1       7.370  -1.800  22.985  0.00  0.00    +0.000 C 
BRANCH  23  24
ATOM     24  C   UNL     1       8.912  -2.118  22.694  0.00  0.00    +0.000 C 
BRANCH  24  25
ATOM     25  C   UNL     1       9.682  -1.376  23.566  0.00  0.00    +0.000 C 
ATOM     26  C   UNL     1       9.164  -0.880  24.926  0.00  0.00    +0.000 C 
ATOM     27  N   UNL     1       9.937   0.224  25.376  0.00  0.00    +0.000 N 
ATOM     28  H   UNL     1      10.528  -0.018  26.030  0.00  0.00    +0.000 HD
ATOM     29  C   UNL     1      10.735   0.726  24.283  0.00  0.00    +0.000 A 
ATOM     30  C   UNL     1      10.099   2.086  24.239  0.00  0.00    +0.000 A 
ATOM     31  C   UNL     1       9.214   2.643  23.188  0.00  0.00    +0.000 A 
ATOM     32  C   UNL     1       9.107   1.709  22.010  0.00  0.00    +0.000 A 
ATOM     33  F   UNL     1       7.740   1.638  21.737  0.00  0.00    +0.000 F 
ATOM     34  C   UNL     1       9.776   0.435  21.783  0.00  0.00    +0.000 A 
ATOM     35  C   UNL     1      10.464  -0.123  23.079  0.00  0.00    +0.000 A 
ENDBRANCH  24  25
ENDBRANCH  23  24
ENDBRANCH  21  23
ENDBRANCH  10  19
TORSDOF 5
ENDMDL
MODEL 4
REMARK VINA RESULT:      -8.7      2.282      8.009
REMARK  Name = 
REMARK  5 active torsions:
REMARK  status: ('A' for Active; 'I' for Inactive)
REMARK    1  A    between atoms: C_7  and  C_8
REMARK    2  A    between atoms: C_24  and  C_26
REMARK    3  A    between atoms: N_28  and  C_30
REMARK    4  A    between atoms: C_30  and  C_33
REMARK    5  A    between atoms: C_33  and  C_36
REMARK                            x       y       z     vdW  Elec       q    Type
REMARK                         _______ _______ _______ _____ _____    ______ ____
ROOT
ATOM      1  C   UNL     1       5.555  -6.095  24.448  0.00  0.00    +0.000 C 
ATOM      2  C   UNL     1       6.685  -5.802  25.235  0.00  0.00    +0.000 A 
ATOM      3  C   UNL     1       6.571  -5.058  26.382  0.00  0.00    +0.000 A 
ATOM      4  C   UNL     1       7.706  -4.664  27.175  0.00  0.00    +0.000 A 
ATOM      5  C   UNL     1       8.921  -4.706  26.236  0.00  0.00    +0.000 A 
ATOM      6  C   UNL     1       9.167  -5.146  24.944  0.00  0.00    +0.000 A 
ATOM      7  C   UNL     1       7.821  -5.221  24.256  0.00  0.00    +0.000 A 
ATOM      8  C   UNL     1       7.592  -4.137  23.213  0.00  0.00    +0.000 C 
ATOM      9  N   UNL     1       6.507  -4.537  22.613  0.00  0.00    +0.000 N 
ATOM     10  C   UNL     1       5.689  -3.761  21.748  0.00  0.00    +0.000 C 
ATOM     11  O   UNL     1       6.121  -3.960  20.665  0.00  0.00    +0.000 OA
ATOM     12  C   UNL     1       5.732  -5.535  23.042  0.00  0.00    +0.000 C 
ENDROOT
BRANCH   1  16
ATOM     13  C   UNL     1       1.546  -6.777  24.261  0.00  0.00    +0.000 A 
ATOM     14  C   UNL     1       2.088  -5.393  24.097  0.00  0.00    +0.000 A 
ATOM     15  C   UNL     1       3.429  -4.869  24.530  0.00  0.00    +0.000 A 
ATOM     16  C   UNL     1       4.251  -5.976  25.112  0.00  0.00    +0.000 A 
ATOM     17  C   UNL     1       3.678  -7.213  25.796  0.00  0.00    +0.000 A 
ATOM     18  C   UNL     1       2.276  -7.566  25.277  0.00  0.00    +0.000 A 
ENDBRANCH   1  16
BRANCH  10  19
ATOM     19  C   UNL     1       5.857  -2.531  22.195  0.00  0.00    +0.000 C 
ATOM     20  O   UNL     1       5.358  -2.356  23.241  0.00  0.00    +0.000 OA
ATOM     21  N   UNL     1       6.063  -1.607  21.238  0.00  0.00    +0.000 N 
ATOM     22  H   UNL     1       5.899  -2.005  20.366  0.00  0.00    +0.000 HD
BRANCH  21  23
ATOM     23  C   UNL     1       7.294  -0.823  21.382  0.00  0.00    +0.000 C 
BRANCH  23  24
ATOM     24  C   UNL     1       6.813   0.445  22.233  0.00  0.00    +0.000 C 
BRANCH  24  25
ATOM     25  C   UNL     1       7.822   1.384  22.224  0.00  0.00    +0.000 C 
ATOM     26  C   UNL     1       9.074   1.260  21.340  0.00  0.00    +0.000 C 
ATOM     27  N   UNL     1      10.131   2.051  21.864  0.00  0.00    +0.000 N 
ATOM     28  H   UNL     1      10.244   2.825  21.391  0.00  0.00    +0.000 HD
ATOM     29  C   UNL     1       9.803   2.453  23.212  0.00  0.00    +0.000 A 
ATOM     30  C   UNL     1      10.951   1.738  23.868  0.00  0.00    +0.000 A 
ATOM     31  C   UNL     1      10.896   0.544  24.746  0.00  0.00    +0.000 A 
ATOM     32  C   UNL     1       9.473   0.159  25.060  0.00  0.00    +0.000 A 
ATOM     33  F   UNL     1       9.423  -1.219  24.843  0.00  0.00    +0.000 F 
ATOM     34  C   UNL     1       8.235   0.818  24.669  0.00  0.00    +0.000 A 
ATOM     35  C   UNL     1       8.454   1.897  23.549  0.00  0.00    +0.000 A 
ENDBRANCH  24  25
ENDBRANCH  23  24
ENDBRANCH  21  23
ENDBRANCH  10  19
TORSDOF 5
ENDMDL
MODEL 5
REMARK VINA RESULT:      -8.5      1.989      3.300
REMARK  Name = 
REMARK  5 active torsions:
REMARK  status: ('A' for Active; 'I' for Inactive)
REMARK    1  A    between atoms: C_7  and  C_8
REMARK    2  A    between atoms: C_24  and  C_26
REMARK    3  A    between atoms: N_28  and  C_30
REMARK    4  A    between atoms: C_30  and  C_33
REMARK    5  A    between atoms: C_33  and  C_36
REMARK                            x       y       z     vdW  Elec       q    Type
REMARK                         _______ _______ _______ _____ _____    ______ ____
ROOT
ATOM      1  C   UNL     1       9.279   2.169  23.838  0.00  0.00    +0.000 C 
ATOM      2  C   UNL     1       9.178   1.477  22.616  0.00  0.00    +0.000 A 
ATOM      3  C   UNL     1       8.087   1.641  21.801  0.00  0.00    +0.000 A 
ATOM      4  C   UNL     1       7.900   0.897  20.583  0.00  0.00    +0.000 A 
ATOM      5  C   UNL     1       8.743  -0.380  20.728  0.00  0.00    +0.000 A 
ATOM      6  C   UNL     1       9.679  -0.859  21.632  0.00  0.00    +0.000 A 
ATOM      7  C   UNL     1       9.476  -0.075  22.912  0.00  0.00    +0.000 A 
ATOM      8  C   UNL     1       8.846  -0.877  24.040  0.00  0.00    +0.000 C 
ATOM      9  N   UNL     1       8.987  -0.090  25.069  0.00  0.00    +0.000 N 
ATOM     10  C   UNL     1       8.328  -0.214  26.321  0.00  0.00    +0.000 C 
ATOM     11  O   UNL     1       9.055  -0.875  26.981  0.00  0.00    +0.000 OA
ATOM     12  C   UNL     1       9.382   1.184  24.995  0.00  0.00    +0.000 C 
ENDROOT
BRANCH   1  16
ATOM     13  C   UNL     1       8.480   5.560  25.943  0.00  0.00    +0.000 A 
ATOM     14  C   UNL     1       7.584   4.369  26.057  0.00  0.00    +0.000 A 
ATOM     15  C   UNL     1       7.451   3.218  25.098  0.00  0.00    +0.000 A 
ATOM     16  C   UNL     1       8.436   3.363  23.981  0.00  0.00    +0.000 A 
ATOM     17  C   UNL     1       8.986   4.694  23.477  0.00  0.00    +0.000 A 
ATOM     18  C   UNL     1       8.988   5.772  24.571  0.00  0.00    +0.000 A 
ENDBRANCH   1  16
BRANCH  10  19
ATOM     19  C   UNL     1       7.186  -0.795  26.006  0.00  0.00    +0.000 C 
ATOM     20  O   UNL     1       6.399  -0.044  25.570  0.00  0.00    +0.000 OA
ATOM     21  N   UNL     1       6.924  -1.930  26.682  0.00  0.00    +0.000 N 
ATOM     22  H   UNL     1       7.573  -2.033  27.399  0.00  0.00    +0.000 HD
BRANCH  21  23
ATOM     23  C   UNL     1       6.672  -3.109  25.849  0.00  0.00    +0.000 C 
BRANCH  23  24
ATOM     24  C   UNL     1       5.189  -2.852  25.304  0.00  0.00    +0.000 C 
BRANCH  24  25
ATOM     25  C   UNL     1       4.713  -4.028  24.763  0.00  0.00    +0.000 C 
ATOM     26  C   UNL     1       5.240  -5.413  25.176  0.00  0.00    +0.000 C 
ATOM     27  N   UNL     1       4.961  -6.370  24.164  0.00  0.00    +0.000 N 
ATOM     28  H   UNL     1       4.255  -6.906  24.388  0.00  0.00    +0.000 HD
ATOM     29  C   UNL     1       4.572  -5.685  22.953  0.00  0.00    +0.000 A 
ATOM     30  C   UNL     1       5.723  -6.178  22.123  0.00  0.00    +0.000 A 
ATOM     31  C   UNL     1       6.869  -5.396  21.601  0.00  0.00    +0.000 A 
ATOM     32  C   UNL     1       6.700  -3.924  21.880  0.00  0.00    +0.000 A 
ATOM     33  F   UNL     1       7.931  -3.519  22.399  0.00  0.00    +0.000 F 
ATOM     34  C   UNL     1       5.587  -3.230  22.512  0.00  0.00    +0.000 A 
ATOM     35  C   UNL     1       4.590  -4.212  23.224  0.00  0.00    +0.000 A 
ENDBRANCH  24  25
ENDBRANCH  23  24
ENDBRANCH  21  23
ENDBRANCH  10  19
TORSDOF 5
ENDMDL
MODEL 6
REMARK VINA RESULT:      -8.3      2.250      7.305
REMARK  Name = 
REMARK  5 active torsions:
REMARK  status: ('A' for Active; 'I' for Inactive)
REMARK    1  A    between atoms: C_7  and  C_8
REMARK    2  A    between atoms: C_24  and  C_26
REMARK    3  A    between atoms: N_28  and  C_30
REMARK    4  A    between atoms: C_30  and  C_33
REMARK    5  A    between atoms: C_33  and  C_36
REMARK                            x       y       z     vdW  Elec       q    Type
REMARK                         _______ _______ _______ _____ _____    ______ ____
ROOT
ATOM      1  C   UNL     1       6.299  -3.464  26.290  0.00  0.00    +0.000 C 
ATOM      2  C   UNL     1       6.161  -2.159  26.800  0.00  0.00    +0.000 A 
ATOM      3  C   UNL     1       5.204  -1.308  26.308  0.00  0.00    +0.000 A 
ATOM      4  C   UNL     1       5.077   0.060  26.739  0.00  0.00    +0.000 A 
ATOM      5  C   UNL     1       6.450   0.462  27.300  0.00  0.00    +0.000 A 
ATOM      6  C   UNL     1       7.637  -0.192  27.594  0.00  0.00    +0.000 A 
ATOM      7  C   UNL     1       7.620  -1.482  26.801  0.00  0.00    +0.000 A 
ATOM      8  C   UNL     1       8.585  -1.504  25.625  0.00  0.00    +0.000 C 
ATOM      9  N   UNL     1       8.564  -2.754  25.257  0.00  0.00    +0.000 N 
ATOM     10  C   UNL     1       9.061  -3.280  24.034  0.00  0.00    +0.000 C 
ATOM     11  O   UNL     1      10.183  -3.575  24.267  0.00  0.00    +0.000 OA
ATOM     12  C   UNL     1       7.695  -3.660  25.711  0.00  0.00    +0.000 C 
ENDROOT
BRANCH   1  16
ATOM     13  C   UNL     1       4.556  -6.719  24.577  0.00  0.00    +0.000 A 
ATOM     14  C   UNL     1       5.131  -5.632  23.727  0.00  0.00    +0.000 A 
ATOM     15  C   UNL     1       5.428  -4.211  24.120  0.00  0.00    +0.000 A 
ATOM     16  C   UNL     1       5.138  -4.009  25.574  0.00  0.00    +0.000 A 
ATOM     17  C   UNL     1       4.111  -4.804  26.373  0.00  0.00    +0.000 A 
ATOM     18  C   UNL     1       3.886  -6.208  25.792  0.00  0.00    +0.000 A 
ENDBRANCH   1  16
BRANCH  10  19
ATOM     19  C   UNL     1       8.917  -2.275  23.192  0.00  0.00    +0.000 C 
ATOM     20  O   UNL     1       7.871  -2.272  22.663  0.00  0.00    +0.000 OA
ATOM     21  N   UNL     1      10.069  -1.784  22.696  0.00  0.00    +0.000 N 
ATOM     22  H   UNL     1      10.801  -2.372  22.945  0.00  0.00    +0.000 HD
BRANCH  21  23
ATOM     23  C   UNL     1      10.277  -0.348  22.907  0.00  0.00    +0.000 C 
BRANCH  23  24
ATOM     24  C   UNL     1       9.727   0.296  21.548  0.00  0.00    +0.000 C 
BRANCH  24  25
ATOM     25  C   UNL     1       9.511   1.642  21.760  0.00  0.00    +0.000 C 
ATOM     26  C   UNL     1      10.040   2.390  22.994  0.00  0.00    +0.000 C 
ATOM     27  N   UNL     1       9.291   3.578  23.211  0.00  0.00    +0.000 N 
ATOM     28  H   UNL     1       9.747   4.322  22.940  0.00  0.00    +0.000 HD
ATOM     29  C   UNL     1       8.087   3.535  22.414  0.00  0.00    +0.000 A 
ATOM     30  C   UNL     1       7.134   3.557  23.575  0.00  0.00    +0.000 A 
ATOM     31  C   UNL     1       6.257   2.461  24.053  0.00  0.00    +0.000 A 
ATOM     32  C   UNL     1       6.305   1.276  23.121  0.00  0.00    +0.000 A 
ATOM     33  F   UNL     1       6.477   0.174  23.960  0.00  0.00    +0.000 F 
ATOM     34  C   UNL     1       7.023   1.123  21.865  0.00  0.00    +0.000 A 
ATOM     35  C   UNL     1       8.087   2.255  21.637  0.00  0.00    +0.000 A 
ENDBRANCH  24  25
ENDBRANCH  23  24
ENDBRANCH  21  23
ENDBRANCH  10  19
TORSDOF 5
ENDMDL
MODEL 7
REMARK VINA RESULT:      -8.3      2.317      4.170
REMARK  Name = 
REMARK  5 active torsions:
REMARK  status: ('A' for Active; 'I' for Inactive)
REMARK    1  A    between atoms: C_7  and  C_8
REMARK    2  A    between atoms: C_24  and  C_26
REMARK    3  A    between atoms: N_28  and  C_30
REMARK    4  A    between atoms: C_30  and  C_33
REMARK    5  A    between atoms: C_33  and  C_36
REMARK                            x       y       z     vdW  Elec       q    Type
REMARK                         _______ _______ _______ _____ _____    ______ ____
ROOT
ATOM      1  C   UNL     1       8.855  -2.365  23.192  0.00  0.00    +0.000 C 
ATOM      2  C   UNL     1       7.967  -3.075  22.363  0.00  0.00    +0.000 A 
ATOM      3  C   UNL     1       6.753  -2.543  22.012  0.00  0.00    +0.000 A 
ATOM      4  C   UNL     1       5.778  -3.262  21.234  0.00  0.00    +0.000 A 
ATOM      5  C   UNL     1       6.097  -4.754  21.420  0.00  0.00    +0.000 A 
ATOM      6  C   UNL     1       7.120  -5.489  22.001  0.00  0.00    +0.000 A 
ATOM      7  C   UNL     1       7.818  -4.558  22.969  0.00  0.00    +0.000 A 
ATOM      8  C   UNL     1       7.557  -4.870  24.434  0.00  0.00    +0.000 C 
ATOM      9  N   UNL     1       8.421  -4.114  25.050  0.00  0.00    +0.000 N 
ATOM     10  C   UNL     1       8.425  -3.796  26.435  0.00  0.00    +0.000 C 
ATOM     11  O   UNL     1       9.100  -4.629  26.934  0.00  0.00    +0.000 OA
ATOM     12  C   UNL     1       9.143  -3.159  24.460  0.00  0.00    +0.000 C 
ENDROOT
BRANCH   1  16
ATOM     13  C   UNL     1      10.407   1.266  24.184  0.00  0.00    +0.000 A 
ATOM     14  C   UNL     1       9.388   0.612  25.061  0.00  0.00    +0.000 A 
ATOM     15  C   UNL     1       8.414  -0.473  24.694  0.00  0.00    +0.000 A 
ATOM     16  C   UNL     1       8.642  -0.914  23.283  0.00  0.00    +0.000 A 
ATOM     17  C   UNL     1       9.225  -0.034  22.182  0.00  0.00    +0.000 A 
ATOM     18  C   UNL     1      10.145   1.061  22.743  0.00  0.00    +0.000 A 
ENDBRANCH   1  16
BRANCH  10  19
ATOM     19  C   UNL     1       7.148  -3.850  26.762  0.00  0.00    +0.000 C 
ATOM     20  O   UNL     1       6.585  -2.842  26.561  0.00  0.00    +0.000 OA
ATOM     21  N   UNL     1       6.844  -4.767  27.700  0.00  0.00    +0.000 N 
ATOM     22  H   UNL     1       7.665  -5.126  28.076  0.00  0.00    +0.000 HD
BRANCH  21  23
ATOM     23  C   UNL     1       5.818  -5.740  27.312  0.00  0.00    +0.000 C 
BRANCH  23  24
ATOM     24  C   UNL     1       4.506  -5.189  28.046  0.00  0.00    +0.000 C 
BRANCH  24  25
ATOM     25  C   UNL     1       3.414  -5.876  27.559  0.00  0.00    +0.000 C 
ATOM     26  C   UNL     1       3.531  -7.216  26.814  0.00  0.00    +0.000 C 
ATOM     27  N   UNL     1       2.374  -7.444  26.021  0.00  0.00    +0.000 N 
ATOM     28  H   UNL     1       1.812  -8.053  26.405  0.00  0.00    +0.000 HD
ATOM     29  C   UNL     1       1.621  -6.217  25.912  0.00  0.00    +0.000 A 
ATOM     30  C   UNL     1       1.760  -6.083  24.422  0.00  0.00    +0.000 A 
ATOM     31  C   UNL     1       2.548  -5.077  23.669  0.00  0.00    +0.000 A 
ATOM     32  C   UNL     1       3.132  -4.037  24.591  0.00  0.00    +0.000 A 
ATOM     33  F   UNL     1       4.467  -3.928  24.198  0.00  0.00    +0.000 F 
ATOM     34  C   UNL     1       2.973  -3.891  26.031  0.00  0.00    +0.000 A 
ATOM     35  C   UNL     1       2.334  -5.161  26.698  0.00  0.00    +0.000 A 
ENDBRANCH  24  25
ENDBRANCH  23  24
ENDBRANCH  21  23
ENDBRANCH  10  19
TORSDOF 5
ENDMDL
MODEL 8
REMARK VINA RESULT:      -8.3      2.446      7.145
REMARK  Name = 
REMARK  5 active torsions:
REMARK  status: ('A' for Active; 'I' for Inactive)
REMARK    1  A    between atoms: C_7  and  C_8
REMARK    2  A    between atoms: C_24  and  C_26
REMARK    3  A    between atoms: N_28  and  C_30
REMARK    4  A    between atoms: C_30  and  C_33
REMARK    5  A    between atoms: C_33  and  C_36
REMARK                            x       y       z     vdW  Elec       q    Type
REMARK                         _______ _______ _______ _____ _____    ______ ____
ROOT
ATOM      1  C   UNL     1       7.574  -3.516  24.638  0.00  0.00    +0.000 C 
ATOM      2  C   UNL     1       7.383  -2.644  25.726  0.00  0.00    +0.000 A 
ATOM      3  C   UNL     1       6.204  -1.962  25.884  0.00  0.00    +0.000 A 
ATOM      4  C   UNL     1       5.991  -0.999  26.933  0.00  0.00    +0.000 A 
ATOM      5  C   UNL     1       7.386  -0.515  27.361  0.00  0.00    +0.000 A 
ATOM      6  C   UNL     1       8.695  -0.881  27.085  0.00  0.00    +0.000 A 
ATOM      7  C   UNL     1       8.656  -1.662  25.789  0.00  0.00    +0.000 A 
ATOM      8  C   UNL     1       9.233  -0.919  24.595  0.00  0.00    +0.000 C 
ATOM      9  N   UNL     1       9.306  -1.846  23.683  0.00  0.00    +0.000 N 
ATOM     10  C   UNL     1       9.508  -1.645  22.291  0.00  0.00    +0.000 C 
ATOM     11  O   UNL     1      10.681  -1.692  22.146  0.00  0.00    +0.000 OA
ATOM     12  C   UNL     1       8.757  -3.058  23.795  0.00  0.00    +0.000 C 
ENDROOT
BRANCH   1  16
ATOM     13  C   UNL     1       5.971  -5.907  21.758  0.00  0.00    +0.000 A 
ATOM     14  C   UNL     1       6.020  -4.424  21.572  0.00  0.00    +0.000 A 
ATOM     15  C   UNL     1       6.171  -3.365  22.628  0.00  0.00    +0.000 A 
ATOM     16  C   UNL     1       6.358  -3.999  23.970  0.00  0.00    +0.000 A 
ATOM     17  C   UNL     1       5.821  -5.372  24.363  0.00  0.00    +0.000 A 
ATOM     18  C   UNL     1       5.671  -6.303  23.151  0.00  0.00    +0.000 A 
ENDBRANCH   1  16
BRANCH  10  19
ATOM     19  C   UNL     1       8.971  -0.459  22.075  0.00  0.00    +0.000 C 
ATOM     20  O   UNL     1       7.808  -0.504  21.946  0.00  0.00    +0.000 OA
ATOM     21  N   UNL     1       9.806   0.447  21.531  0.00  0.00    +0.000 N 
ATOM     22  H   UNL     1      10.626   0.005  21.257  0.00  0.00    +0.000 HD
BRANCH  21  23
ATOM     23  C   UNL     1       9.953   1.694  22.290  0.00  0.00    +0.000 C 
BRANCH  23  24
ATOM     24  C   UNL     1       8.600   2.481  21.951  0.00  0.00    +0.000 C 
BRANCH  24  25
ATOM     25  C   UNL     1       8.376   3.409  22.946  0.00  0.00    +0.000 C 
ATOM     26  C   UNL     1       9.056   3.342  24.323  0.00  0.00    +0.000 C 
ATOM     27  N   UNL     1       8.310   4.083  25.280  0.00  0.00    +0.000 N 
ATOM     28  H   UNL     1       8.698   4.889  25.463  0.00  0.00    +0.000 HD
ATOM     29  C   UNL     1       7.005   4.382  24.739  0.00  0.00    +0.000 A 
ATOM     30  C   UNL     1       6.232   3.609  25.771  0.00  0.00    +0.000 A 
ATOM     31  C   UNL     1       5.469   2.352  25.582  0.00  0.00    +0.000 A 
ATOM     32  C   UNL     1       5.416   1.956  24.128  0.00  0.00    +0.000 A 
ATOM     33  F   UNL     1       5.743   0.599  24.119  0.00  0.00    +0.000 F 
ATOM     34  C   UNL     1       5.947   2.653  22.966  0.00  0.00    +0.000 A 
ATOM     35  C   UNL     1       6.931   3.813  23.356  0.00  0.00    +0.000 A 
ENDBRANCH  24  25
ENDBRANCH  23  24
ENDBRANCH  21  23
ENDBRANCH  10  19
TORSDOF 5
ENDMDL
MODEL 9
REMARK VINA RESULT:      -8.3      2.465      3.680
REMARK  Name = 
REMARK  5 active torsions:
REMARK  status: ('A' for Active; 'I' for Inactive)
REMARK    1  A    between atoms: C_7  and  C_8
REMARK    2  A    between atoms: C_24  and  C_26
REMARK    3  A    between atoms: N_28  and  C_30
REMARK    4  A    between atoms: C_30  and  C_33
REMARK    5  A    between atoms: C_33  and  C_36
REMARK                            x       y       z     vdW  Elec       q    Type
REMARK                         _______ _______ _______ _____ _____    ______ ____
ROOT
ATOM      1  C   UNL     1       9.040   1.266  22.203  0.00  0.00    +0.000 C 
ATOM      2  C   UNL     1       8.060   2.008  22.887  0.00  0.00    +0.000 A 
ATOM      3  C   UNL     1       7.447   1.504  24.005  0.00  0.00    +0.000 A 
ATOM      4  C   UNL     1       6.383   2.189  24.692  0.00  0.00    +0.000 A 
ATOM      5  C   UNL     1       5.756   3.145  23.665  0.00  0.00    +0.000 A 
ATOM      6  C   UNL     1       6.061   3.564  22.379  0.00  0.00    +0.000 A 
ATOM      7  C   UNL     1       6.992   2.520  21.799  0.00  0.00    +0.000 A 
ATOM      8  C   UNL     1       6.358   1.643  20.731  0.00  0.00    +0.000 C 
ATOM      9  N   UNL     1       7.381   1.007  20.233  0.00  0.00    +0.000 N 
ATOM     10  C   UNL     1       7.333  -0.143  19.400  0.00  0.00    +0.000 C 
ATOM     11  O   UNL     1       7.317   0.284  18.297  0.00  0.00    +0.000 OA
ATOM     12  C   UNL     1       8.606   1.017  20.764  0.00  0.00    +0.000 C 
ENDROOT
BRANCH   1  16
ATOM     13  C   UNL     1       9.117  -0.940  25.624  0.00  0.00    +0.000 A 
ATOM     14  C   UNL     1      10.159   0.102  25.370  0.00  0.00    +0.000 A 
ATOM     15  C   UNL     1      10.556   0.710  24.053  0.00  0.00    +0.000 A 
ATOM     16  C   UNL     1       9.682   0.182  22.959  0.00  0.00    +0.000 A 
ATOM     17  C   UNL     1       9.002  -1.183  22.975  0.00  0.00    +0.000 A 
ATOM     18  C   UNL     1       8.730  -1.678  24.403  0.00  0.00    +0.000 A 
ENDBRANCH   1  16
BRANCH  10  19
ATOM     19  C   UNL     1       6.222  -0.745  19.778  0.00  0.00    +0.000 C 
ATOM     20  O   UNL     1       5.275  -0.347  19.213  0.00  0.00    +0.000 OA
ATOM     21  N   UNL     1       6.256  -1.267  21.019  0.00  0.00    +0.000 N 
ATOM     22  H   UNL     1       7.063  -0.967  21.470  0.00  0.00    +0.000 HD
BRANCH  21  23
ATOM     23  C   UNL     1       5.948  -2.698  21.103  0.00  0.00    +0.000 C 
BRANCH  23  24
ATOM     24  C   UNL     1       5.759  -2.931  22.675  0.00  0.00    +0.000 C 
BRANCH  24  25
ATOM     25  C   UNL     1       5.080  -4.117  22.861  0.00  0.00    +0.000 C 
ATOM     26  C   UNL     1       3.741  -4.207  23.611  0.00  0.00    +0.000 C 
ATOM     27  N   UNL     1       3.521  -5.531  24.076  0.00  0.00    +0.000 N 
ATOM     28  H   UNL     1       2.915  -5.978  23.558  0.00  0.00    +0.000 HD
ATOM     29  C   UNL     1       4.753  -6.280  23.982  0.00  0.00    +0.000 A 
ATOM     30  C   UNL     1       4.890  -6.534  25.457  0.00  0.00    +0.000 A 
ATOM     31  C   UNL     1       5.893  -5.964  26.388  0.00  0.00    +0.000 A 
ATOM     32  C   UNL     1       6.928  -5.153  25.650  0.00  0.00    +0.000 A 
ATOM     33  F   UNL     1       7.031  -3.966  26.378  0.00  0.00    +0.000 F 
ATOM     34  C   UNL     1       7.071  -4.929  24.219  0.00  0.00    +0.000 A 
ATOM     35  C   UNL     1       5.803  -5.380  23.409  0.00  0.00    +0.000 A 
ENDBRANCH  24  25
ENDBRANCH  23  24
ENDBRANCH  21  23
ENDBRANCH  10  19
TORSDOF 5
ENDMDL
