MODEL 1
REMARK VINA RESULT:      -8.8      0.000      0.000
REMARK  Name = 
REMARK  6 active torsions:
REMARK  status: ('A' for Active; 'I' for Inactive)
REMARK    1  A    between atoms: C_11  and  N_13
REMARK    2  A    between atoms: N_13  and  C_14
REMARK    3  A    between atoms: N_13  and  C_25
REMARK    4  A    between atoms: C_25  and  C_28
REMARK    5  A    between atoms: N_37  and  S_38
REMARK    6  A    between atoms: S_38  and  C_41
REMARK                            x       y       z     vdW  Elec       q    Type
REMARK                         _______ _______ _______ _____ _____    ______ ____
ROOT
ATOM      1  C   UNL     1       8.459  -1.432  23.504  0.00  0.00    +0.000 C 
ATOM      2  O   UNL     1       9.507  -1.718  22.898  0.00  0.00    +0.000 OA
ATOM      3  N   UNL     1       8.170  -2.042  24.679  0.00  0.00    +0.000 N 
ATOM      4  C   UNL     1       7.590  -1.273  25.770  0.00  0.00    +0.000 C 
ATOM      5  C   UNL     1       6.760  -2.228  26.666  0.00  0.00    +0.000 C 
ATOM      6  N   UNL     1       7.230  -3.503  26.664  0.00  0.00    +0.000 NA
ATOM      7  C   UNL     1       8.605  -3.659  26.462  0.00  0.00    +0.000 C 
ATOM      8  C   UNL     1       9.013  -3.189  25.078  0.00  0.00    +0.000 C 
ENDROOT
BRANCH   6   9
ATOM      9  S   UNL     1       6.308  -4.771  26.679  0.00  0.00    +0.000 S 
ATOM     10  O   UNL     1       5.736  -5.006  27.978  0.00  0.00    +0.000 OA
ATOM     11  O   UNL     1       6.981  -5.933  26.109  0.00  0.00    +0.000 OA
BRANCH   9  12
ATOM     12  C   UNL     1       4.865  -4.505  25.604  0.00  0.00    +0.000 A 
ATOM     13  C   UNL     1       4.568  -5.903  25.193  0.00  0.00    +0.000 A 
ATOM     14  C   UNL     1       4.815  -6.517  23.858  0.00  0.00    +0.000 A 
ATOM     15  C   UNL     1       5.286  -5.502  22.846  0.00  0.00    +0.000 A 
ATOM     16 CL   UNL     1       6.837  -6.186  22.227  0.00  0.00    +0.000 Cl
ATOM     17  C   UNL     1       5.340  -4.037  23.011  0.00  0.00    +0.000 A 
ATOM     18  C   UNL     1       5.105  -3.580  24.492  0.00  0.00    +0.000 A 
ENDBRANCH   9  12
ENDBRANCH   6   9
BRANCH   1  19
ATOM     19  C   UNL     1       7.515  -0.438  22.918  0.00  0.00    +0.000 C 
BRANCH  19  20
ATOM     20  N   UNL     1       7.980   0.263  21.752  0.00  0.00    +0.000 N 
BRANCH  20  27
ATOM     21  C   UNL     1       6.701  -1.489  20.669  0.00  0.00    +0.000 C 
ATOM     22  C   UNL     1       5.518  -1.337  19.893  0.00  0.00    +0.000 C 
ATOM     23  S   UNL     1       5.983   0.118  18.823  0.00  0.00    +0.000 S 
ATOM     24  O   UNL     1       5.855  -0.262  17.498  0.00  0.00    +0.000 OA
ATOM     25  O   UNL     1       5.350   1.243  19.366  0.00  0.00    +0.000 OA
ATOM     26  C   UNL     1       7.761   0.240  19.239  0.00  0.00    +0.000 C 
ATOM     27  C   UNL     1       7.918  -0.566  20.491  0.00  0.00    +0.000 C 
ENDBRANCH  20  27
BRANCH  20  28
ATOM     28  C   UNL     1       8.676   1.371  21.653  0.00  0.00    +0.000 A 
ATOM     29  C   UNL     1       7.702   2.449  22.078  0.00  0.00    +0.000 A 
ATOM     30  C   UNL     1       7.937   3.461  23.133  0.00  0.00    +0.000 A 
ATOM     31  C   UNL     1       9.314   3.281  23.766  0.00  0.00    +0.000 A 
ATOM     32  F   UNL     1       8.900   2.856  25.037  0.00  0.00    +0.000 F 
ATOM     33  C   UNL     1      10.445   2.499  23.215  0.00  0.00    +0.000 A 
ATOM     34  C   UNL     1      10.063   1.706  21.926  0.00  0.00    +0.000 A 
ENDBRANCH  20  28
ENDBRANCH  19  20
ENDBRANCH   1  19
TORSDOF 6
ENDMDL
MODEL 2
REMARK VINA RESULT:      -8.3      3.102      4.188
REMARK  Name = 
REMARK  6 active torsions:
REMARK  status: ('A' for Active; 'I' for Inactive)
REMARK    1  A    between atoms: C_11  and  N_13
REMARK    2  A    between atoms: N_13  and  C_14
REMARK    3  A    between atoms: N_13  and  C_25
REMARK    4  A    between atoms: C_25  and  C_28
REMARK    5  A    between atoms: N_37  and  S_38
REMARK    6  A    between atoms: S_38  and  C_41
REMARK                            x       y       z     vdW  Elec       q    Type
REMARK                         _______ _______ _______ _____ _____    ______ ____
ROOT
ATOM      1  C   UNL     1       9.000  -1.386  24.006  0.00  0.00    +0.000 C 
ATOM      2  O   UNL     1      10.232  -1.537  23.926  0.00  0.00    +0.000 OA
ATOM      3  N   UNL     1       8.205  -2.451  24.271  0.00  0.00    +0.000 N 
ATOM      4  C   UNL     1       7.073  -2.302  25.174  0.00  0.00    +0.000 C 
ATOM      5  C   UNL     1       5.994  -3.351  24.798  0.00  0.00    +0.000 C 
ATOM      6  N   UNL     1       6.518  -4.479  24.248  0.00  0.00    +0.000 NA
ATOM      7  C   UNL     1       7.807  -4.832  24.661  0.00  0.00    +0.000 C 
ATOM      8  C   UNL     1       8.825  -3.792  24.232  0.00  0.00    +0.000 C 
ENDROOT
BRANCH   6   9
ATOM      9  S   UNL     1       5.848  -5.264  23.068  0.00  0.00    +0.000 S 
ATOM     10  O   UNL     1       6.789  -6.105  22.377  0.00  0.00    +0.000 OA
ATOM     11  O   UNL     1       5.092  -4.377  22.191  0.00  0.00    +0.000 OA
BRANCH   9  12
ATOM     12  C   UNL     1       4.611  -6.428  23.717  0.00  0.00    +0.000 A 
ATOM     13  C   UNL     1       3.364  -5.845  23.154  0.00  0.00    +0.000 A 
ATOM     14  C   UNL     1       2.308  -5.097  23.895  0.00  0.00    +0.000 A 
ATOM     15  C   UNL     1       2.550  -5.104  25.385  0.00  0.00    +0.000 A 
ATOM     16 CL   UNL     1       2.561  -3.357  25.836  0.00  0.00    +0.000 Cl
ATOM     17  C   UNL     1       3.562  -5.885  26.120  0.00  0.00    +0.000 A 
ATOM     18  C   UNL     1       4.616  -6.560  25.177  0.00  0.00    +0.000 A 
ENDBRANCH   9  12
ENDBRANCH   6   9
BRANCH   1  19
ATOM     19  C   UNL     1       8.405  -0.037  23.784  0.00  0.00    +0.000 C 
BRANCH  19  20
ATOM     20  N   UNL     1       7.788   0.178  22.503  0.00  0.00    +0.000 N 
BRANCH  20  27
ATOM     21  C   UNL     1       6.309   1.293  24.068  0.00  0.00    +0.000 C 
ATOM     22  C   UNL     1       6.503   2.562  24.680  0.00  0.00    +0.000 C 
ATOM     23  S   UNL     1       7.065   3.577  23.220  0.00  0.00    +0.000 S 
ATOM     24  O   UNL     1       6.208   4.656  23.089  0.00  0.00    +0.000 OA
ATOM     25  O   UNL     1       8.456   3.707  23.325  0.00  0.00    +0.000 OA
ATOM     26  C   UNL     1       6.729   2.381  21.877  0.00  0.00    +0.000 C 
ATOM     27  C   UNL     1       6.565   1.063  22.569  0.00  0.00    +0.000 C 
ENDBRANCH  20  27
BRANCH  20  28
ATOM     28  C   UNL     1       7.948  -0.462  21.369  0.00  0.00    +0.000 A 
ATOM     29  C   UNL     1       6.763  -1.403  21.315  0.00  0.00    +0.000 A 
ATOM     30  C   UNL     1       5.795  -1.513  20.200  0.00  0.00    +0.000 A 
ATOM     31  C   UNL     1       6.137  -0.533  19.081  0.00  0.00    +0.000 A 
ATOM     32  F   UNL     1       5.038   0.327  19.221  0.00  0.00    +0.000 F 
ATOM     33  C   UNL     1       7.425   0.172  18.886  0.00  0.00    +0.000 A 
ATOM     34  C   UNL     1       8.429  -0.063  20.057  0.00  0.00    +0.000 A 
ENDBRANCH  20  28
ENDBRANCH  19  20
ENDBRANCH   1  19
TORSDOF 6
ENDMDL
MODEL 3
REMARK VINA RESULT:      -8.2      3.123      7.401
REMARK  Name = 
REMARK  6 active torsions:
REMARK  status: ('A' for Active; 'I' for Inactive)
REMARK    1  A    between atoms: C_11  and  N_13
REMARK    2  A    between atoms: N_13  and  C_14
REMARK    3  A    between atoms: N_13  and  C_25
REMARK    4  A    between atoms: C_25  and  C_28
REMARK    5  A    between atoms: N_37  and  S_38
REMARK    6  A    between atoms: S_38  and  C_41
REMARK                            x       y       z     vdW  Elec       q    Type
REMARK                         _______ _______ _______ _____ _____    ______ ____
ROOT
ATOM      1  C   UNL     1       7.504  -1.471  26.376  0.00  0.00    +0.000 C 
ATOM      2  O   UNL     1       6.534  -1.339  27.144  0.00  0.00    +0.000 OA
ATOM      3  N   UNL     1       8.076  -0.378  25.816  0.00  0.00    +0.000 N 
ATOM      4  C   UNL     1       9.524  -0.301  25.693  0.00  0.00    +0.000 C 
ATOM      5  C   UNL     1       9.875   0.615  24.492  0.00  0.00    +0.000 C 
ATOM      6  N   UNL     1       8.937   1.571  24.261  0.00  0.00    +0.000 NA
ATOM      7  C   UNL     1       8.221   2.023  25.375  0.00  0.00    +0.000 C 
ATOM      8  C   UNL     1       7.374   0.914  25.970  0.00  0.00    +0.000 C 
ENDROOT
BRANCH   6   9
ATOM      9  S   UNL     1       8.498   2.032  22.829  0.00  0.00    +0.000 S 
ATOM     10  O   UNL     1       9.270   1.392  21.796  0.00  0.00    +0.000 OA
ATOM     11  O   UNL     1       8.455   3.486  22.720  0.00  0.00    +0.000 OA
BRANCH   9  12
ATOM     12  C   UNL     1       6.791   1.499  22.498  0.00  0.00    +0.000 A 
ATOM     13  C   UNL     1       6.988   0.033  22.340  0.00  0.00    +0.000 A 
ATOM     14  C   UNL     1       6.941  -0.747  21.070  0.00  0.00    +0.000 A 
ATOM     15  C   UNL     1       6.506   0.101  19.901  0.00  0.00    +0.000 A 
ATOM     16 CL   UNL     1       7.831  -0.102  18.693  0.00  0.00    +0.000 Cl
ATOM     17  C   UNL     1       5.988   1.482  19.944  0.00  0.00    +0.000 A 
ATOM     18  C   UNL     1       6.167   2.158  21.346  0.00  0.00    +0.000 A 
ENDBRANCH   9  12
ENDBRANCH   6   9
BRANCH   1  19
ATOM     19  C   UNL     1       8.015  -2.836  26.059  0.00  0.00    +0.000 C 
BRANCH  19  20
ATOM     20  N   UNL     1       7.219  -3.611  25.146  0.00  0.00    +0.000 N 
BRANCH  20  27
ATOM     21  C   UNL     1       7.911  -5.221  26.822  0.00  0.00    +0.000 C 
ATOM     22  C   UNL     1       7.187  -5.622  27.980  0.00  0.00    +0.000 C 
ATOM     23  S   UNL     1       5.482  -5.866  27.265  0.00  0.00    +0.000 S 
ATOM     24  O   UNL     1       5.083  -7.164  27.534  0.00  0.00    +0.000 OA
ATOM     25  O   UNL     1       4.728  -4.739  27.615  0.00  0.00    +0.000 OA
ATOM     26  C   UNL     1       5.881  -5.723  25.485  0.00  0.00    +0.000 C 
ATOM     27  C   UNL     1       7.238  -5.092  25.445  0.00  0.00    +0.000 C 
ENDBRANCH  20  27
BRANCH  20  28
ATOM     28  C   UNL     1       6.716  -3.288  23.978  0.00  0.00    +0.000 A 
ATOM     29  C   UNL     1       7.675  -3.912  22.987  0.00  0.00    +0.000 A 
ATOM     30  C   UNL     1       7.304  -4.827  21.883  0.00  0.00    +0.000 A 
ATOM     31  C   UNL     1       5.799  -5.081  21.865  0.00  0.00    +0.000 A 
ATOM     32  F   UNL     1       5.815  -6.432  22.243  0.00  0.00    +0.000 F 
ATOM     33  C   UNL     1       4.760  -4.282  22.555  0.00  0.00    +0.000 A 
ATOM     34  C   UNL     1       5.358  -3.172  23.475  0.00  0.00    +0.000 A 
ENDBRANCH  20  28
ENDBRANCH  19  20
ENDBRANCH   1  19
TORSDOF 6
ENDMDL
MODEL 4
REMARK VINA RESULT:      -7.9      2.839      4.262
REMARK  Name = 
REMARK  6 active torsions:
REMARK  status: ('A' for Active; 'I' for Inactive)
REMARK    1  A    between atoms: C_11  and  N_13
REMARK    2  A    between atoms: N_13  and  C_14
REMARK    3  A    between atoms: N_13  and  C_25
REMARK    4  A    between atoms: C_25  and  C_28
REMARK    5  A    between atoms: N_37  and  S_38
REMARK    6  A    between atoms: S_38  and  C_41
REMARK                            x       y       z     vdW  Elec       q    Type
REMARK                         _______ _______ _______ _____ _____    ______ ____
ROOT
ATOM      1  C   UNL     1       9.738   0.266  22.799  0.00  0.00    +0.000 C 
ATOM      2  O   UNL     1      10.366   0.072  21.744  0.00  0.00    +0.000 OA
ATOM      3  N   UNL     1       9.548  -0.754  23.670  0.00  0.00    +0.000 N 
ATOM      4  C   UNL     1       9.657  -0.515  25.101  0.00  0.00    +0.000 C 
ATOM      5  C   UNL     1       8.778  -1.550  25.848  0.00  0.00    +0.000 C 
ATOM      6  N   UNL     1       8.653  -2.725  25.177  0.00  0.00    +0.000 NA
ATOM      7  C   UNL     1       9.728  -3.094  24.361  0.00  0.00    +0.000 C 
ATOM      8  C   UNL     1       9.908  -2.115  23.216  0.00  0.00    +0.000 C 
ENDROOT
BRANCH   6   9
ATOM      9  S   UNL     1       7.327  -3.560  25.122  0.00  0.00    +0.000 S 
ATOM     10  O   UNL     1       6.243  -2.896  25.797  0.00  0.00    +0.000 OA
ATOM     11  O   UNL     1       7.539  -4.937  25.554  0.00  0.00    +0.000 OA
BRANCH   9  12
ATOM     12  C   UNL     1       6.753  -3.704  23.402  0.00  0.00    +0.000 A 
ATOM     13  C   UNL     1       5.287  -3.530  23.587  0.00  0.00    +0.000 A 
ATOM     14  C   UNL     1       4.239  -4.586  23.493  0.00  0.00    +0.000 A 
ATOM     15  C   UNL     1       4.804  -5.904  23.021  0.00  0.00    +0.000 A 
ATOM     16 CL   UNL     1       4.315  -7.076  24.303  0.00  0.00    +0.000 Cl
ATOM     17  C   UNL     1       6.164  -6.159  22.511  0.00  0.00    +0.000 A 
ATOM     18  C   UNL     1       7.140  -4.954  22.741  0.00  0.00    +0.000 A 
ENDBRANCH   9  12
ENDBRANCH   6   9
BRANCH   1  19
ATOM     19  C   UNL     1       9.177   1.617  23.087  0.00  0.00    +0.000 C 
BRANCH  19  20
ATOM     20  N   UNL     1       7.748   1.689  23.233  0.00  0.00    +0.000 N 
BRANCH  20  27
ATOM     21  C   UNL     1       8.485   3.215  24.967  0.00  0.00    +0.000 C 
ATOM     22  C   UNL     1       8.395   4.635  24.959  0.00  0.00    +0.000 C 
ATOM     23  S   UNL     1       6.651   4.876  24.344  0.00  0.00    +0.000 S 
ATOM     24  O   UNL     1       5.963   5.628  25.280  0.00  0.00    +0.000 OA
ATOM     25  O   UNL     1       6.740   5.224  22.990  0.00  0.00    +0.000 OA
ATOM     26  C   UNL     1       6.065   3.144  24.423  0.00  0.00    +0.000 C 
ATOM     27  C   UNL     1       7.311   2.322  24.534  0.00  0.00    +0.000 C 
ENDBRANCH  20  27
BRANCH  20  28
ATOM     28  C   UNL     1       6.797   1.074  22.569  0.00  0.00    +0.000 A 
ATOM     29  C   UNL     1       6.643   1.902  21.310  0.00  0.00    +0.000 A 
ATOM     30  C   UNL     1       6.703   1.387  19.923  0.00  0.00    +0.000 A 
ATOM     31  C   UNL     1       6.954  -0.119  19.910  0.00  0.00    +0.000 A 
ATOM     32  F   UNL     1       8.250  -0.105  19.374  0.00  0.00    +0.000 F 
ATOM     33  C   UNL     1       6.788  -1.053  21.047  0.00  0.00    +0.000 A 
ATOM     34  C   UNL     1       6.452  -0.325  22.387  0.00  0.00    +0.000 A 
ENDBRANCH  20  28
ENDBRANCH  19  20
ENDBRANCH   1  19
TORSDOF 6
ENDMDL
MODEL 5
REMARK VINA RESULT:      -7.7      3.536      7.247
REMARK  Name = 
REMARK  6 active torsions:
REMARK  status: ('A' for Active; 'I' for Inactive)
REMARK    1  A    between atoms: C_11  and  N_13
REMARK    2  A    between atoms: N_13  and  C_14
REMARK    3  A    between atoms: N_13  and  C_25
REMARK    4  A    between atoms: C_25  and  C_28
REMARK    5  A    between atoms: N_37  and  S_38
REMARK    6  A    between atoms: S_38  and  C_41
REMARK                            x       y       z     vdW  Elec       q    Type
REMARK                         _______ _______ _______ _____ _____    ______ ____
ROOT
ATOM      1  C   UNL     1       7.428  -3.656  25.831  0.00  0.00    +0.000 C 
ATOM      2  O   UNL     1       6.936  -3.400  26.944  0.00  0.00    +0.000 OA
ATOM      3  N   UNL     1       8.335  -2.812  25.283  0.00  0.00    +0.000 N 
ATOM      4  C   UNL     1       9.491  -3.348  24.579  0.00  0.00    +0.000 C 
ATOM      5  C   UNL     1       9.955  -2.313  23.522  0.00  0.00    +0.000 C 
ATOM      6  N   UNL     1       9.680  -1.030  23.877  0.00  0.00    +0.000 NA
ATOM      7  C   UNL     1       9.657  -0.754  25.248  0.00  0.00    +0.000 C 
ATOM      8  C   UNL     1       8.533  -1.502  25.940  0.00  0.00    +0.000 C 
ENDROOT
BRANCH   6   9
ATOM      9  S   UNL     1       9.208   0.070  22.865  0.00  0.00    +0.000 S 
ATOM     10  O   UNL     1       9.741  -0.146  21.546  0.00  0.00    +0.000 OA
ATOM     11  O   UNL     1       9.440   1.414  23.384  0.00  0.00    +0.000 OA
BRANCH   9  12
ATOM     12  C   UNL     1       7.407  -0.026  22.634  0.00  0.00    +0.000 A 
ATOM     13  C   UNL     1       7.281   0.493  21.246  0.00  0.00    +0.000 A 
ATOM     14  C   UNL     1       6.754   1.824  20.830  0.00  0.00    +0.000 A 
ATOM     15  C   UNL     1       6.188   2.598  21.995  0.00  0.00    +0.000 A 
ATOM     16 CL   UNL     1       7.083   4.164  21.958  0.00  0.00    +0.000 Cl
ATOM     17  C   UNL     1       5.964   2.106  23.368  0.00  0.00    +0.000 A 
ATOM     18  C   UNL     1       6.631   0.714  23.635  0.00  0.00    +0.000 A 
ENDBRANCH   9  12
ENDBRANCH   6   9
BRANCH   1  19
ATOM     19  C   UNL     1       6.995  -4.879  25.096  0.00  0.00    +0.000 C 
BRANCH  19  20
ATOM     20  N   UNL     1       5.578  -5.036  24.911  0.00  0.00    +0.000 N 
BRANCH  20  27
ATOM     21  C   UNL     1       6.184  -3.574  23.072  0.00  0.00    +0.000 C 
ATOM     22  C   UNL     1       7.015  -3.889  21.962  0.00  0.00    +0.000 C 
ATOM     23  S   UNL     1       6.355  -5.568  21.490  0.00  0.00    +0.000 S 
ATOM     24  O   UNL     1       5.955  -5.518  20.166  0.00  0.00    +0.000 OA
ATOM     25  O   UNL     1       7.259  -6.516  21.986  0.00  0.00    +0.000 OA
ATOM     26  C   UNL     1       4.872  -5.618  22.560  0.00  0.00    +0.000 C 
ATOM     27  C   UNL     1       5.091  -4.535  23.571  0.00  0.00    +0.000 C 
ENDBRANCH  20  27
BRANCH  20  28
ATOM     28  C   UNL     1       4.632  -5.284  25.786  0.00  0.00    +0.000 A 
ATOM     29  C   UNL     1       5.040  -6.611  26.391  0.00  0.00    +0.000 A 
ATOM     30  C   UNL     1       5.203  -6.889  27.836  0.00  0.00    +0.000 A 
ATOM     31  C   UNL     1       4.911  -5.644  28.669  0.00  0.00    +0.000 A 
ATOM     32  F   UNL     1       6.212  -5.399  29.133  0.00  0.00    +0.000 F 
ATOM     33  C   UNL     1       4.199  -4.426  28.219  0.00  0.00    +0.000 A 
ATOM     34  C   UNL     1       3.868  -4.446  26.693  0.00  0.00    +0.000 A 
ENDBRANCH  20  28
ENDBRANCH  19  20
ENDBRANCH   1  19
TORSDOF 6
ENDMDL
MODEL 6
REMARK VINA RESULT:      -7.6      3.193      4.566
REMARK  Name = 
REMARK  6 active torsions:
REMARK  status: ('A' for Active; 'I' for Inactive)
REMARK    1  A    between atoms: C_11  and  N_13
REMARK    2  A    between atoms: N_13  and  C_14
REMARK    3  A    between atoms: N_13  and  C_25
REMARK    4  A    between atoms: C_25  and  C_28
REMARK    5  A    between atoms: N_37  and  S_38
REMARK    6  A    between atoms: S_38  and  C_41
REMARK                            x       y       z     vdW  Elec       q    Type
REMARK                         _______ _______ _______ _____ _____    ______ ____
ROOT
ATOM      1  C   UNL     1       6.646  -1.703  23.408  0.00  0.00    +0.000 C 
ATOM      2  O   UNL     1       6.308  -1.946  22.235  0.00  0.00    +0.000 OA
ATOM      3  N   UNL     1       7.136  -2.696  24.189  0.00  0.00    +0.000 N 
ATOM      4  C   UNL     1       8.254  -2.429  25.082  0.00  0.00    +0.000 C 
ATOM      5  C   UNL     1       8.180  -3.411  26.280  0.00  0.00    +0.000 C 
ATOM      6  N   UNL     1       7.593  -4.595  25.962  0.00  0.00    +0.000 NA
ATOM      7  C   UNL     1       7.734  -5.024  24.638  0.00  0.00    +0.000 C 
ATOM      8  C   UNL     1       7.037  -4.079  23.677  0.00  0.00    +0.000 C 
ENDROOT
BRANCH   6   9
ATOM      9  S   UNL     1       6.633  -5.376  26.923  0.00  0.00    +0.000 S 
ATOM     10  O   UNL     1       7.321  -5.876  28.084  0.00  0.00    +0.000 OA
ATOM     11  O   UNL     1       5.863  -6.389  26.210  0.00  0.00    +0.000 OA
BRANCH   9  12
ATOM     12  C   UNL     1       5.381  -4.247  27.606  0.00  0.00    +0.000 A 
ATOM     13  C   UNL     1       4.741  -5.128  28.619  0.00  0.00    +0.000 A 
ATOM     14  C   UNL     1       3.394  -5.760  28.536  0.00  0.00    +0.000 A 
ATOM     15  C   UNL     1       2.620  -5.287  27.329  0.00  0.00    +0.000 A 
ATOM     16 CL   UNL     1       2.179  -6.810  26.466  0.00  0.00    +0.000 Cl
ATOM     17  C   UNL     1       2.989  -4.200  26.403  0.00  0.00    +0.000 A 
ATOM     18  C   UNL     1       4.459  -3.696  26.608  0.00  0.00    +0.000 A 
ENDBRANCH   9  12
ENDBRANCH   6   9
BRANCH   1  19
ATOM     19  C   UNL     1       6.485  -0.325  23.952  0.00  0.00    +0.000 C 
BRANCH  19  20
ATOM     20  N   UNL     1       7.504   0.622  23.585  0.00  0.00    +0.000 N 
BRANCH  20  27
ATOM     21  C   UNL     1       8.657   2.583  24.426  0.00  0.00    +0.000 C 
ATOM     22  C   UNL     1       8.087   3.679  25.132  0.00  0.00    +0.000 C 
ATOM     23  S   UNL     1       6.996   2.785  26.352  0.00  0.00    +0.000 S 
ATOM     24  O   UNL     1       7.363   3.177  27.627  0.00  0.00    +0.000 OA
ATOM     25  O   UNL     1       5.685   2.871  25.866  0.00  0.00    +0.000 OA
ATOM     26  C   UNL     1       7.570   1.071  26.067  0.00  0.00    +0.000 C 
ATOM     27  C   UNL     1       8.305   1.124  24.764  0.00  0.00    +0.000 C 
ENDBRANCH  20  27
BRANCH  20  28
ATOM     28  C   UNL     1       7.668   1.300  22.474  0.00  0.00    +0.000 A 
ATOM     29  C   UNL     1       8.671   0.476  21.693  0.00  0.00    +0.000 A 
ATOM     30  C   UNL     1       8.496  -0.014  20.307  0.00  0.00    +0.000 A 
ATOM     31  C   UNL     1       7.145   0.415  19.742  0.00  0.00    +0.000 A 
ATOM     32  F   UNL     1       6.540  -0.849  19.678  0.00  0.00    +0.000 F 
ATOM     33  C   UNL     1       6.258   1.473  20.278  0.00  0.00    +0.000 A 
ATOM     34  C   UNL     1       6.768   2.066  21.629  0.00  0.00    +0.000 A 
ENDBRANCH  20  28
ENDBRANCH  19  20
ENDBRANCH   1  19
TORSDOF 6
ENDMDL
MODEL 7
REMARK VINA RESULT:      -7.6      2.880      4.458
REMARK  Name = 
REMARK  6 active torsions:
REMARK  status: ('A' for Active; 'I' for Inactive)
REMARK    1  A    between atoms: C_11  and  N_13
REMARK    2  A    between atoms: N_13  and  C_14
REMARK    3  A    between atoms: N_13  and  C_25
REMARK    4  A    between atoms: C_25  and  C_28
REMARK    5  A    between atoms: N_37  and  S_38
REMARK    6  A    between atoms: S_38  and  C_41
REMARK                            x       y       z     vdW  Elec       q    Type
REMARK                         _______ _______ _______ _____ _____    ______ ____
ROOT
ATOM      1  C   UNL     1       8.056  -1.295  22.482  0.00  0.00    +0.000 C 
ATOM      2  O   UNL     1       7.430  -1.279  21.407  0.00  0.00    +0.000 OA
ATOM      3  N   UNL     1       8.184  -2.454  23.171  0.00  0.00    +0.000 N 
ATOM      4  C   UNL     1       9.449  -2.778  23.815  0.00  0.00    +0.000 C 
ATOM      5  C   UNL     1       9.169  -3.706  25.025  0.00  0.00    +0.000 C 
ATOM      6  N   UNL     1       8.063  -4.477  24.859  0.00  0.00    +0.000 NA
ATOM      7  C   UNL     1       7.741  -4.831  23.544  0.00  0.00    +0.000 C 
ATOM      8  C   UNL     1       7.377  -3.609  22.722  0.00  0.00    +0.000 C 
ENDROOT
BRANCH   6   9
ATOM      9  S   UNL     1       7.055  -4.814  26.012  0.00  0.00    +0.000 S 
ATOM     10  O   UNL     1       7.722  -4.999  27.274  0.00  0.00    +0.000 OA
ATOM     11  O   UNL     1       6.165  -5.911  25.647  0.00  0.00    +0.000 OA
BRANCH   9  12
ATOM     12  C   UNL     1       5.945  -3.403  26.301  0.00  0.00    +0.000 A 
ATOM     13  C   UNL     1       5.437  -3.728  27.661  0.00  0.00    +0.000 A 
ATOM     14  C   UNL     1       4.076  -4.221  28.016  0.00  0.00    +0.000 A 
ATOM     15  C   UNL     1       3.148  -4.227  26.826  0.00  0.00    +0.000 A 
ATOM     16 CL   UNL     1       2.547  -5.926  26.746  0.00  0.00    +0.000 Cl
ATOM     17  C   UNL     1       3.407  -3.655  25.490  0.00  0.00    +0.000 A 
ATOM     18  C   UNL     1       4.903  -3.238  25.284  0.00  0.00    +0.000 A 
ENDBRANCH   9  12
ENDBRANCH   6   9
BRANCH   1  19
ATOM     19  C   UNL     1       8.640  -0.032  23.015  0.00  0.00    +0.000 C 
BRANCH  19  20
ATOM     20  N   UNL     1       8.056   0.471  24.229  0.00  0.00    +0.000 N 
BRANCH  20  27
ATOM     21  C   UNL     1      10.204   1.588  24.089  0.00  0.00    +0.000 C 
ATOM     22  C   UNL     1      10.523   2.745  23.326  0.00  0.00    +0.000 C 
ATOM     23  S   UNL     1       9.058   3.834  23.704  0.00  0.00    +0.000 S 
ATOM     24  O   UNL     1       9.529   5.023  24.234  0.00  0.00    +0.000 OA
ATOM     25  O   UNL     1       8.204   3.769  22.595  0.00  0.00    +0.000 OA
ATOM     26  C   UNL     1       8.290   2.848  25.041  0.00  0.00    +0.000 C 
ATOM     27  C   UNL     1       8.919   1.494  24.929  0.00  0.00    +0.000 C 
ENDBRANCH  20  27
BRANCH  20  28
ATOM     28  C   UNL     1       7.058   0.006  24.944  0.00  0.00    +0.000 A 
ATOM     29  C   UNL     1       7.707  -0.395  26.251  0.00  0.00    +0.000 A 
ATOM     30  C   UNL     1       7.282   0.047  27.599  0.00  0.00    +0.000 A 
ATOM     31  C   UNL     1       6.084   0.989  27.513  0.00  0.00    +0.000 A 
ATOM     32  F   UNL     1       6.720   2.167  27.930  0.00  0.00    +0.000 F 
ATOM     33  C   UNL     1       5.188   1.175  26.349  0.00  0.00    +0.000 A 
ATOM     34  C   UNL     1       5.665   0.394  25.084  0.00  0.00    +0.000 A 
ENDBRANCH  20  28
ENDBRANCH  19  20
ENDBRANCH   1  19
TORSDOF 6
ENDMDL
MODEL 8
REMARK VINA RESULT:      -7.6      3.336      4.920
REMARK  Name = 
REMARK  6 active torsions:
REMARK  status: ('A' for Active; 'I' for Inactive)
REMARK    1  A    between atoms: C_11  and  N_13
REMARK    2  A    between atoms: N_13  and  C_14
REMARK    3  A    between atoms: N_13  and  C_25
REMARK    4  A    between atoms: C_25  and  C_28
REMARK    5  A    between atoms: N_37  and  S_38
REMARK    6  A    between atoms: S_38  and  C_41
REMARK                            x       y       z     vdW  Elec       q    Type
REMARK                         _______ _______ _______ _____ _____    ______ ____
ROOT
ATOM      1  C   UNL     1       9.139  -1.378  24.567  0.00  0.00    +0.000 C 
ATOM      2  O   UNL     1       9.965  -1.324  23.639  0.00  0.00    +0.000 OA
ATOM      3  N   UNL     1       8.288  -2.429  24.652  0.00  0.00    +0.000 N 
ATOM      4  C   UNL     1       7.983  -3.011  25.951  0.00  0.00    +0.000 C 
ATOM      5  C   UNL     1       6.576  -3.660  25.888  0.00  0.00    +0.000 C 
ATOM      6  N   UNL     1       6.249  -4.103  24.646  0.00  0.00    +0.000 NA
ATOM      7  C   UNL     1       7.310  -4.516  23.833  0.00  0.00    +0.000 C 
ATOM      8  C   UNL     1       8.231  -3.357  23.502  0.00  0.00    +0.000 C 
ENDROOT
BRANCH   6   9
ATOM      9  S   UNL     1       4.811  -3.993  24.032  0.00  0.00    +0.000 S 
ATOM     10  O   UNL     1       4.832  -4.053  22.594  0.00  0.00    +0.000 OA
ATOM     11  O   UNL     1       4.084  -2.845  24.565  0.00  0.00    +0.000 OA
BRANCH   9  12
ATOM     12  C   UNL     1       3.813  -5.432  24.520  0.00  0.00    +0.000 A 
ATOM     13  C   UNL     1       2.884  -4.804  25.497  0.00  0.00    +0.000 A 
ATOM     14  C   UNL     1       2.906  -4.954  26.980  0.00  0.00    +0.000 A 
ATOM     15  C   UNL     1       3.922  -5.976  27.430  0.00  0.00    +0.000 A 
ATOM     16 CL   UNL     1       4.957  -5.078  28.604  0.00  0.00    +0.000 Cl
ATOM     17  C   UNL     1       4.700  -6.896  26.579  0.00  0.00    +0.000 A 
ATOM     18  C   UNL     1       4.593  -6.553  25.053  0.00  0.00    +0.000 A 
ENDBRANCH   9  12
ENDBRANCH   6   9
BRANCH   1  19
ATOM     19  C   UNL     1       9.076  -0.274  25.566  0.00  0.00    +0.000 C 
BRANCH  19  20
ATOM     20  N   UNL     1       8.054   0.715  25.349  0.00  0.00    +0.000 N 
BRANCH  20  27
ATOM     21  C   UNL     1       7.404   0.194  27.627  0.00  0.00    +0.000 C 
ATOM     22  C   UNL     1       7.299   1.099  28.719  0.00  0.00    +0.000 C 
ATOM     23  S   UNL     1       6.398   2.520  27.916  0.00  0.00    +0.000 S 
ATOM     24  O   UNL     1       5.238   2.757  28.634  0.00  0.00    +0.000 OA
ATOM     25  O   UNL     1       7.353   3.508  27.646  0.00  0.00    +0.000 OA
ATOM     26  C   UNL     1       5.961   1.735  26.322  0.00  0.00    +0.000 C 
ATOM     27  C   UNL     1       6.844   0.529  26.234  0.00  0.00    +0.000 C 
ENDBRANCH  20  27
BRANCH  20  28
ATOM     28  C   UNL     1       7.891   1.560  24.359  0.00  0.00    +0.000 A 
ATOM     29  C   UNL     1       9.185   2.347  24.338  0.00  0.00    +0.000 A 
ATOM     30  C   UNL     1      10.065   2.535  23.163  0.00  0.00    +0.000 A 
ATOM     31  C   UNL     1       9.503   1.816  21.939  0.00  0.00    +0.000 A 
ATOM     32  F   UNL     1      10.482   0.819  21.820  0.00  0.00    +0.000 F 
ATOM     33  C   UNL     1       8.120   1.317  21.765  0.00  0.00    +0.000 A 
ATOM     34  C   UNL     1       7.255   1.461  23.056  0.00  0.00    +0.000 A 
ENDBRANCH  20  28
ENDBRANCH  19  20
ENDBRANCH   1  19
TORSDOF 6
ENDMDL
MODEL 9
REMARK VINA RESULT:      -7.6      3.215      7.577
REMARK  Name = 
REMARK  6 active torsions:
REMARK  status: ('A' for Active; 'I' for Inactive)
REMARK    1  A    between atoms: C_11  and  N_13
REMARK    2  A    between atoms: N_13  and  C_14
REMARK    3  A    between atoms: N_13  and  C_25
REMARK    4  A    between atoms: C_25  and  C_28
REMARK    5  A    between atoms: N_37  and  S_38
REMARK    6  A    between atoms: S_38  and  C_41
REMARK                            x       y       z     vdW  Elec       q    Type
REMARK                         _______ _______ _______ _____ _____    ______ ____
ROOT
ATOM      1  C   UNL     1       5.616  -0.983  25.828  0.00  0.00    +0.000 C 
ATOM      2  O   UNL     1       4.386  -0.866  25.971  0.00  0.00    +0.000 OA
ATOM      3  N   UNL     1       6.330   0.026  25.272  0.00  0.00    +0.000 N 
ATOM      4  C   UNL     1       7.636   0.372  25.812  0.00  0.00    +0.000 C 
ATOM      5  C   UNL     1       8.492   1.002  24.683  0.00  0.00    +0.000 C 
ATOM      6  N   UNL     1       7.746   1.647  23.748  0.00  0.00    +0.000 NA
ATOM      7  C   UNL     1       6.543   2.208  24.189  0.00  0.00    +0.000 C 
ATOM      8  C   UNL     1       5.575   1.136  24.653  0.00  0.00    +0.000 C 
ENDROOT
BRANCH   6   9
ATOM      9  S   UNL     1       8.063   1.623  22.213  0.00  0.00    +0.000 S 
ATOM     10  O   UNL     1       9.370   2.153  21.924  0.00  0.00    +0.000 OA
ATOM     11  O   UNL     1       6.992   2.231  21.431  0.00  0.00    +0.000 OA
BRANCH   9  12
ATOM     12  C   UNL     1       8.144  -0.095  21.620  0.00  0.00    +0.000 A 
ATOM     13  C   UNL     1       8.538   0.123  20.203  0.00  0.00    +0.000 A 
ATOM     14  C   UNL     1       7.676  -0.035  18.998  0.00  0.00    +0.000 A 
ATOM     15  C   UNL     1       6.324  -0.612  19.340  0.00  0.00    +0.000 A 
ATOM     16 CL   UNL     1       5.153   0.586  18.669  0.00  0.00    +0.000 Cl
ATOM     17  C   UNL     1       5.891  -1.158  20.640  0.00  0.00    +0.000 A 
ATOM     18  C   UNL     1       6.901  -0.852  21.799  0.00  0.00    +0.000 A 
ENDBRANCH   9  12
ENDBRANCH   6   9
BRANCH   1  19
ATOM     19  C   UNL     1       6.292  -2.243  26.248  0.00  0.00    +0.000 C 
BRANCH  19  20
ATOM     20  N   UNL     1       5.791  -3.455  25.657  0.00  0.00    +0.000 N 
BRANCH  20  27
ATOM     21  C   UNL     1       7.767  -2.967  24.339  0.00  0.00    +0.000 C 
ATOM     22  C   UNL     1       9.124  -3.061  24.755  0.00  0.00    +0.000 C 
ATOM     23  S   UNL     1       9.111  -4.707  25.632  0.00  0.00    +0.000 S 
ATOM     24  O   UNL     1      10.062  -5.519  25.039  0.00  0.00    +0.000 OA
ATOM     25  O   UNL     1       9.075  -4.437  27.006  0.00  0.00    +0.000 OA
ATOM     26  C   UNL     1       7.445  -5.291  25.148  0.00  0.00    +0.000 C 
ATOM     27  C   UNL     1       6.739  -4.067  24.652  0.00  0.00    +0.000 C 
ENDBRANCH  20  27
BRANCH  20  28
ATOM     28  C   UNL     1       4.576  -3.952  25.647  0.00  0.00    +0.000 A 
ATOM     29  C   UNL     1       4.227  -4.021  24.176  0.00  0.00    +0.000 A 
ATOM     30  C   UNL     1       3.753  -5.225  23.454  0.00  0.00    +0.000 A 
ATOM     31  C   UNL     1       3.663  -6.425  24.393  0.00  0.00    +0.000 A 
ATOM     32  F   UNL     1       4.709  -7.187  23.851  0.00  0.00    +0.000 F 
ATOM     33  C   UNL     1       3.657  -6.390  25.874  0.00  0.00    +0.000 A 
ATOM     34  C   UNL     1       3.904  -4.960  26.449  0.00  0.00    +0.000 A 
ENDBRANCH  20  28
ENDBRANCH  19  20
ENDBRANCH   1  19
TORSDOF 6
ENDMDL
