MODEL 1
REMARK VINA RESULT:      -8.6      0.000      0.000
REMARK  Name = 
REMARK  8 active torsions:
REMARK  status: ('A' for Active; 'I' for Inactive)
REMARK    1  A    between atoms: O_2  and  C_3
REMARK    2  A    between atoms: C_12  and  N_13
REMARK    3  A    between atoms: C_15  and  C_17
REMARK    4  A    between atoms: C_26  and  C_28
REMARK    5  A    between atoms: C_28  and  C_31
REMARK    6  A    between atoms: C_31  and  C_34
REMARK    7  A    between atoms: N_36  and  N_38
REMARK    8  A    between atoms: C_40  and  C_42
REMARK                            x       y       z     vdW  Elec       q    Type
REMARK                         _______ _______ _______ _____ _____    ______ ____
ROOT
ATOM      1  C   UNL     1       8.374  -5.395  24.855  0.00  0.00    +0.000 C 
ATOM      2  C   UNL     1       7.807  -5.419  23.474  0.00  0.00    +0.000 C 
ATOM      3  C   UNL     1       7.247  -4.099  23.022  0.00  0.00    +0.000 C 
ATOM      4  N   UNL     1       7.700  -3.029  23.913  0.00  0.00    +0.000 N 
ATOM      5  C   UNL     1       6.833  -2.069  24.289  0.00  0.00    +0.000 C 
ATOM      6  O   UNL     1       5.747  -2.406  24.752  0.00  0.00    +0.000 OA
ATOM      7  C   UNL     1       9.078  -3.037  24.317  0.00  0.00    +0.000 C 
ATOM      8  C   UNL     1       9.430  -4.336  25.027  0.00  0.00    +0.000 C 
ENDROOT
BRANCH   1  11
ATOM      9  N   UNL     1       6.058  -5.282  25.698  0.00  0.00    +0.000 N 
ATOM     10  H   UNL     1       5.670  -4.556  26.197  0.00  0.00    +0.000 HD
ATOM     11  C   UNL     1       7.367  -5.346  25.931  0.00  0.00    +0.000 C 
ATOM     12  O   UNL     1       7.749  -5.143  27.104  0.00  0.00    +0.000 OA
BRANCH   9  18
ATOM     13  C   UNL     1       5.089  -6.488  27.622  0.00  0.00    +0.000 A 
ATOM     14  C   UNL     1       3.586  -6.426  27.831  0.00  0.00    +0.000 A 
ATOM     15  C   UNL     1       2.508  -6.572  26.806  0.00  0.00    +0.000 A 
ATOM     16  C   UNL     1       3.234  -6.802  25.529  0.00  0.00    +0.000 A 
ATOM     17  C   UNL     1       4.524  -6.930  25.012  0.00  0.00    +0.000 A 
ATOM     18  C   UNL     1       5.456  -6.451  26.203  0.00  0.00    +0.000 A 
BRANCH  13  20
ATOM     19  H   UNL     1       6.285  -7.719  28.396  0.00  0.00    +0.000 HD
ATOM     20  O   UNL     1       5.396  -7.470  28.495  0.00  0.00    +0.000 OA
ENDBRANCH  13  20
ENDBRANCH   9  18
ENDBRANCH   1  11
BRANCH   5  21
ATOM     21  C   UNL     1       7.277  -0.647  24.269  0.00  0.00    +0.000 C 
BRANCH  21  22
ATOM     22  C   UNL     1       6.967   0.056  25.571  0.00  0.00    +0.000 C 
BRANCH  22  23
ATOM     23  C   UNL     1       8.181  -0.102  26.475  0.00  0.00    +0.000 C 
ATOM     24  O   UNL     1       8.119  -0.787  27.478  0.00  0.00    +0.000 OA
ATOM     25  N   UNL     1       9.367   0.233  25.940  0.00  0.00    +0.000 N 
ATOM     26  H   UNL     1       9.647  -0.450  25.325  0.00  0.00    +0.000 HD
BRANCH  25  27
ATOM     27  N   UNL     1       9.294   1.416  25.315  0.00  0.00    +0.000 N 
ATOM     28  H   UNL     1       8.443   1.510  24.879  0.00  0.00    +0.000 HD
ATOM     29  C   UNL     1      10.274   1.509  24.383  0.00  0.00    +0.000 C 
ATOM     30  O   UNL     1      11.203   0.724  24.397  0.00  0.00    +0.000 OA
BRANCH  29  31
ATOM     31  C   UNL     1       9.898   2.268  23.138  0.00  0.00    +0.000 C 
ATOM     32  S   UNL     1       8.143   2.757  23.284  0.00  0.00    +0.000 S 
ATOM     33  C   UNL     1       7.835   2.321  21.593  0.00  0.00    +0.000 C 
ATOM     34  C   UNL     1       8.718   1.295  21.199  0.00  0.00    +0.000 C 
ATOM     35  C   UNL     1       9.903   1.324  21.938  0.00  0.00    +0.000 C 
ATOM     36  C   UNL     1       8.421  -0.181  20.543  0.00  0.00    +0.000 C 
ATOM     37  C   UNL     1       6.812   0.019  20.682  0.00  0.00    +0.000 C 
ATOM     38  C   UNL     1       6.239   1.336  20.225  0.00  0.00    +0.000 C 
ATOM     39  C   UNL     1       6.411   2.457  21.341  0.00  0.00    +0.000 C 
ENDBRANCH  29  31
ENDBRANCH  25  27
ENDBRANCH  22  23
ENDBRANCH  21  22
ENDBRANCH   5  21
TORSDOF 8
ENDMDL
MODEL 2
REMARK VINA RESULT:      -8.4      1.632      2.277
REMARK  Name = 
REMARK  8 active torsions:
REMARK  status: ('A' for Active; 'I' for Inactive)
REMARK    1  A    between atoms: O_2  and  C_3
REMARK    2  A    between atoms: C_12  and  N_13
REMARK    3  A    between atoms: C_15  and  C_17
REMARK    4  A    between atoms: C_26  and  C_28
REMARK    5  A    between atoms: C_28  and  C_31
REMARK    6  A    between atoms: C_31  and  C_34
REMARK    7  A    between atoms: N_36  and  N_38
REMARK    8  A    between atoms: C_40  and  C_42
REMARK                            x       y       z     vdW  Elec       q    Type
REMARK                         _______ _______ _______ _____ _____    ______ ____
ROOT
ATOM      1  C   UNL     1       6.079  -6.099  22.078  0.00  0.00    +0.000 C 
ATOM      2  C   UNL     1       5.955  -5.247  20.859  0.00  0.00    +0.000 C 
ATOM      3  C   UNL     1       6.323  -3.805  21.082  0.00  0.00    +0.000 C 
ATOM      4  N   UNL     1       7.036  -3.659  22.352  0.00  0.00    +0.000 N 
ATOM      5  C   UNL     1       6.755  -2.613  23.153  0.00  0.00    +0.000 C 
ATOM      6  O   UNL     1       5.582  -2.391  23.440  0.00  0.00    +0.000 OA
ATOM      7  C   UNL     1       8.044  -4.634  22.666  0.00  0.00    +0.000 C 
ATOM      8  C   UNL     1       7.455  -6.037  22.688  0.00  0.00    +0.000 C 
ENDROOT
BRANCH   1  11
ATOM      9  N   UNL     1       5.127  -6.302  24.346  0.00  0.00    +0.000 N 
ATOM     10  H   UNL     1       4.347  -6.810  24.591  0.00  0.00    +0.000 HD
ATOM     11  C   UNL     1       5.023  -5.887  23.085  0.00  0.00    +0.000 C 
ATOM     12  O   UNL     1       3.899  -5.493  22.705  0.00  0.00    +0.000 OA
BRANCH   9  18
ATOM     13  C   UNL     1       3.837  -4.666  25.668  0.00  0.00    +0.000 A 
ATOM     14  C   UNL     1       3.620  -4.941  27.146  0.00  0.00    +0.000 A 
ATOM     15  C   UNL     1       4.619  -5.422  28.148  0.00  0.00    +0.000 A 
ATOM     16  C   UNL     1       5.883  -5.564  27.378  0.00  0.00    +0.000 A 
ATOM     17  C   UNL     1       6.409  -5.391  26.097  0.00  0.00    +0.000 A 
ATOM     18  C   UNL     1       5.126  -5.175  25.190  0.00  0.00    +0.000 A 
BRANCH  13  20
ATOM     19  H   UNL     1       2.530  -3.346  25.361  0.00  0.00    +0.000 HD
ATOM     20  O   UNL     1       3.422  -3.383  25.617  0.00  0.00    +0.000 OA
ENDBRANCH  13  20
ENDBRANCH   9  18
ENDBRANCH   1  11
BRANCH   5  21
ATOM     21  C   UNL     1       7.878  -1.859  23.777  0.00  0.00    +0.000 C 
BRANCH  21  22
ATOM     22  C   UNL     1       7.380  -0.793  24.725  0.00  0.00    +0.000 C 
BRANCH  22  23
ATOM     23  C   UNL     1       8.276  -0.820  25.954  0.00  0.00    +0.000 C 
ATOM     24  O   UNL     1       8.098  -1.647  26.830  0.00  0.00    +0.000 OA
ATOM     25  N   UNL     1       9.443  -0.162  25.854  0.00  0.00    +0.000 N 
ATOM     26  H   UNL     1      10.053  -0.670  25.310  0.00  0.00    +0.000 HD
BRANCH  25  27
ATOM     27  N   UNL     1       9.262   1.057  25.330  0.00  0.00    +0.000 N 
ATOM     28  H   UNL     1       8.439   1.088  24.836  0.00  0.00    +0.000 HD
ATOM     29  C   UNL     1      10.286   1.360  24.494  0.00  0.00    +0.000 C 
ATOM     30  O   UNL     1      11.305   0.697  24.516  0.00  0.00    +0.000 OA
BRANCH  29  31
ATOM     31  C   UNL     1       9.903   2.184  23.293  0.00  0.00    +0.000 C 
ATOM     32  S   UNL     1       8.130   2.601  23.437  0.00  0.00    +0.000 S 
ATOM     33  C   UNL     1       7.866   2.265  21.715  0.00  0.00    +0.000 C 
ATOM     34  C   UNL     1       8.792   1.298  21.274  0.00  0.00    +0.000 C 
ATOM     35  C   UNL     1       9.963   1.320  22.036  0.00  0.00    +0.000 C 
ATOM     36  C   UNL     1       8.560  -0.142  20.520  0.00  0.00    +0.000 C 
ATOM     37  C   UNL     1       6.942  -0.008  20.640  0.00  0.00    +0.000 C 
ATOM     38  C   UNL     1       6.330   1.315  20.258  0.00  0.00    +0.000 C 
ATOM     39  C   UNL     1       6.443   2.367  21.446  0.00  0.00    +0.000 C 
ENDBRANCH  29  31
ENDBRANCH  25  27
ENDBRANCH  22  23
ENDBRANCH  21  22
ENDBRANCH   5  21
TORSDOF 8
ENDMDL
MODEL 3
REMARK VINA RESULT:      -8.2      3.034      8.198
REMARK  Name = 
REMARK  8 active torsions:
REMARK  status: ('A' for Active; 'I' for Inactive)
REMARK    1  A    between atoms: O_2  and  C_3
REMARK    2  A    between atoms: C_12  and  N_13
REMARK    3  A    between atoms: C_15  and  C_17
REMARK    4  A    between atoms: C_26  and  C_28
REMARK    5  A    between atoms: C_28  and  C_31
REMARK    6  A    between atoms: C_31  and  C_34
REMARK    7  A    between atoms: N_36  and  N_38
REMARK    8  A    between atoms: C_40  and  C_42
REMARK                            x       y       z     vdW  Elec       q    Type
REMARK                         _______ _______ _______ _____ _____    ______ ____
ROOT
ATOM      1  C   UNL     1       8.763   1.046  21.576  0.00  0.00    +0.000 C 
ATOM      2  C   UNL     1       9.967   1.495  22.335  0.00  0.00    +0.000 C 
ATOM      3  C   UNL     1      10.436   0.513  23.373  0.00  0.00    +0.000 C 
ATOM      4  N   UNL     1       9.804  -0.789  23.154  0.00  0.00    +0.000 N 
ATOM      5  C   UNL     1       9.359  -1.496  24.211  0.00  0.00    +0.000 C 
ATOM      6  O   UNL     1       8.626  -0.939  25.024  0.00  0.00    +0.000 OA
ATOM      7  C   UNL     1       9.724  -1.273  21.803  0.00  0.00    +0.000 C 
ATOM      8  C   UNL     1       8.962  -0.295  20.920  0.00  0.00    +0.000 C 
ENDROOT
BRANCH   1  11
ATOM      9  N   UNL     1       7.264   2.010  23.282  0.00  0.00    +0.000 N 
ATOM     10  H   UNL     1       6.967   1.576  24.087  0.00  0.00    +0.000 HD
ATOM     11  C   UNL     1       7.501   1.103  22.336  0.00  0.00    +0.000 C 
ATOM     12  O   UNL     1       6.702   0.146  22.250  0.00  0.00    +0.000 OA
BRANCH   9  18
ATOM     13  C   UNL     1       4.974   2.835  23.691  0.00  0.00    +0.000 A 
ATOM     14  C   UNL     1       4.801   4.149  24.434  0.00  0.00    +0.000 A 
ATOM     15  C   UNL     1       5.553   5.424  24.233  0.00  0.00    +0.000 A 
ATOM     16  C   UNL     1       6.508   5.127  23.133  0.00  0.00    +0.000 A 
ATOM     17  C   UNL     1       6.896   4.102  22.268  0.00  0.00    +0.000 A 
ATOM     18  C   UNL     1       6.186   2.817  22.867  0.00  0.00    +0.000 A 
BRANCH  13  20
ATOM     19  H   UNL     1       3.290   1.994  23.740  0.00  0.00    +0.000 HD
ATOM     20  O   UNL     1       3.711   2.661  23.249  0.00  0.00    +0.000 OA
ENDBRANCH  13  20
ENDBRANCH   9  18
ENDBRANCH   1  11
BRANCH   5  21
ATOM     21  C   UNL     1       9.647  -2.956  24.277  0.00  0.00    +0.000 C 
BRANCH  21  22
ATOM     22  C   UNL     1       8.569  -3.708  25.022  0.00  0.00    +0.000 C 
BRANCH  22  23
ATOM     23  C   UNL     1       9.176  -5.017  25.506  0.00  0.00    +0.000 C 
ATOM     24  O   UNL     1      10.338  -5.285  25.263  0.00  0.00    +0.000 OA
ATOM     25  N   UNL     1       8.509  -5.656  26.482  0.00  0.00    +0.000 N 
ATOM     26  H   UNL     1       8.647  -5.200  27.317  0.00  0.00    +0.000 HD
BRANCH  25  27
ATOM     27  N   UNL     1       7.201  -5.725  26.203  0.00  0.00    +0.000 N 
ATOM     28  H   UNL     1       6.922  -4.942  25.722  0.00  0.00    +0.000 HD
ATOM     29  C   UNL     1       6.486  -5.811  27.351  0.00  0.00    +0.000 C 
ATOM     30  O   UNL     1       7.045  -6.081  28.397  0.00  0.00    +0.000 OA
BRANCH  29  31
ATOM     31  C   UNL     1       5.153  -5.111  27.324  0.00  0.00    +0.000 C 
ATOM     32  S   UNL     1       3.859  -6.372  27.051  0.00  0.00    +0.000 S 
ATOM     33  C   UNL     1       3.017  -5.320  25.897  0.00  0.00    +0.000 C 
ATOM     34  C   UNL     1       3.945  -4.466  25.269  0.00  0.00    +0.000 C 
ATOM     35  C   UNL     1       5.059  -4.232  26.078  0.00  0.00    +0.000 C 
ATOM     36  C   UNL     1       4.258  -4.208  23.677  0.00  0.00    +0.000 C 
ATOM     37  C   UNL     1       3.216  -5.373  23.226  0.00  0.00    +0.000 C 
ATOM     38  C   UNL     1       1.861  -5.380  23.885  0.00  0.00    +0.000 C 
ATOM     39  C   UNL     1       1.919  -6.073  25.316  0.00  0.00    +0.000 C 
ENDBRANCH  29  31
ENDBRANCH  25  27
ENDBRANCH  22  23
ENDBRANCH  21  22
ENDBRANCH   5  21
TORSDOF 8
ENDMDL
MODEL 4
REMARK VINA RESULT:      -8.1      2.946      5.291
REMARK  Name = 
REMARK  8 active torsions:
REMARK  status: ('A' for Active; 'I' for Inactive)
REMARK    1  A    between atoms: O_2  and  C_3
REMARK    2  A    between atoms: C_12  and  N_13
REMARK    3  A    between atoms: C_15  and  C_17
REMARK    4  A    between atoms: C_26  and  C_28
REMARK    5  A    between atoms: C_28  and  C_31
REMARK    6  A    between atoms: C_31  and  C_34
REMARK    7  A    between atoms: N_36  and  N_38
REMARK    8  A    between atoms: C_40  and  C_42
REMARK                            x       y       z     vdW  Elec       q    Type
REMARK                         _______ _______ _______ _____ _____    ______ ____
ROOT
ATOM      1  C   UNL     1       4.972  -1.234  27.242  0.00  0.00    +0.000 C 
ATOM      2  C   UNL     1       6.198  -0.525  27.714  0.00  0.00    +0.000 C 
ATOM      3  C   UNL     1       6.558   0.683  26.893  0.00  0.00    +0.000 C 
ATOM      4  N   UNL     1       5.432   1.065  26.041  0.00  0.00    +0.000 N 
ATOM      5  C   UNL     1       5.662   1.442  24.768  0.00  0.00    +0.000 C 
ATOM      6  O   UNL     1       6.345   0.714  24.054  0.00  0.00    +0.000 OA
ATOM      7  C   UNL     1       4.120   1.056  26.626  0.00  0.00    +0.000 C 
ATOM      8  C   UNL     1       3.773  -0.325  27.164  0.00  0.00    +0.000 C 
ENDROOT
BRANCH   1  11
ATOM      9  N   UNL     1       6.344  -2.250  25.461  0.00  0.00    +0.000 N 
ATOM     10  H   UNL     1       6.337  -2.007  24.530  0.00  0.00    +0.000 HD
ATOM     11  C   UNL     1       5.151  -2.012  26.003  0.00  0.00    +0.000 C 
ATOM     12  O   UNL     1       4.146  -2.285  25.312  0.00  0.00    +0.000 OA
BRANCH   9  18
ATOM     13  C   UNL     1       6.854  -4.321  24.220  0.00  0.00    +0.000 A 
ATOM     14  C   UNL     1       8.306  -4.754  24.102  0.00  0.00    +0.000 A 
ATOM     15  C   UNL     1       9.348  -4.776  25.172  0.00  0.00    +0.000 A 
ATOM     16  C   UNL     1       8.647  -4.286  26.388  0.00  0.00    +0.000 A 
ATOM     17  C   UNL     1       7.396  -3.850  26.829  0.00  0.00    +0.000 A 
ATOM     18  C   UNL     1       6.578  -3.639  25.487  0.00  0.00    +0.000 A 
BRANCH  13  20
ATOM     19  H   UNL     1       6.887  -6.065  23.510  0.00  0.00    +0.000 HD
ATOM     20  O   UNL     1       6.250  -5.443  23.774  0.00  0.00    +0.000 OA
ENDBRANCH  13  20
ENDBRANCH   9  18
ENDBRANCH   1  11
BRANCH   5  21
ATOM     21  C   UNL     1       4.963   2.644  24.232  0.00  0.00    +0.000 C 
BRANCH  21  22
ATOM     22  C   UNL     1       5.655   3.197  23.008  0.00  0.00    +0.000 C 
BRANCH  22  23
ATOM     23  C   UNL     1       4.817   2.814  21.798  0.00  0.00    +0.000 C 
ATOM     24  O   UNL     1       3.727   3.323  21.615  0.00  0.00    +0.000 OA
ATOM     25  N   UNL     1       5.466   2.196  20.797  0.00  0.00    +0.000 N 
ATOM     26  H   UNL     1       5.998   2.836  20.315  0.00  0.00    +0.000 HD
BRANCH  25  27
ATOM     27  N   UNL     1       6.242   1.210  21.266  0.00  0.00    +0.000 N 
ATOM     28  H   UNL     1       6.899   1.563  21.871  0.00  0.00    +0.000 HD
ATOM     29  C   UNL     1       6.879   0.593  20.240  0.00  0.00    +0.000 C 
ATOM     30  O   UNL     1       6.509   0.776  19.097  0.00  0.00    +0.000 OA
BRANCH  29  31
ATOM     31  C   UNL     1       8.270   0.109  20.555  0.00  0.00    +0.000 C 
ATOM     32  S   UNL     1       8.145  -1.152  21.871  0.00  0.00    +0.000 S 
ATOM     33  C   UNL     1       9.549  -0.472  22.716  0.00  0.00    +0.000 C 
ATOM     34  C   UNL     1       9.643   0.907  22.445  0.00  0.00    +0.000 C 
ATOM     35  C   UNL     1       9.068   1.232  21.215  0.00  0.00    +0.000 C 
ATOM     36  C   UNL     1       9.722   2.195  23.461  0.00  0.00    +0.000 C 
ATOM     37  C   UNL     1       9.518   1.248  24.769  0.00  0.00    +0.000 C 
ATOM     38  C   UNL     1      10.347  -0.009  24.846  0.00  0.00    +0.000 C 
ATOM     39  C   UNL     1       9.704  -1.177  23.977  0.00  0.00    +0.000 C 
ENDBRANCH  29  31
ENDBRANCH  25  27
ENDBRANCH  22  23
ENDBRANCH  21  22
ENDBRANCH   5  21
TORSDOF 8
ENDMDL
MODEL 5
REMARK VINA RESULT:      -8.1      2.830      7.837
REMARK  Name = 
REMARK  8 active torsions:
REMARK  status: ('A' for Active; 'I' for Inactive)
REMARK    1  A    between atoms: O_2  and  C_3
REMARK    2  A    between atoms: C_12  and  N_13
REMARK    3  A    between atoms: C_15  and  C_17
REMARK    4  A    between atoms: C_26  and  C_28
REMARK    5  A    between atoms: C_28  and  C_31
REMARK    6  A    between atoms: C_31  and  C_34
REMARK    7  A    between atoms: N_36  and  N_38
REMARK    8  A    between atoms: C_40  and  C_42
REMARK                            x       y       z     vdW  Elec       q    Type
REMARK                         _______ _______ _______ _____ _____    ______ ____
ROOT
ATOM      1  C   UNL     1       9.871   1.116  22.798  0.00  0.00    +0.000 C 
ATOM      2  C   UNL     1       9.891   1.704  24.170  0.00  0.00    +0.000 C 
ATOM      3  C   UNL     1       8.717   1.304  25.022  0.00  0.00    +0.000 C 
ATOM      4  N   UNL     1       8.022   0.167  24.416  0.00  0.00    +0.000 N 
ATOM      5  C   UNL     1       6.675   0.143  24.408  0.00  0.00    +0.000 C 
ATOM      6  O   UNL     1       6.072   1.125  23.985  0.00  0.00    +0.000 OA
ATOM      7  C   UNL     1       8.824  -0.901  23.887  0.00  0.00    +0.000 C 
ATOM      8  C   UNL     1       9.775  -0.387  22.815  0.00  0.00    +0.000 C 
ENDROOT
BRANCH   1  11
ATOM      9  N   UNL     1       8.451   1.115  20.780  0.00  0.00    +0.000 N 
ATOM     10  H   UNL     1       8.534   1.708  20.027  0.00  0.00    +0.000 HD
ATOM     11  C   UNL     1       8.882   1.719  21.886  0.00  0.00    +0.000 C 
ATOM     12  O   UNL     1       8.588   2.925  22.029  0.00  0.00    +0.000 OA
BRANCH   9  18
ATOM     13  C   UNL     1       6.131   1.903  20.480  0.00  0.00    +0.000 A 
ATOM     14  C   UNL     1       5.396   1.518  19.208  0.00  0.00    +0.000 A 
ATOM     15  C   UNL     1       5.353   0.181  18.540  0.00  0.00    +0.000 A 
ATOM     16  C   UNL     1       6.185  -0.697  19.404  0.00  0.00    +0.000 A 
ATOM     17  C   UNL     1       6.940  -0.678  20.578  0.00  0.00    +0.000 A 
ATOM     18  C   UNL     1       7.072   0.866  20.915  0.00  0.00    +0.000 A 
BRANCH  13  20
ATOM     19  H   UNL     1       5.411   2.839  21.946  0.00  0.00    +0.000 HD
ATOM     20  O   UNL     1       5.096   2.388  21.197  0.00  0.00    +0.000 OA
ENDBRANCH  13  20
ENDBRANCH   9  18
ENDBRANCH   1  11
BRANCH   5  21
ATOM     21  C   UNL     1       5.973  -1.120  24.771  0.00  0.00    +0.000 C 
BRANCH  21  22
ATOM     22  C   UNL     1       5.779  -1.246  26.265  0.00  0.00    +0.000 C 
BRANCH  22  23
ATOM     23  C   UNL     1       4.325  -0.913  26.566  0.00  0.00    +0.000 C 
ATOM     24  O   UNL     1       3.925   0.234  26.487  0.00  0.00    +0.000 OA
ATOM     25  N   UNL     1       3.466  -1.946  26.560  0.00  0.00    +0.000 N 
ATOM     26  H   UNL     1       3.291  -2.213  25.653  0.00  0.00    +0.000 HD
BRANCH  25  27
ATOM     27  N   UNL     1       3.953  -2.978  27.261  0.00  0.00    +0.000 N 
ATOM     28  H   UNL     1       4.912  -2.939  27.288  0.00  0.00    +0.000 HD
ATOM     29  C   UNL     1       3.578  -4.147  26.685  0.00  0.00    +0.000 C 
ATOM     30  O   UNL     1       2.695  -4.158  25.850  0.00  0.00    +0.000 OA
BRANCH  29  31
ATOM     31  C   UNL     1       4.594  -5.255  26.778  0.00  0.00    +0.000 C 
ATOM     32  S   UNL     1       6.098  -4.578  27.565  0.00  0.00    +0.000 S 
ATOM     33  C   UNL     1       7.139  -5.427  26.407  0.00  0.00    +0.000 C 
ATOM     34  C   UNL     1       6.452  -5.598  25.189  0.00  0.00    +0.000 C 
ATOM     35  C   UNL     1       5.069  -5.638  25.378  0.00  0.00    +0.000 C 
ATOM     36  C   UNL     1       6.865  -5.175  23.656  0.00  0.00    +0.000 C 
ATOM     37  C   UNL     1       8.215  -4.423  24.168  0.00  0.00    +0.000 C 
ATOM     38  C   UNL     1       9.079  -5.157  25.161  0.00  0.00    +0.000 C 
ATOM     39  C   UNL     1       8.511  -5.010  26.640  0.00  0.00    +0.000 C 
ENDBRANCH  29  31
ENDBRANCH  25  27
ENDBRANCH  22  23
ENDBRANCH  21  22
ENDBRANCH   5  21
TORSDOF 8
ENDMDL
MODEL 6
REMARK VINA RESULT:      -8.1      2.746      7.154
REMARK  Name = 
REMARK  8 active torsions:
REMARK  status: ('A' for Active; 'I' for Inactive)
REMARK    1  A    between atoms: O_2  and  C_3
REMARK    2  A    between atoms: C_12  and  N_13
REMARK    3  A    between atoms: C_15  and  C_17
REMARK    4  A    between atoms: C_26  and  C_28
REMARK    5  A    between atoms: C_28  and  C_31
REMARK    6  A    between atoms: C_31  and  C_34
REMARK    7  A    between atoms: N_36  and  N_38
REMARK    8  A    between atoms: C_40  and  C_42
REMARK                            x       y       z     vdW  Elec       q    Type
REMARK                         _______ _______ _______ _____ _____    ______ ____
ROOT
ATOM      1  C   UNL     1       7.563   0.396  21.642  0.00  0.00    +0.000 C 
ATOM      2  C   UNL     1       8.959   0.243  21.137  0.00  0.00    +0.000 C 
ATOM      3  C   UNL     1       9.723  -0.880  21.785  0.00  0.00    +0.000 C 
ATOM      4  N   UNL     1       8.804  -1.761  22.507  0.00  0.00    +0.000 N 
ATOM      5  C   UNL     1       9.154  -2.233  23.719  0.00  0.00    +0.000 C 
ATOM      6  O   UNL     1       9.539  -1.437  24.571  0.00  0.00    +0.000 OA
ATOM      7  C   UNL     1       7.571  -2.115  21.859  0.00  0.00    +0.000 C 
ATOM      8  C   UNL     1       6.761  -0.873  21.517  0.00  0.00    +0.000 C 
ENDROOT
BRANCH   1  11
ATOM      9  N   UNL     1       6.375   0.856  23.756  0.00  0.00    +0.000 N 
ATOM     10  H   UNL     1       6.097   1.720  24.074  0.00  0.00    +0.000 HD
ATOM     11  C   UNL     1       7.459   0.979  22.992  0.00  0.00    +0.000 C 
ATOM     12  O   UNL     1       8.328   1.798  23.363  0.00  0.00    +0.000 OA
BRANCH   9  18
ATOM     13  C   UNL     1       7.269   0.848  26.057  0.00  0.00    +0.000 A 
ATOM     14  C   UNL     1       6.287   0.923  27.213  0.00  0.00    +0.000 A 
ATOM     15  C   UNL     1       5.006   0.173  27.382  0.00  0.00    +0.000 A 
ATOM     16  C   UNL     1       4.905  -0.676  26.165  0.00  0.00    +0.000 A 
ATOM     17  C   UNL     1       5.591  -0.988  24.990  0.00  0.00    +0.000 A 
ATOM     18  C   UNL     1       6.720   0.122  24.907  0.00  0.00    +0.000 A 
BRANCH  13  20
ATOM     19  H   UNL     1       8.184  -0.033  27.447  0.00  0.00    +0.000 HD
ATOM     20  O   UNL     1       8.390   0.528  26.736  0.00  0.00    +0.000 OA
ENDBRANCH  13  20
ENDBRANCH   9  18
ENDBRANCH   1  11
BRANCH   5  21
ATOM     21  C   UNL     1       8.923  -3.672  24.028  0.00  0.00    +0.000 C 
BRANCH  21  22
ATOM     22  C   UNL     1       8.235  -3.857  25.362  0.00  0.00    +0.000 C 
BRANCH  22  23
ATOM     23  C   UNL     1       8.904  -5.030  26.061  0.00  0.00    +0.000 C 
ATOM     24  O   UNL     1      10.104  -5.208  25.958  0.00  0.00    +0.000 OA
ATOM     25  N   UNL     1       8.203  -5.613  27.048  0.00  0.00    +0.000 N 
ATOM     26  H   UNL     1       8.215  -5.049  27.827  0.00  0.00    +0.000 HD
BRANCH  25  27
ATOM     27  N   UNL     1       6.940  -5.845  26.666  0.00  0.00    +0.000 N 
ATOM     28  H   UNL     1       6.658  -5.183  26.029  0.00  0.00    +0.000 HD
ATOM     29  C   UNL     1       6.114  -5.798  27.740  0.00  0.00    +0.000 C 
ATOM     30  O   UNL     1       6.576  -5.835  28.864  0.00  0.00    +0.000 OA
BRANCH  29  31
ATOM     31  C   UNL     1       4.745  -5.235  27.464  0.00  0.00    +0.000 C 
ATOM     32  S   UNL     1       3.667  -6.610  26.929  0.00  0.00    +0.000 S 
ATOM     33  C   UNL     1       2.955  -5.611  25.648  0.00  0.00    +0.000 C 
ATOM     34  C   UNL     1       3.890  -4.647  25.224  0.00  0.00    +0.000 C 
ATOM     35  C   UNL     1       4.798  -4.329  26.236  0.00  0.00    +0.000 C 
ATOM     36  C   UNL     1       4.473  -4.305  23.726  0.00  0.00    +0.000 C 
ATOM     37  C   UNL     1       3.665  -5.554  23.066  0.00  0.00    +0.000 C 
ATOM     38  C   UNL     1       2.217  -5.719  23.450  0.00  0.00    +0.000 C 
ATOM     39  C   UNL     1       2.073  -6.451  24.855  0.00  0.00    +0.000 C 
ENDBRANCH  29  31
ENDBRANCH  25  27
ENDBRANCH  22  23
ENDBRANCH  21  22
ENDBRANCH   5  21
TORSDOF 8
ENDMDL
MODEL 7
REMARK VINA RESULT:      -8.1      2.082      3.269
REMARK  Name = 
REMARK  8 active torsions:
REMARK  status: ('A' for Active; 'I' for Inactive)
REMARK    1  A    between atoms: O_2  and  C_3
REMARK    2  A    between atoms: C_12  and  N_13
REMARK    3  A    between atoms: C_15  and  C_17
REMARK    4  A    between atoms: C_26  and  C_28
REMARK    5  A    between atoms: C_28  and  C_31
REMARK    6  A    between atoms: C_31  and  C_34
REMARK    7  A    between atoms: N_36  and  N_38
REMARK    8  A    between atoms: C_40  and  C_42
REMARK                            x       y       z     vdW  Elec       q    Type
REMARK                         _______ _______ _______ _____ _____    ______ ____
ROOT
ATOM      1  C   UNL     1       6.098  -5.291  23.758  0.00  0.00    +0.000 C 
ATOM      2  C   UNL     1       5.272  -4.105  23.382  0.00  0.00    +0.000 C 
ATOM      3  C   UNL     1       5.946  -2.786  23.639  0.00  0.00    +0.000 C 
ATOM      4  N   UNL     1       7.376  -2.990  23.878  0.00  0.00    +0.000 N 
ATOM      5  C   UNL     1       7.990  -2.295  24.855  0.00  0.00    +0.000 C 
ATOM      6  O   UNL     1       7.494  -2.297  25.978  0.00  0.00    +0.000 OA
ATOM      7  C   UNL     1       8.071  -3.909  23.019  0.00  0.00    +0.000 C 
ATOM      8  C   UNL     1       7.445  -5.294  23.084  0.00  0.00    +0.000 C 
ENDROOT
BRANCH   1  11
ATOM      9  N   UNL     1       5.205  -5.320  26.058  0.00  0.00    +0.000 N 
ATOM     10  H   UNL     1       5.498  -4.765  26.788  0.00  0.00    +0.000 HD
ATOM     11  C   UNL     1       6.210  -5.524  25.210  0.00  0.00    +0.000 C 
ATOM     12  O   UNL     1       7.343  -5.717  25.702  0.00  0.00    +0.000 OA
BRANCH   9  18
ATOM     13  C   UNL     1       5.019  -6.714  28.086  0.00  0.00    +0.000 A 
ATOM     14  C   UNL     1       3.689  -6.749  28.820  0.00  0.00    +0.000 A 
ATOM     15  C   UNL     1       2.320  -6.878  28.235  0.00  0.00    +0.000 A 
ATOM     16  C   UNL     1       2.546  -6.974  26.769  0.00  0.00    +0.000 A 
ATOM     17  C   UNL     1       3.569  -6.994  25.819  0.00  0.00    +0.000 A 
ATOM     18  C   UNL     1       4.852  -6.554  26.639  0.00  0.00    +0.000 A 
BRANCH  13  20
ATOM     19  H   UNL     1       5.818  -7.518  29.590  0.00  0.00    +0.000 HD
ATOM     20  O   UNL     1       5.642  -7.739  28.705  0.00  0.00    +0.000 OA
ENDBRANCH  13  20
ENDBRANCH   9  18
ENDBRANCH   1  11
BRANCH   5  21
ATOM     21  C   UNL     1       9.317  -1.677  24.577  0.00  0.00    +0.000 C 
BRANCH  21  22
ATOM     22  C   UNL     1       9.202  -0.499  23.638  0.00  0.00    +0.000 C 
BRANCH  22  23
ATOM     23  C   UNL     1       9.967  -0.850  22.370  0.00  0.00    +0.000 C 
ATOM     24  O   UNL     1      10.726  -1.801  22.351  0.00  0.00    +0.000 OA
ATOM     25  N   UNL     1       9.504  -0.312  21.229  0.00  0.00    +0.000 N 
ATOM     26  H   UNL     1       8.704  -0.771  20.959  0.00  0.00    +0.000 HD
BRANCH  25  27
ATOM     27  N   UNL     1       9.258   0.996  21.381  0.00  0.00    +0.000 N 
ATOM     28  H   UNL     1       9.374   1.252  22.299  0.00  0.00    +0.000 HD
ATOM     29  C   UNL     1       7.985   1.274  21.006  0.00  0.00    +0.000 C 
ATOM     30  O   UNL     1       7.348   0.461  20.366  0.00  0.00    +0.000 OA
BRANCH  29  31
ATOM     31  C   UNL     1       7.310   2.357  21.807  0.00  0.00    +0.000 C 
ATOM     32  S   UNL     1       8.547   3.070  22.948  0.00  0.00    +0.000 S 
ATOM     33  C   UNL     1       7.368   3.102  24.274  0.00  0.00    +0.000 C 
ATOM     34  C   UNL     1       6.424   2.072  24.093  0.00  0.00    +0.000 C 
ATOM     35  C   UNL     1       6.278   1.736  22.745  0.00  0.00    +0.000 C 
ATOM     36  C   UNL     1       5.955   0.859  25.098  0.00  0.00    +0.000 C 
ATOM     37  C   UNL     1       7.070   1.274  26.209  0.00  0.00    +0.000 C 
ATOM     38  C   UNL     1       7.185   2.735  26.558  0.00  0.00    +0.000 C 
ATOM     39  C   UNL     1       8.058   3.518  25.482  0.00  0.00    +0.000 C 
ENDBRANCH  29  31
ENDBRANCH  25  27
ENDBRANCH  22  23
ENDBRANCH  21  22
ENDBRANCH   5  21
TORSDOF 8
ENDMDL
MODEL 8
REMARK VINA RESULT:      -7.8      2.799      8.135
REMARK  Name = 
REMARK  8 active torsions:
REMARK  status: ('A' for Active; 'I' for Inactive)
REMARK    1  A    between atoms: O_2  and  C_3
REMARK    2  A    between atoms: C_12  and  N_13
REMARK    3  A    between atoms: C_15  and  C_17
REMARK    4  A    between atoms: C_26  and  C_28
REMARK    5  A    between atoms: C_28  and  C_31
REMARK    6  A    between atoms: C_31  and  C_34
REMARK    7  A    between atoms: N_36  and  N_38
REMARK    8  A    between atoms: C_40  and  C_42
REMARK                            x       y       z     vdW  Elec       q    Type
REMARK                         _______ _______ _______ _____ _____    ______ ____
ROOT
ATOM      1  C   UNL     1      10.550   0.524  23.168  0.00  0.00    +0.000 C 
ATOM      2  C   UNL     1      10.627   0.594  24.657  0.00  0.00    +0.000 C 
ATOM      3  C   UNL     1       9.552  -0.189  25.361  0.00  0.00    +0.000 C 
ATOM      4  N   UNL     1       8.899  -1.102  24.421  0.00  0.00    +0.000 N 
ATOM      5  C   UNL     1       7.561  -1.249  24.462  0.00  0.00    +0.000 C 
ATOM      6  O   UNL     1       6.857  -0.243  24.441  0.00  0.00    +0.000 OA
ATOM      7  C   UNL     1       9.737  -1.836  23.513  0.00  0.00    +0.000 C 
ATOM      8  C   UNL     1      10.566  -0.892  22.655  0.00  0.00    +0.000 C 
ENDROOT
BRANCH   1  11
ATOM      9  N   UNL     1       9.121   1.232  21.286  0.00  0.00    +0.000 N 
ATOM     10  H   UNL     1       9.085   2.113  20.900  0.00  0.00    +0.000 HD
ATOM     11  C   UNL     1       9.455   1.311  22.572  0.00  0.00    +0.000 C 
ATOM     12  O   UNL     1       8.954   2.244  23.236  0.00  0.00    +0.000 OA
BRANCH   9  18
ATOM     13  C   UNL     1       6.691   1.660  21.348  0.00  0.00    +0.000 A 
ATOM     14  C   UNL     1       5.968   1.915  20.037  0.00  0.00    +0.000 A 
ATOM     15  C   UNL     1       6.114   1.173  18.747  0.00  0.00    +0.000 A 
ATOM     16  C   UNL     1       7.121   0.118  19.034  0.00  0.00    +0.000 A 
ATOM     17  C   UNL     1       7.920  -0.382  20.065  0.00  0.00    +0.000 A 
ATOM     18  C   UNL     1       7.810   0.726  21.195  0.00  0.00    +0.000 A 
BRANCH  13  20
ATOM     19  H   UNL     1       5.907   1.218  23.002  0.00  0.00    +0.000 HD
ATOM     20  O   UNL     1       5.627   1.497  22.161  0.00  0.00    +0.000 OA
ENDBRANCH  13  20
ENDBRANCH   9  18
ENDBRANCH   1  11
BRANCH   5  21
ATOM     21  C   UNL     1       6.982  -2.620  24.383  0.00  0.00    +0.000 C 
BRANCH  21  22
ATOM     22  C   UNL     1       5.551  -2.598  23.897  0.00  0.00    +0.000 C 
BRANCH  22  23
ATOM     23  C   UNL     1       5.554  -3.049  22.444  0.00  0.00    +0.000 C 
ATOM     24  O   UNL     1       5.907  -2.288  21.562  0.00  0.00    +0.000 OA
ATOM     25  N   UNL     1       5.509  -4.375  22.234  0.00  0.00    +0.000 N 
ATOM     26  H   UNL     1       6.367  -4.762  22.431  0.00  0.00    +0.000 HD
BRANCH  25  27
ATOM     27  N   UNL     1       4.560  -4.947  22.988  0.00  0.00    +0.000 N 
ATOM     28  H   UNL     1       4.367  -4.399  23.752  0.00  0.00    +0.000 HD
ATOM     29  C   UNL     1       4.979  -6.164  23.416  0.00  0.00    +0.000 C 
ATOM     30  O   UNL     1       5.946  -6.690  22.900  0.00  0.00    +0.000 OA
BRANCH  29  31
ATOM     31  C   UNL     1       4.510  -6.548  24.794  0.00  0.00    +0.000 C 
ATOM     32  S   UNL     1       3.072  -5.501  25.213  0.00  0.00    +0.000 S 
ATOM     33  C   UNL     1       3.679  -5.252  26.861  0.00  0.00    +0.000 C 
ATOM     34  C   UNL     1       5.085  -5.335  26.866  0.00  0.00    +0.000 C 
ATOM     35  C   UNL     1       5.558  -6.140  25.827  0.00  0.00    +0.000 C 
ATOM     36  C   UNL     1       6.220  -4.278  27.408  0.00  0.00    +0.000 C 
ATOM     37  C   UNL     1       5.091  -3.160  27.760  0.00  0.00    +0.000 C 
ATOM     38  C   UNL     1       3.868  -3.627  28.508  0.00  0.00    +0.000 C 
ATOM     39  C   UNL     1       2.810  -4.294  27.524  0.00  0.00    +0.000 C 
ENDBRANCH  29  31
ENDBRANCH  25  27
ENDBRANCH  22  23
ENDBRANCH  21  22
ENDBRANCH   5  21
TORSDOF 8
ENDMDL
MODEL 9
REMARK VINA RESULT:      -7.6      2.613      4.144
REMARK  Name = 
REMARK  8 active torsions:
REMARK  status: ('A' for Active; 'I' for Inactive)
REMARK    1  A    between atoms: O_2  and  C_3
REMARK    2  A    between atoms: C_12  and  N_13
REMARK    3  A    between atoms: C_15  and  C_17
REMARK    4  A    between atoms: C_26  and  C_28
REMARK    5  A    between atoms: C_28  and  C_31
REMARK    6  A    between atoms: C_31  and  C_34
REMARK    7  A    between atoms: N_36  and  N_38
REMARK    8  A    between atoms: C_40  and  C_42
REMARK                            x       y       z     vdW  Elec       q    Type
REMARK                         _______ _______ _______ _____ _____    ______ ____
ROOT
ATOM      1  C   UNL     1       6.392  -5.656  23.679  0.00  0.00    +0.000 C 
ATOM      2  C   UNL     1       7.060  -6.038  22.399  0.00  0.00    +0.000 C 
ATOM      3  C   UNL     1       7.311  -4.881  21.472  0.00  0.00    +0.000 C 
ATOM      4  N   UNL     1       7.148  -3.617  22.192  0.00  0.00    +0.000 N 
ATOM      5  C   UNL     1       6.512  -2.591  21.594  0.00  0.00    +0.000 C 
ATOM      6  O   UNL     1       5.411  -2.795  21.091  0.00  0.00    +0.000 OA
ATOM      7  C   UNL     1       7.718  -3.520  23.508  0.00  0.00    +0.000 C 
ATOM      8  C   UNL     1       7.147  -4.589  24.428  0.00  0.00    +0.000 C 
ENDROOT
BRANCH   1  11
ATOM      9  N   UNL     1       4.146  -5.951  22.701  0.00  0.00    +0.000 N 
ATOM     10  H   UNL     1       3.670  -5.307  22.168  0.00  0.00    +0.000 HD
ATOM     11  C   UNL     1       4.961  -5.327  23.549  0.00  0.00    +0.000 C 
ATOM     12  O   UNL     1       4.530  -4.288  24.094  0.00  0.00    +0.000 OA
BRANCH   9  18
ATOM     13  C   UNL     1       3.517  -7.133  24.775  0.00  0.00    +0.000 A 
ATOM     14  C   UNL     1       2.858  -6.338  25.889  0.00  0.00    +0.000 A 
ATOM     15  C   UNL     1       1.765  -5.325  25.772  0.00  0.00    +0.000 A 
ATOM     16  C   UNL     1       1.457  -5.272  24.319  0.00  0.00    +0.000 A 
ATOM     17  C   UNL     1       1.829  -5.841  23.100  0.00  0.00    +0.000 A 
ATOM     18  C   UNL     1       3.161  -6.629  23.445  0.00  0.00    +0.000 A 
BRANCH  13  20
ATOM     19  H   UNL     1       2.404  -8.608  25.137  0.00  0.00    +0.000 HD
ATOM     20  O   UNL     1       3.300  -8.383  25.235  0.00  0.00    +0.000 OA
ENDBRANCH  13  20
ENDBRANCH   9  18
ENDBRANCH   1  11
BRANCH   5  21
ATOM     21  C   UNL     1       7.096  -1.223  21.692  0.00  0.00    +0.000 C 
BRANCH  21  22
ATOM     22  C   UNL     1       8.276  -1.048  20.764  0.00  0.00    +0.000 C 
BRANCH  22  23
ATOM     23  C   UNL     1       7.952   0.106  19.826  0.00  0.00    +0.000 C 
ATOM     24  O   UNL     1       7.480  -0.108  18.725  0.00  0.00    +0.000 OA
ATOM     25  N   UNL     1       7.870   1.323  20.389  0.00  0.00    +0.000 N 
ATOM     26  H   UNL     1       7.045   1.396  20.878  0.00  0.00    +0.000 HD
BRANCH  25  27
ATOM     27  N   UNL     1       8.911   1.547  21.201  0.00  0.00    +0.000 N 
ATOM     28  H   UNL     1       9.137   0.746  21.681  0.00  0.00    +0.000 HD
ATOM     29  C   UNL     1       8.602   2.520  22.093  0.00  0.00    +0.000 C 
ATOM     30  O   UNL     1       7.628   3.224  21.913  0.00  0.00    +0.000 OA
BRANCH  29  31
ATOM     31  C   UNL     1       9.210   2.345  23.460  0.00  0.00    +0.000 C 
ATOM     32  S   UNL     1       9.881   0.648  23.566  0.00  0.00    +0.000 S 
ATOM     33  C   UNL     1       9.242   0.451  25.209  0.00  0.00    +0.000 C 
ATOM     34  C   UNL     1       8.091   1.248  25.368  0.00  0.00    +0.000 C 
ATOM     35  C   UNL     1       8.109   2.357  24.518  0.00  0.00    +0.000 C 
ATOM     36  C   UNL     1       6.572   0.853  25.852  0.00  0.00    +0.000 C 
ATOM     37  C   UNL     1       6.943  -0.731  25.912  0.00  0.00    +0.000 C 
ATOM     38  C   UNL     1       8.231  -1.112  26.596  0.00  0.00    +0.000 C 
ATOM     39  C   UNL     1       9.477  -0.920  25.625  0.00  0.00    +0.000 C 
ENDBRANCH  29  31
ENDBRANCH  25  27
ENDBRANCH  22  23
ENDBRANCH  21  22
ENDBRANCH   5  21
TORSDOF 8
ENDMDL
