MODEL 1
REMARK VINA RESULT:      -8.6      0.000      0.000
REMARK  Name = 
REMARK  4 active torsions:
REMARK  status: ('A' for Active; 'I' for Inactive)
REMARK    1  A    between atoms: C_5  and  C_6
REMARK    2  A    between atoms: C_6  and  C_9
REMARK    3  A    between atoms: C_30  and  C_31
REMARK    4  A    between atoms: C_41  and  C_43
REMARK                            x       y       z     vdW  Elec       q    Type
REMARK                         _______ _______ _______ _____ _____    ______ ____
ROOT
ATOM      1  C   UNL     1       8.175   1.474  25.224  0.00  0.00    +0.000 A 
ATOM      2  C   UNL     1       7.849  -0.000  25.350  0.00  0.00    +0.000 A 
ATOM      3  C   UNL     1       8.721  -1.178  25.029  0.00  0.00    +0.000 A 
ATOM      4  C   UNL     1      10.052  -0.572  24.770  0.00  0.00    +0.000 A 
ATOM      5  C   UNL     1      10.677   0.690  24.633  0.00  0.00    +0.000 A 
ATOM      6  C   UNL     1       9.480   1.682  24.578  0.00  0.00    +0.000 A 
ENDROOT
BRANCH   6   7
ATOM      7  C   UNL     1       9.518   2.358  23.343  0.00  0.00    +0.000 C 
ATOM      8  O   UNL     1       9.987   3.458  23.203  0.00  0.00    +0.000 OA
ATOM      9  N   UNL     1       8.816   1.746  22.372  0.00  0.00    +0.000 N 
ATOM     10  C   UNL     1       7.800   2.561  21.680  0.00  0.00    +0.000 C 
ATOM     11  C   UNL     1       6.765   1.651  21.060  0.00  0.00    +0.000 C 
ATOM     12  N   UNL     1       7.391   0.546  20.370  0.00  0.00    +0.000 N 
ATOM     13  C   UNL     1       6.956   0.198  19.138  0.00  0.00    +0.000 C 
ATOM     14  O   UNL     1       7.367   0.768  18.150  0.00  0.00    +0.000 OA
ATOM     15  C   UNL     1       8.465  -0.207  20.986  0.00  0.00    +0.000 C 
ATOM     16  C   UNL     1       9.502   0.748  21.546  0.00  0.00    +0.000 C 
BRANCH  13  17
ATOM     17  C   UNL     1       5.904  -0.871  19.074  0.00  0.00    +0.000 C 
ATOM     18 CL   UNL     1       5.941  -1.878  20.534  0.00  0.00    +0.000 Cl
ENDBRANCH  13  17
ENDBRANCH   6   7
BRANCH   3  19
ATOM     19  C   UNL     1       8.191  -1.807  23.798  0.00  0.00    +0.000 C 
BRANCH  19  20
ATOM     20  C   UNL     1       7.309  -2.960  24.143  0.00  0.00    +0.000 A 
ATOM     21  C   UNL     1       8.173  -3.976  24.916  0.00  0.00    +0.000 A 
ATOM     22  C   UNL     1       8.601  -5.314  24.442  0.00  0.00    +0.000 A 
ATOM     23  C   UNL     1       7.702  -5.607  23.258  0.00  0.00    +0.000 A 
ATOM     24  C   UNL     1       6.671  -5.063  22.600  0.00  0.00    +0.000 A 
ATOM     25  C   UNL     1       5.594  -5.847  23.135  0.00  0.00    +0.000 A 
ATOM     26  C   UNL     1       4.246  -5.981  23.335  0.00  0.00    +0.000 A 
ATOM     27  C   UNL     1       4.030  -4.474  23.542  0.00  0.00    +0.000 A 
ATOM     28  C   UNL     1       4.935  -3.529  23.665  0.00  0.00    +0.000 A 
ATOM     29  C   UNL     1       6.341  -3.667  23.298  0.00  0.00    +0.000 A 
ENDBRANCH  19  20
ENDBRANCH   3  19
TORSDOF 4
ENDMDL
MODEL 2
REMARK VINA RESULT:      -8.5      2.799      6.154
REMARK  Name = 
REMARK  4 active torsions:
REMARK  status: ('A' for Active; 'I' for Inactive)
REMARK    1  A    between atoms: C_5  and  C_6
REMARK    2  A    between atoms: C_6  and  C_9
REMARK    3  A    between atoms: C_30  and  C_31
REMARK    4  A    between atoms: C_41  and  C_43
REMARK                            x       y       z     vdW  Elec       q    Type
REMARK                         _______ _______ _______ _____ _____    ______ ____
ROOT
ATOM      1  C   UNL     1       5.879  -3.364  24.953  0.00  0.00    +0.000 A 
ATOM      2  C   UNL     1       5.699  -3.082  23.475  0.00  0.00    +0.000 A 
ATOM      3  C   UNL     1       6.400  -3.720  22.313  0.00  0.00    +0.000 A 
ATOM      4  C   UNL     1       7.150  -4.845  22.927  0.00  0.00    +0.000 A 
ATOM      5  C   UNL     1       7.472  -5.391  24.191  0.00  0.00    +0.000 A 
ATOM      6  C   UNL     1       6.990  -4.299  25.189  0.00  0.00    +0.000 A 
ENDROOT
BRANCH   6   7
ATOM      7  C   UNL     1       8.101  -3.849  25.928  0.00  0.00    +0.000 C 
ATOM      8  O   UNL     1       8.445  -4.336  26.973  0.00  0.00    +0.000 OA
ATOM      9  N   UNL     1       8.633  -2.706  25.457  0.00  0.00    +0.000 N 
ATOM     10  C   UNL     1       8.773  -1.599  26.422  0.00  0.00    +0.000 C 
ATOM     11  C   UNL     1       8.839  -0.287  25.673  0.00  0.00    +0.000 C 
ATOM     12  N   UNL     1       9.741  -0.377  24.546  0.00  0.00    +0.000 N 
ATOM     13  C   UNL     1      10.628   0.618  24.323  0.00  0.00    +0.000 C 
ATOM     14  O   UNL     1      11.694   0.641  24.899  0.00  0.00    +0.000 OA
ATOM     15  C   UNL     1       9.695  -1.508  23.641  0.00  0.00    +0.000 C 
ATOM     16  C   UNL     1       9.682  -2.799  24.438  0.00  0.00    +0.000 C 
BRANCH  13  17
ATOM     17  C   UNL     1      10.194   1.708  23.386  0.00  0.00    +0.000 C 
ATOM     18 CL   UNL     1       9.473   3.058  24.283  0.00  0.00    +0.000 Cl
ENDBRANCH  13  17
ENDBRANCH   6   7
BRANCH   3  19
ATOM     19  C   UNL     1       7.336  -2.721  21.749  0.00  0.00    +0.000 C 
BRANCH  19  20
ATOM     20  C   UNL     1       6.662  -1.397  21.614  0.00  0.00    +0.000 A 
ATOM     21  C   UNL     1       5.947  -1.390  20.248  0.00  0.00    +0.000 A 
ATOM     22  C   UNL     1       6.307  -0.571  19.066  0.00  0.00    +0.000 A 
ATOM     23  C   UNL     1       7.231   0.500  19.609  0.00  0.00    +0.000 A 
ATOM     24  C   UNL     1       7.735   0.918  20.776  0.00  0.00    +0.000 A 
ATOM     25  C   UNL     1       6.888   2.052  21.021  0.00  0.00    +0.000 A 
ATOM     26  C   UNL     1       6.402   2.962  21.920  0.00  0.00    +0.000 A 
ATOM     27  C   UNL     1       6.367   1.948  23.073  0.00  0.00    +0.000 A 
ATOM     28  C   UNL     1       6.563   0.649  23.025  0.00  0.00    +0.000 A 
ATOM     29  C   UNL     1       7.185  -0.059  21.911  0.00  0.00    +0.000 A 
ENDBRANCH  19  20
ENDBRANCH   3  19
TORSDOF 4
ENDMDL
MODEL 3
REMARK VINA RESULT:      -8.3      1.554      2.067
REMARK  Name = 
REMARK  4 active torsions:
REMARK  status: ('A' for Active; 'I' for Inactive)
REMARK    1  A    between atoms: C_5  and  C_6
REMARK    2  A    between atoms: C_6  and  C_9
REMARK    3  A    between atoms: C_30  and  C_31
REMARK    4  A    between atoms: C_41  and  C_43
REMARK                            x       y       z     vdW  Elec       q    Type
REMARK                         _______ _______ _______ _____ _____    ______ ____
ROOT
ATOM      1  C   UNL     1       7.087   0.139  24.862  0.00  0.00    +0.000 A 
ATOM      2  C   UNL     1       6.706  -1.321  25.000  0.00  0.00    +0.000 A 
ATOM      3  C   UNL     1       7.596  -2.493  25.289  0.00  0.00    +0.000 A 
ATOM      4  C   UNL     1       8.900  -1.870  25.630  0.00  0.00    +0.000 A 
ATOM      5  C   UNL     1       9.544  -0.611  25.654  0.00  0.00    +0.000 A 
ATOM      6  C   UNL     1       8.546   0.319  24.905  0.00  0.00    +0.000 A 
ENDROOT
BRANCH   6   7
ATOM      7  C   UNL     1       9.192   0.841  23.768  0.00  0.00    +0.000 C 
ATOM      8  O   UNL     1      10.207   1.486  23.818  0.00  0.00    +0.000 OA
ATOM      9  N   UNL     1       8.475   0.716  22.637  0.00  0.00    +0.000 N 
ATOM     10  C   UNL     1       8.237   1.953  21.868  0.00  0.00    +0.000 C 
ATOM     11  C   UNL     1       7.016   1.774  20.995  0.00  0.00    +0.000 C 
ATOM     12  N   UNL     1       7.048   0.499  20.313  0.00  0.00    +0.000 N 
ATOM     13  C   UNL     1       6.743   0.439  18.997  0.00  0.00    +0.000 C 
ATOM     14  O   UNL     1       7.584   0.667  18.154  0.00  0.00    +0.000 OA
ATOM     15  C   UNL     1       7.380  -0.719  21.023  0.00  0.00    +0.000 C 
ATOM     16  C   UNL     1       8.639  -0.505  21.843  0.00  0.00    +0.000 C 
BRANCH  13  17
ATOM     17  C   UNL     1       5.312   0.145  18.651  0.00  0.00    +0.000 C 
ATOM     18 CL   UNL     1       4.279   1.542  19.009  0.00  0.00    +0.000 Cl
ENDBRANCH  13  17
ENDBRANCH   6   7
BRANCH   3  19
ATOM     19  C   UNL     1       7.711  -3.287  24.046  0.00  0.00    +0.000 C 
BRANCH  19  20
ATOM     20  C   UNL     1       7.089  -4.631  24.229  0.00  0.00    +0.000 A 
ATOM     21  C   UNL     1       7.434  -5.465  22.978  0.00  0.00    +0.000 A 
ATOM     22  C   UNL     1       6.490  -5.916  21.929  0.00  0.00    +0.000 A 
ATOM     23  C   UNL     1       5.117  -5.734  22.543  0.00  0.00    +0.000 A 
ATOM     24  C   UNL     1       4.558  -5.358  23.700  0.00  0.00    +0.000 A 
ATOM     25  C   UNL     1       4.218  -6.644  24.240  0.00  0.00    +0.000 A 
ATOM     26  C   UNL     1       3.873  -7.385  25.338  0.00  0.00    +0.000 A 
ATOM     27  C   UNL     1       4.765  -6.571  26.288  0.00  0.00    +0.000 A 
ATOM     28  C   UNL     1       5.652  -5.650  25.985  0.00  0.00    +0.000 A 
ATOM     29  C   UNL     1       5.740  -4.968  24.698  0.00  0.00    +0.000 A 
ENDBRANCH  19  20
ENDBRANCH   3  19
TORSDOF 4
ENDMDL
MODEL 4
REMARK VINA RESULT:      -8.2      4.130      7.450
REMARK  Name = 
REMARK  4 active torsions:
REMARK  status: ('A' for Active; 'I' for Inactive)
REMARK    1  A    between atoms: C_5  and  C_6
REMARK    2  A    between atoms: C_6  and  C_9
REMARK    3  A    between atoms: C_30  and  C_31
REMARK    4  A    between atoms: C_41  and  C_43
REMARK                            x       y       z     vdW  Elec       q    Type
REMARK                         _______ _______ _______ _____ _____    ______ ____
ROOT
ATOM      1  C   UNL     1       7.916  -5.357  23.964  0.00  0.00    +0.000 A 
ATOM      2  C   UNL     1       7.987  -4.071  23.166  0.00  0.00    +0.000 A 
ATOM      3  C   UNL     1       8.470  -2.723  23.612  0.00  0.00    +0.000 A 
ATOM      4  C   UNL     1       9.070  -2.986  24.945  0.00  0.00    +0.000 A 
ATOM      5  C   UNL     1       9.215  -4.019  25.901  0.00  0.00    +0.000 A 
ATOM      6  C   UNL     1       8.262  -5.132  25.376  0.00  0.00    +0.000 A 
ENDROOT
BRANCH   6   7
ATOM      7  C   UNL     1       7.280  -5.377  26.355  0.00  0.00    +0.000 C 
ATOM      8  O   UNL     1       7.534  -5.745  27.472  0.00  0.00    +0.000 OA
ATOM      9  N   UNL     1       6.023  -5.342  25.877  0.00  0.00    +0.000 N 
ATOM     10  C   UNL     1       5.187  -6.529  26.138  0.00  0.00    +0.000 C 
ATOM     11  C   UNL     1       4.073  -6.591  25.118  0.00  0.00    +0.000 C 
ATOM     12  N   UNL     1       3.451  -5.297  24.949  0.00  0.00    +0.000 N 
ATOM     13  C   UNL     1       2.102  -5.206  24.914  0.00  0.00    +0.000 C 
ATOM     14  O   UNL     1       1.458  -5.142  25.939  0.00  0.00    +0.000 OA
ATOM     15  C   UNL     1       4.250  -4.099  24.794  0.00  0.00    +0.000 C 
ATOM     16  C   UNL     1       5.319  -4.057  25.870  0.00  0.00    +0.000 C 
BRANCH  13  17
ATOM     17  C   UNL     1       1.459  -5.255  23.559  0.00  0.00    +0.000 C 
ATOM     18 CL   UNL     1       1.456  -6.912  22.925  0.00  0.00    +0.000 Cl
ENDBRANCH  13  17
ENDBRANCH   6   7
BRANCH   3  19
ATOM     19  C   UNL     1       7.287  -1.842  23.742  0.00  0.00    +0.000 C 
BRANCH  19  20
ATOM     20  C   UNL     1       7.637  -0.444  23.359  0.00  0.00    +0.000 A 
ATOM     21  C   UNL     1       7.406  -0.319  21.840  0.00  0.00    +0.000 A 
ATOM     22  C   UNL     1       8.448  -0.148  20.799  0.00  0.00    +0.000 A 
ATOM     23  C   UNL     1       9.689   0.266  21.562  0.00  0.00    +0.000 A 
ATOM     24  C   UNL     1      10.071   0.552  22.813  0.00  0.00    +0.000 A 
ATOM     25  C   UNL     1      10.089   1.987  22.745  0.00  0.00    +0.000 A 
ATOM     26  C   UNL     1      10.093   3.179  23.417  0.00  0.00    +0.000 A 
ATOM     27  C   UNL     1       9.180   2.659  24.538  0.00  0.00    +0.000 A 
ATOM     28  C   UNL     1       8.529   1.520  24.598  0.00  0.00    +0.000 A 
ATOM     29  C   UNL     1       8.799   0.359  23.756  0.00  0.00    +0.000 A 
ENDBRANCH  19  20
ENDBRANCH   3  19
TORSDOF 4
ENDMDL
MODEL 5
REMARK VINA RESULT:      -8.0      2.738      4.207
REMARK  Name = 
REMARK  4 active torsions:
REMARK  status: ('A' for Active; 'I' for Inactive)
REMARK    1  A    between atoms: C_5  and  C_6
REMARK    2  A    between atoms: C_6  and  C_9
REMARK    3  A    between atoms: C_30  and  C_31
REMARK    4  A    between atoms: C_41  and  C_43
REMARK                            x       y       z     vdW  Elec       q    Type
REMARK                         _______ _______ _______ _____ _____    ______ ____
ROOT
ATOM      1  C   UNL     1      10.027  -0.703  24.307  0.00  0.00    +0.000 A 
ATOM      2  C   UNL     1       9.623  -1.998  23.632  0.00  0.00    +0.000 A 
ATOM      3  C   UNL     1       9.135  -2.204  22.229  0.00  0.00    +0.000 A 
ATOM      4  C   UNL     1       9.349  -0.884  21.583  0.00  0.00    +0.000 A 
ATOM      5  C   UNL     1       9.737   0.441  21.892  0.00  0.00    +0.000 A 
ATOM      6  C   UNL     1       9.752   0.459  23.448  0.00  0.00    +0.000 A 
ENDROOT
BRANCH   6   7
ATOM      7  C   UNL     1       8.822   1.417  23.892  0.00  0.00    +0.000 C 
ATOM      8  O   UNL     1       9.001   2.605  23.810  0.00  0.00    +0.000 OA
ATOM      9  N   UNL     1       7.797   0.891  24.586  0.00  0.00    +0.000 N 
ATOM     10  C   UNL     1       7.551   1.457  25.927  0.00  0.00    +0.000 C 
ATOM     11  C   UNL     1       6.795   0.451  26.764  0.00  0.00    +0.000 C 
ATOM     12  N   UNL     1       5.701  -0.130  26.017  0.00  0.00    +0.000 N 
ATOM     13  C   UNL     1       4.488  -0.255  26.601  0.00  0.00    +0.000 C 
ATOM     14  O   UNL     1       3.706   0.671  26.612  0.00  0.00    +0.000 OA
ATOM     15  C   UNL     1       5.891  -0.599  24.660  0.00  0.00    +0.000 C 
ATOM     16  C   UNL     1       6.606   0.464  23.847  0.00  0.00    +0.000 C 
BRANCH  13  17
ATOM     17  C   UNL     1       4.201  -1.562  27.281  0.00  0.00    +0.000 C 
ATOM     18 CL   UNL     1       3.333  -2.660  26.190  0.00  0.00    +0.000 Cl
ENDBRANCH  13  17
ENDBRANCH   6   7
BRANCH   3  19
ATOM     19  C   UNL     1       7.690  -2.519  22.297  0.00  0.00    +0.000 C 
BRANCH  19  20
ATOM     20  C   UNL     1       7.466  -3.757  23.099  0.00  0.00    +0.000 A 
ATOM     21  C   UNL     1       7.506  -4.946  22.118  0.00  0.00    +0.000 A 
ATOM     22  C   UNL     1       6.364  -5.804  21.722  0.00  0.00    +0.000 A 
ATOM     23  C   UNL     1       5.295  -5.522  22.759  0.00  0.00    +0.000 A 
ATOM     24  C   UNL     1       5.122  -4.810  23.879  0.00  0.00    +0.000 A 
ATOM     25  C   UNL     1       5.270  -5.849  24.859  0.00  0.00    +0.000 A 
ATOM     26  C   UNL     1       5.501  -6.185  26.166  0.00  0.00    +0.000 A 
ATOM     27  C   UNL     1       6.485  -5.026  26.390  0.00  0.00    +0.000 A 
ATOM     28  C   UNL     1       6.995  -4.205  25.500  0.00  0.00    +0.000 A 
ATOM     29  C   UNL     1       6.475  -4.010  24.151  0.00  0.00    +0.000 A 
ENDBRANCH  19  20
ENDBRANCH   3  19
TORSDOF 4
ENDMDL
MODEL 6
REMARK VINA RESULT:      -7.9      3.550      6.750
REMARK  Name = 
REMARK  4 active torsions:
REMARK  status: ('A' for Active; 'I' for Inactive)
REMARK    1  A    between atoms: C_5  and  C_6
REMARK    2  A    between atoms: C_6  and  C_9
REMARK    3  A    between atoms: C_30  and  C_31
REMARK    4  A    between atoms: C_41  and  C_43
REMARK                            x       y       z     vdW  Elec       q    Type
REMARK                         _______ _______ _______ _____ _____    ______ ____
ROOT
ATOM      1  C   UNL     1       9.200  -1.245  26.059  0.00  0.00    +0.000 A 
ATOM      2  C   UNL     1       9.505  -0.050  25.178  0.00  0.00    +0.000 A 
ATOM      3  C   UNL     1       8.715   0.478  24.018  0.00  0.00    +0.000 A 
ATOM      4  C   UNL     1       7.452  -0.303  24.066  0.00  0.00    +0.000 A 
ATOM      5  C   UNL     1       6.856  -1.388  24.750  0.00  0.00    +0.000 A 
ATOM      6  C   UNL     1       8.037  -1.996  25.560  0.00  0.00    +0.000 A 
ENDROOT
BRANCH   6   7
ATOM      7  C   UNL     1       8.227  -3.327  25.142  0.00  0.00    +0.000 C 
ATOM      8  O   UNL     1       9.290  -3.768  24.789  0.00  0.00    +0.000 OA
ATOM      9  N   UNL     1       7.079  -4.013  24.994  0.00  0.00    +0.000 N 
ATOM     10  C   UNL     1       6.863  -4.660  23.685  0.00  0.00    +0.000 C 
ATOM     11  C   UNL     1       5.383  -4.888  23.478  0.00  0.00    +0.000 C 
ATOM     12  N   UNL     1       4.772  -5.445  24.664  0.00  0.00    +0.000 N 
ATOM     13  C   UNL     1       3.914  -6.483  24.546  0.00  0.00    +0.000 C 
ATOM     14  O   UNL     1       4.322  -7.623  24.483  0.00  0.00    +0.000 OA
ATOM     15  C   UNL     1       5.048  -4.894  25.975  0.00  0.00    +0.000 C 
ATOM     16  C   UNL     1       6.546  -4.732  26.154  0.00  0.00    +0.000 C 
BRANCH  13  17
ATOM     17  C   UNL     1       2.456  -6.141  24.432  0.00  0.00    +0.000 C 
ATOM     18 CL   UNL     1       1.872  -6.421  22.781  0.00  0.00    +0.000 Cl
ENDBRANCH  13  17
ENDBRANCH   6   7
BRANCH   3  19
ATOM     19  C   UNL     1       9.469   0.167  22.783  0.00  0.00    +0.000 C 
BRANCH  19  20
ATOM     20  C   UNL     1       8.828   0.821  21.605  0.00  0.00    +0.000 A 
ATOM     21  C   UNL     1       8.792   2.336  21.892  0.00  0.00    +0.000 A 
ATOM     22  C   UNL     1       7.586   3.157  22.153  0.00  0.00    +0.000 A 
ATOM     23  C   UNL     1       6.428   2.296  21.693  0.00  0.00    +0.000 A 
ATOM     24  C   UNL     1       6.205   1.112  21.111  0.00  0.00    +0.000 A 
ATOM     25  C   UNL     1       5.930   1.543  19.769  0.00  0.00    +0.000 A 
ATOM     26  C   UNL     1       5.826   1.215  18.444  0.00  0.00    +0.000 A 
ATOM     27  C   UNL     1       6.979   0.201  18.506  0.00  0.00    +0.000 A 
ATOM     28  C   UNL     1       7.818  -0.020  19.493  0.00  0.00    +0.000 A 
ATOM     29  C   UNL     1       7.623   0.422  20.870  0.00  0.00    +0.000 A 
ENDBRANCH  19  20
ENDBRANCH   3  19
TORSDOF 4
ENDMDL
MODEL 7
REMARK VINA RESULT:      -7.5      4.615      7.984
REMARK  Name = 
REMARK  4 active torsions:
REMARK  status: ('A' for Active; 'I' for Inactive)
REMARK    1  A    between atoms: C_5  and  C_6
REMARK    2  A    between atoms: C_6  and  C_9
REMARK    3  A    between atoms: C_30  and  C_31
REMARK    4  A    between atoms: C_41  and  C_43
REMARK                            x       y       z     vdW  Elec       q    Type
REMARK                         _______ _______ _______ _____ _____    ______ ____
ROOT
ATOM      1  C   UNL     1       4.544  -4.325  22.940  0.00  0.00    +0.000 A 
ATOM      2  C   UNL     1       5.753  -3.439  22.719  0.00  0.00    +0.000 A 
ATOM      3  C   UNL     1       7.167  -3.847  22.429  0.00  0.00    +0.000 A 
ATOM      4  C   UNL     1       7.070  -5.310  22.188  0.00  0.00    +0.000 A 
ATOM      5  C   UNL     1       6.142  -6.376  22.255  0.00  0.00    +0.000 A 
ATOM      6  C   UNL     1       4.922  -5.746  22.987  0.00  0.00    +0.000 A 
ENDROOT
BRANCH   6   7
ATOM      7  C   UNL     1       4.701  -6.461  24.180  0.00  0.00    +0.000 C 
ATOM      8  O   UNL     1       4.468  -7.641  24.214  0.00  0.00    +0.000 OA
ATOM      9  N   UNL     1       4.588  -5.674  25.266  0.00  0.00    +0.000 N 
ATOM     10  C   UNL     1       3.371  -5.849  26.081  0.00  0.00    +0.000 C 
ATOM     11  C   UNL     1       3.118  -4.591  26.881  0.00  0.00    +0.000 C 
ATOM     12  N   UNL     1       4.336  -4.115  27.499  0.00  0.00    +0.000 N 
ATOM     13  C   UNL     1       4.316  -3.724  28.793  0.00  0.00    +0.000 C 
ATOM     14  O   UNL     1       4.432  -4.533  29.689  0.00  0.00    +0.000 OA
ATOM     15  C   UNL     1       5.572  -4.032  26.748  0.00  0.00    +0.000 C 
ATOM     16  C   UNL     1       5.806  -5.334  26.006  0.00  0.00    +0.000 C 
BRANCH  13  17
ATOM     17  C   UNL     1       4.080  -2.264  29.051  0.00  0.00    +0.000 C 
ATOM     18 CL   UNL     1       2.364  -1.953  29.375  0.00  0.00    +0.000 Cl
ENDBRANCH  13  17
ENDBRANCH   6   7
BRANCH   3  19
ATOM     19  C   UNL     1       7.971  -3.574  23.641  0.00  0.00    +0.000 C 
BRANCH  19  20
ATOM     20  C   UNL     1       8.421  -2.152  23.655  0.00  0.00    +0.000 A 
ATOM     21  C   UNL     1       8.046  -1.571  25.034  0.00  0.00    +0.000 A 
ATOM     22  C   UNL     1       7.014  -0.544  25.308  0.00  0.00    +0.000 A 
ATOM     23  C   UNL     1       6.715   0.072  23.957  0.00  0.00    +0.000 A 
ATOM     24  C   UNL     1       7.127  -0.007  22.686  0.00  0.00    +0.000 A 
ATOM     25  C   UNL     1       7.953   1.166  22.620  0.00  0.00    +0.000 A 
ATOM     26  C   UNL     1       8.940   1.853  21.965  0.00  0.00    +0.000 A 
ATOM     27  C   UNL     1       9.705   0.577  21.580  0.00  0.00    +0.000 A 
ATOM     28  C   UNL     1       9.490  -0.656  21.980  0.00  0.00    +0.000 A 
ATOM     29  C   UNL     1       8.265  -1.123  22.621  0.00  0.00    +0.000 A 
ENDBRANCH  19  20
ENDBRANCH   3  19
TORSDOF 4
ENDMDL
MODEL 8
REMARK VINA RESULT:      -7.5      4.137      7.324
REMARK  Name = 
REMARK  4 active torsions:
REMARK  status: ('A' for Active; 'I' for Inactive)
REMARK    1  A    between atoms: C_5  and  C_6
REMARK    2  A    between atoms: C_6  and  C_9
REMARK    3  A    between atoms: C_30  and  C_31
REMARK    4  A    between atoms: C_41  and  C_43
REMARK                            x       y       z     vdW  Elec       q    Type
REMARK                         _______ _______ _______ _____ _____    ______ ____
ROOT
ATOM      1  C   UNL     1       7.855  -5.124  23.644  0.00  0.00    +0.000 A 
ATOM      2  C   UNL     1       7.308  -4.109  22.661  0.00  0.00    +0.000 A 
ATOM      3  C   UNL     1       7.703  -2.672  22.488  0.00  0.00    +0.000 A 
ATOM      4  C   UNL     1       8.906  -2.530  23.348  0.00  0.00    +0.000 A 
ATOM      5  C   UNL     1       9.670  -3.250  24.296  0.00  0.00    +0.000 A 
ATOM      6  C   UNL     1       8.793  -4.501  24.592  0.00  0.00    +0.000 A 
ENDROOT
BRANCH   6   7
ATOM      7  C   UNL     1       8.463  -4.501  25.960  0.00  0.00    +0.000 C 
ATOM      8  O   UNL     1       9.273  -4.644  26.839  0.00  0.00    +0.000 OA
ATOM      9  N   UNL     1       7.138  -4.513  26.194  0.00  0.00    +0.000 N 
ATOM     10  C   UNL     1       6.635  -5.588  27.072  0.00  0.00    +0.000 C 
ATOM     11  C   UNL     1       5.165  -5.811  26.798  0.00  0.00    +0.000 C 
ATOM     12  N   UNL     1       4.454  -4.554  26.721  0.00  0.00    +0.000 N 
ATOM     13  C   UNL     1       3.272  -4.418  27.363  0.00  0.00    +0.000 C 
ATOM     14  O   UNL     1       3.234  -4.120  28.537  0.00  0.00    +0.000 OA
ATOM     15  C   UNL     1       4.979  -3.446  25.949  0.00  0.00    +0.000 C 
ATOM     16  C   UNL     1       6.440  -3.229  26.297  0.00  0.00    +0.000 C 
BRANCH  13  17
ATOM     17  C   UNL     1       2.036  -4.716  26.565  0.00  0.00    +0.000 C 
ATOM     18 CL   UNL     1       1.455  -3.258  25.737  0.00  0.00    +0.000 Cl
ENDBRANCH  13  17
ENDBRANCH   6   7
BRANCH   3  19
ATOM     19  C   UNL     1       6.596  -1.836  23.004  0.00  0.00    +0.000 C 
BRANCH  19  20
ATOM     20  C   UNL     1       6.741  -0.431  22.528  0.00  0.00    +0.000 A 
ATOM     21  C   UNL     1       7.144  -0.495  21.041  0.00  0.00    +0.000 A 
ATOM     22  C   UNL     1       8.454  -0.114  20.463  0.00  0.00    +0.000 A 
ATOM     23  C   UNL     1       9.131   0.698  21.548  0.00  0.00    +0.000 A 
ATOM     24  C   UNL     1       8.878   1.177  22.772  0.00  0.00    +0.000 A 
ATOM     25  C   UNL     1       8.592   2.547  22.447  0.00  0.00    +0.000 A 
ATOM     26  C   UNL     1       8.041   3.738  22.833  0.00  0.00    +0.000 A 
ATOM     27  C   UNL     1       6.890   3.067  23.599  0.00  0.00    +0.000 A 
ATOM     28  C   UNL     1       6.555   1.797  23.619  0.00  0.00    +0.000 A 
ATOM     29  C   UNL     1       7.411   0.701  23.178  0.00  0.00    +0.000 A 
ENDBRANCH  19  20
ENDBRANCH   3  19
TORSDOF 4
ENDMDL
MODEL 9
REMARK VINA RESULT:      -7.4      3.326      6.007
REMARK  Name = 
REMARK  4 active torsions:
REMARK  status: ('A' for Active; 'I' for Inactive)
REMARK    1  A    between atoms: C_5  and  C_6
REMARK    2  A    between atoms: C_6  and  C_9
REMARK    3  A    between atoms: C_30  and  C_31
REMARK    4  A    between atoms: C_41  and  C_43
REMARK                            x       y       z     vdW  Elec       q    Type
REMARK                         _______ _______ _______ _____ _____    ______ ____
ROOT
ATOM      1  C   UNL     1       8.188  -1.468  26.829  0.00  0.00    +0.000 A 
ATOM      2  C   UNL     1       8.972  -1.222  25.556  0.00  0.00    +0.000 A 
ATOM      3  C   UNL     1       8.503  -0.588  24.280  0.00  0.00    +0.000 A 
ATOM      4  C   UNL     1       7.159  -0.056  24.624  0.00  0.00    +0.000 A 
ATOM      5  C   UNL     1       6.210  -0.061  25.672  0.00  0.00    +0.000 A 
ATOM      6  C   UNL     1       6.767  -1.131  26.657  0.00  0.00    +0.000 A 
ENDROOT
BRANCH   6   7
ATOM      7  C   UNL     1       5.812  -2.158  26.785  0.00  0.00    +0.000 C 
ATOM      8  O   UNL     1       5.232  -2.401  27.811  0.00  0.00    +0.000 OA
ATOM      9  N   UNL     1       5.742  -2.964  25.710  0.00  0.00    +0.000 N 
ATOM     10  C   UNL     1       5.900  -4.410  25.961  0.00  0.00    +0.000 C 
ATOM     11  C   UNL     1       6.348  -5.093  24.690  0.00  0.00    +0.000 C 
ATOM     12  N   UNL     1       5.574  -4.641  23.555  0.00  0.00    +0.000 N 
ATOM     13  C   UNL     1       5.099  -5.545  22.669  0.00  0.00    +0.000 C 
ATOM     14  O   UNL     1       4.057  -6.128  22.876  0.00  0.00    +0.000 OA
ATOM     15  C   UNL     1       5.316  -3.231  23.342  0.00  0.00    +0.000 C 
ATOM     16  C   UNL     1       4.819  -2.603  24.631  0.00  0.00    +0.000 C 
BRANCH  13  17
ATOM     17  C   UNL     1       5.959  -5.827  21.471  0.00  0.00    +0.000 C 
ATOM     18 CL   UNL     1       7.636  -6.137  21.960  0.00  0.00    +0.000 Cl
ENDBRANCH  13  17
ENDBRANCH   6   7
BRANCH   3  19
ATOM     19  C   UNL     1       8.392  -1.656  23.262  0.00  0.00    +0.000 C 
BRANCH  19  20
ATOM     20  C   UNL     1       8.244  -1.063  21.902  0.00  0.00    +0.000 A 
ATOM     21  C   UNL     1       9.463  -0.146  21.671  0.00  0.00    +0.000 A 
ATOM     22  C   UNL     1       9.451   1.333  21.581  0.00  0.00    +0.000 A 
ATOM     23  C   UNL     1       7.995   1.694  21.367  0.00  0.00    +0.000 A 
ATOM     24  C   UNL     1       6.810   1.096  21.196  0.00  0.00    +0.000 A 
ATOM     25  C   UNL     1       6.666   1.234  19.773  0.00  0.00    +0.000 A 
ATOM     26  C   UNL     1       6.038   0.828  18.627  0.00  0.00    +0.000 A 
ATOM     27  C   UNL     1       5.947  -0.637  19.083  0.00  0.00    +0.000 A 
ATOM     28  C   UNL     1       6.502  -1.201  20.132  0.00  0.00    +0.000 A 
ATOM     29  C   UNL     1       7.054  -0.479  21.273  0.00  0.00    +0.000 A 
ENDBRANCH  19  20
ENDBRANCH   3  19
TORSDOF 4
ENDMDL
