MODEL 1
REMARK VINA RESULT:      -8.6      0.000      0.000
REMARK  Name = 
REMARK  6 active torsions:
REMARK  status: ('A' for Active; 'I' for Inactive)
REMARK    1  A    between atoms: N_5  and  S_7
REMARK    2  A    between atoms: S_7  and  C_10
REMARK    3  A    between atoms: C_13  and  C_14
REMARK    4  A    between atoms: C_22  and  S_23
REMARK    5  A    between atoms: S_23  and  N_26
REMARK    6  A    between atoms: C_34  and  C_36
REMARK                            x       y       z     vdW  Elec       q    Type
REMARK                         _______ _______ _______ _____ _____    ______ ____
ROOT
ATOM      1  C   UNL     1       7.090  -3.374  23.929  0.00  0.00    +0.000 A 
ATOM      2  C   UNL     1       6.649  -3.674  25.377  0.00  0.00    +0.000 A 
ATOM      3  C   UNL     1       7.479  -4.130  26.476  0.00  0.00    +0.000 A 
ATOM      4  C   UNL     1       7.115  -5.491  26.905  0.00  0.00    +0.000 C 
ATOM      5  C   UNL     1       8.882  -4.221  25.919  0.00  0.00    +0.000 A 
ATOM      6  C   UNL     1       9.564  -4.114  24.707  0.00  0.00    +0.000 A 
ATOM      7  C   UNL     1       8.491  -3.551  23.706  0.00  0.00    +0.000 A 
ENDROOT
BRANCH   1   8
ATOM      8  S   UNL     1       6.040  -4.516  23.092  0.00  0.00    +0.000 S 
ATOM      9  O   UNL     1       5.267  -3.906  22.072  0.00  0.00    +0.000 OA
ATOM     10  O   UNL     1       6.841  -5.646  22.664  0.00  0.00    +0.000 OA
BRANCH   8  14
ATOM     11  C   UNL     1       2.169  -6.354  23.087  0.00  0.00    +0.000 A 
ATOM     12  N   UNL     1       3.594  -5.926  22.830  0.00  0.00    +0.000 NA
ATOM     13  C   UNL     1       4.347  -6.201  23.793  0.00  0.00    +0.000 A 
ATOM     14  N   UNL     1       4.968  -5.089  24.227  0.00  0.00    +0.000 N 
ATOM     15  H   UNL     1       4.317  -4.396  24.388  0.00  0.00    +0.000 HD
ATOM     16  C   UNL     1       4.176  -7.038  24.926  0.00  0.00    +0.000 A 
ATOM     17  C   UNL     1       2.930  -7.423  25.508  0.00  0.00    +0.000 A 
ATOM     18  C   UNL     1       2.005  -6.770  24.440  0.00  0.00    +0.000 A 
ENDBRANCH   8  14
ENDBRANCH   1   8
BRANCH   7  19
ATOM     19  S   UNL     1       9.276  -1.926  23.364  0.00  0.00    +0.000 S 
ATOM     20  O   UNL     1       9.239  -1.230  24.627  0.00  0.00    +0.000 OA
ATOM     21  O   UNL     1      10.626  -2.263  22.940  0.00  0.00    +0.000 OA
BRANCH  19  22
ATOM     22  N   UNL     1       8.479  -1.181  22.235  0.00  0.00    +0.000 NA
ATOM     23  C   UNL     1       9.155  -0.357  21.364  0.00  0.00    +0.000 C 
ATOM     24  C   UNL     1       8.333   0.859  20.901  0.00  0.00    +0.000 C 
ATOM     25  N   UNL     1       7.125   0.311  20.270  0.00  0.00    +0.000 N 
ATOM     26  C   UNL     1       7.144   0.209  18.900  0.00  0.00    +0.000 C 
ATOM     27  O   UNL     1       8.062  -0.368  18.354  0.00  0.00    +0.000 OA
ATOM     28  C   UNL     1       6.430  -0.741  20.987  0.00  0.00    +0.000 C 
ATOM     29  C   UNL     1       7.108  -1.023  22.331  0.00  0.00    +0.000 C 
BRANCH  26  30
ATOM     30  C   UNL     1       5.854   0.496  18.193  0.00  0.00    +0.000 C 
ATOM     31 CL   UNL     1       4.862   1.636  19.122  0.00  0.00    +0.000 Cl
ENDBRANCH  26  30
ENDBRANCH  19  22
ENDBRANCH   7  19
TORSDOF 5
ENDMDL
MODEL 2
REMARK VINA RESULT:      -8.5      3.619      6.413
REMARK  Name = 
REMARK  6 active torsions:
REMARK  status: ('A' for Active; 'I' for Inactive)
REMARK    1  A    between atoms: N_5  and  S_7
REMARK    2  A    between atoms: S_7  and  C_10
REMARK    3  A    between atoms: C_13  and  C_14
REMARK    4  A    between atoms: C_22  and  S_23
REMARK    5  A    between atoms: S_23  and  N_26
REMARK    6  A    between atoms: C_34  and  C_36
REMARK                            x       y       z     vdW  Elec       q    Type
REMARK                         _______ _______ _______ _____ _____    ______ ____
ROOT
ATOM      1  C   UNL     1       8.918  -1.103  24.060  0.00  0.00    +0.000 A 
ATOM      2  C   UNL     1      10.095  -0.202  23.630  0.00  0.00    +0.000 A 
ATOM      3  C   UNL     1      10.220   1.232  23.808  0.00  0.00    +0.000 A 
ATOM      4  C   UNL     1      10.215   1.944  22.519  0.00  0.00    +0.000 C 
ATOM      5  C   UNL     1       8.967   1.664  24.538  0.00  0.00    +0.000 A 
ATOM      6  C   UNL     1       7.744   1.148  24.966  0.00  0.00    +0.000 A 
ATOM      7  C   UNL     1       7.872  -0.401  24.734  0.00  0.00    +0.000 A 
ENDROOT
BRANCH   1   8
ATOM      8  S   UNL     1       8.493  -1.755  22.477  0.00  0.00    +0.000 S 
ATOM      9  O   UNL     1       7.407  -1.070  21.875  0.00  0.00    +0.000 OA
ATOM     10  O   UNL     1       9.697  -1.827  21.674  0.00  0.00    +0.000 OA
BRANCH   8  14
ATOM     11  C   UNL     1       4.765  -3.779  23.086  0.00  0.00    +0.000 A 
ATOM     12  N   UNL     1       5.903  -2.900  22.626  0.00  0.00    +0.000 NA
ATOM     13  C   UNL     1       6.827  -3.566  22.102  0.00  0.00    +0.000 A 
ATOM     14  N   UNL     1       7.990  -3.319  22.732  0.00  0.00    +0.000 N 
ATOM     15  H   UNL     1       7.875  -3.438  23.682  0.00  0.00    +0.000 HD
ATOM     16  C   UNL     1       6.891  -4.906  21.641  0.00  0.00    +0.000 A 
ATOM     17  C   UNL     1       6.066  -5.987  22.079  0.00  0.00    +0.000 A 
ATOM     18  C   UNL     1       5.124  -5.154  22.997  0.00  0.00    +0.000 A 
ENDBRANCH   8  14
ENDBRANCH   1   8
BRANCH   7  19
ATOM     19  S   UNL     1       7.795  -0.937  26.490  0.00  0.00    +0.000 S 
ATOM     20  O   UNL     1       9.166  -0.920  26.937  0.00  0.00    +0.000 OA
ATOM     21  O   UNL     1       6.973   0.075  27.137  0.00  0.00    +0.000 OA
BRANCH  19  22
ATOM     22  N   UNL     1       7.143  -2.363  26.579  0.00  0.00    +0.000 NA
ATOM     23  C   UNL     1       7.950  -3.476  26.543  0.00  0.00    +0.000 C 
ATOM     24  C   UNL     1       7.302  -4.686  25.844  0.00  0.00    +0.000 C 
ATOM     25  N   UNL     1       6.065  -4.962  26.585  0.00  0.00    +0.000 N 
ATOM     26  C   UNL     1       6.128  -5.953  27.534  0.00  0.00    +0.000 C 
ATOM     27  O   UNL     1       6.992  -5.912  28.386  0.00  0.00    +0.000 OA
ATOM     28  C   UNL     1       5.217  -3.825  26.894  0.00  0.00    +0.000 C 
ATOM     29  C   UNL     1       5.798  -2.537  26.303  0.00  0.00    +0.000 C 
BRANCH  26  30
ATOM     30  C   UNL     1       4.914  -6.820  27.675  0.00  0.00    +0.000 C 
ATOM     31 CL   UNL     1       4.191  -7.159  26.092  0.00  0.00    +0.000 Cl
ENDBRANCH  26  30
ENDBRANCH  19  22
ENDBRANCH   7  19
TORSDOF 5
ENDMDL
MODEL 3
REMARK VINA RESULT:      -8.3      3.297      7.305
REMARK  Name = 
REMARK  6 active torsions:
REMARK  status: ('A' for Active; 'I' for Inactive)
REMARK    1  A    between atoms: N_5  and  S_7
REMARK    2  A    between atoms: S_7  and  C_10
REMARK    3  A    between atoms: C_13  and  C_14
REMARK    4  A    between atoms: C_22  and  S_23
REMARK    5  A    between atoms: S_23  and  N_26
REMARK    6  A    between atoms: C_34  and  C_36
REMARK                            x       y       z     vdW  Elec       q    Type
REMARK                         _______ _______ _______ _____ _____    ______ ____
ROOT
ATOM      1  C   UNL     1       9.323  -0.761  24.248  0.00  0.00    +0.000 A 
ATOM      2  C   UNL     1      10.428   0.285  23.983  0.00  0.00    +0.000 A 
ATOM      3  C   UNL     1      10.359   1.717  24.202  0.00  0.00    +0.000 A 
ATOM      4  C   UNL     1      10.423   2.466  22.936  0.00  0.00    +0.000 C 
ATOM      5  C   UNL     1       8.985   1.976  24.780  0.00  0.00    +0.000 A 
ATOM      6  C   UNL     1       7.790   1.309  25.046  0.00  0.00    +0.000 A 
ATOM      7  C   UNL     1       8.128  -0.206  24.802  0.00  0.00    +0.000 A 
ENDROOT
BRANCH   1   8
ATOM      8  S   UNL     1       9.172  -1.404  22.614  0.00  0.00    +0.000 S 
ATOM      9  O   UNL     1      10.413  -1.821  22.071  0.00  0.00    +0.000 OA
ATOM     10  O   UNL     1       8.130  -2.411  22.613  0.00  0.00    +0.000 OA
BRANCH   8  14
ATOM     11  C   UNL     1       6.115  -0.810  19.669  0.00  0.00    +0.000 A 
ATOM     12  N   UNL     1       6.942  -1.186  20.875  0.00  0.00    +0.000 NA
ATOM     13  C   UNL     1       7.291  -0.180  21.536  0.00  0.00    +0.000 A 
ATOM     14  N   UNL     1       8.630  -0.152  21.663  0.00  0.00    +0.000 N 
ATOM     15  H   UNL     1       9.040  -0.246  20.795  0.00  0.00    +0.000 HD
ATOM     16  C   UNL     1       6.857   1.171  21.514  0.00  0.00    +0.000 A 
ATOM     17  C   UNL     1       6.239   1.838  20.413  0.00  0.00    +0.000 A 
ATOM     18  C   UNL     1       6.121   0.601  19.475  0.00  0.00    +0.000 A 
ENDBRANCH   8  14
ENDBRANCH   1   8
BRANCH   7  19
ATOM     19  S   UNL     1       7.906  -0.805  26.525  0.00  0.00    +0.000 S 
ATOM     20  O   UNL     1       9.234  -0.802  27.087  0.00  0.00    +0.000 OA
ATOM     21  O   UNL     1       7.027   0.180  27.136  0.00  0.00    +0.000 OA
BRANCH  19  22
ATOM     22  N   UNL     1       7.257  -2.235  26.508  0.00  0.00    +0.000 NA
ATOM     23  C   UNL     1       8.069  -3.343  26.450  0.00  0.00    +0.000 C 
ATOM     24  C   UNL     1       7.460  -4.515  25.659  0.00  0.00    +0.000 C 
ATOM     25  N   UNL     1       6.191  -4.833  26.326  0.00  0.00    +0.000 N 
ATOM     26  C   UNL     1       6.215  -5.873  27.223  0.00  0.00    +0.000 C 
ATOM     27  O   UNL     1       7.038  -5.877  28.115  0.00  0.00    +0.000 OA
ATOM     28  C   UNL     1       5.325  -3.716  26.655  0.00  0.00    +0.000 C 
ATOM     29  C   UNL     1       5.927  -2.397  26.162  0.00  0.00    +0.000 C 
BRANCH  26  30
ATOM     30  C   UNL     1       4.999  -6.748  27.261  0.00  0.00    +0.000 C 
ATOM     31 CL   UNL     1       4.413  -7.091  25.623  0.00  0.00    +0.000 Cl
ENDBRANCH  26  30
ENDBRANCH  19  22
ENDBRANCH   7  19
TORSDOF 5
ENDMDL
MODEL 4
REMARK VINA RESULT:      -8.3      2.257      3.331
REMARK  Name = 
REMARK  6 active torsions:
REMARK  status: ('A' for Active; 'I' for Inactive)
REMARK    1  A    between atoms: N_5  and  S_7
REMARK    2  A    between atoms: S_7  and  C_10
REMARK    3  A    between atoms: C_13  and  C_14
REMARK    4  A    between atoms: C_22  and  S_23
REMARK    5  A    between atoms: S_23  and  N_26
REMARK    6  A    between atoms: C_34  and  C_36
REMARK                            x       y       z     vdW  Elec       q    Type
REMARK                         _______ _______ _______ _____ _____    ______ ____
ROOT
ATOM      1  C   UNL     1       8.355  -3.558  24.408  0.00  0.00    +0.000 A 
ATOM      2  C   UNL     1       7.508  -4.329  23.373  0.00  0.00    +0.000 A 
ATOM      3  C   UNL     1       6.198  -3.972  22.863  0.00  0.00    +0.000 A 
ATOM      4  C   UNL     1       5.170  -4.941  23.276  0.00  0.00    +0.000 C 
ATOM      5  C   UNL     1       5.842  -2.663  23.532  0.00  0.00    +0.000 A 
ATOM      6  C   UNL     1       6.314  -1.800  24.520  0.00  0.00    +0.000 A 
ATOM      7  C   UNL     1       7.748  -2.346  24.860  0.00  0.00    +0.000 A 
ENDROOT
BRANCH   1   8
ATOM      8  S   UNL     1       8.506  -4.828  25.622  0.00  0.00    +0.000 S 
ATOM      9  O   UNL     1       9.302  -5.916  25.183  0.00  0.00    +0.000 OA
ATOM     10  O   UNL     1       8.926  -4.221  26.869  0.00  0.00    +0.000 OA
BRANCH   8  14
ATOM     11  C   UNL     1       6.323  -6.581  28.866  0.00  0.00    +0.000 A 
ATOM     12  N   UNL     1       7.197  -5.742  27.965  0.00  0.00    +0.000 NA
ATOM     13  C   UNL     1       6.528  -5.127  27.103  0.00  0.00    +0.000 A 
ATOM     14  N   UNL     1       6.974  -5.426  25.870  0.00  0.00    +0.000 N 
ATOM     15  H   UNL     1       7.015  -6.384  25.764  0.00  0.00    +0.000 HD
ATOM     16  C   UNL     1       5.137  -4.873  26.981  0.00  0.00    +0.000 A 
ATOM     17  C   UNL     1       4.086  -5.648  27.559  0.00  0.00    +0.000 A 
ATOM     18  C   UNL     1       4.987  -6.622  28.373  0.00  0.00    +0.000 A 
ENDBRANCH   8  14
ENDBRANCH   1   8
BRANCH   7  19
ATOM     19  S   UNL     1       8.724  -0.905  24.272  0.00  0.00    +0.000 S 
ATOM     20  O   UNL     1       8.644   0.053  25.347  0.00  0.00    +0.000 OA
ATOM     21  O   UNL     1      10.066  -1.435  24.082  0.00  0.00    +0.000 OA
BRANCH  19  22
ATOM     22  N   UNL     1       8.114  -0.366  22.930  0.00  0.00    +0.000 NA
ATOM     23  C   UNL     1       8.347  -1.052  21.760  0.00  0.00    +0.000 C 
ATOM     24  C   UNL     1       8.457  -0.143  20.522  0.00  0.00    +0.000 C 
ATOM     25  N   UNL     1       7.189   0.594  20.451  0.00  0.00    +0.000 N 
ATOM     26  C   UNL     1       6.237   0.091  19.598  0.00  0.00    +0.000 C 
ATOM     27  O   UNL     1       5.908  -1.074  19.685  0.00  0.00    +0.000 OA
ATOM     28  C   UNL     1       6.704   1.186  21.684  0.00  0.00    +0.000 C 
ATOM     29  C   UNL     1       7.695   0.949  22.827  0.00  0.00    +0.000 C 
BRANCH  26  30
ATOM     30  C   UNL     1       5.407   1.097  18.859  0.00  0.00    +0.000 C 
ATOM     31 CL   UNL     1       6.161   1.529  17.313  0.00  0.00    +0.000 Cl
ENDBRANCH  26  30
ENDBRANCH  19  22
ENDBRANCH   7  19
TORSDOF 5
ENDMDL
MODEL 5
REMARK VINA RESULT:      -8.2      3.042      6.961
REMARK  Name = 
REMARK  6 active torsions:
REMARK  status: ('A' for Active; 'I' for Inactive)
REMARK    1  A    between atoms: N_5  and  S_7
REMARK    2  A    between atoms: S_7  and  C_10
REMARK    3  A    between atoms: C_13  and  C_14
REMARK    4  A    between atoms: C_22  and  S_23
REMARK    5  A    between atoms: S_23  and  N_26
REMARK    6  A    between atoms: C_34  and  C_36
REMARK                            x       y       z     vdW  Elec       q    Type
REMARK                         _______ _______ _______ _____ _____    ______ ____
ROOT
ATOM      1  C   UNL     1       8.567   0.831  22.633  0.00  0.00    +0.000 A 
ATOM      2  C   UNL     1       9.644   1.887  22.303  0.00  0.00    +0.000 A 
ATOM      3  C   UNL     1      10.843   2.192  23.060  0.00  0.00    +0.000 A 
ATOM      4  C   UNL     1      10.795   3.548  23.633  0.00  0.00    +0.000 C 
ATOM      5  C   UNL     1      10.841   1.235  24.231  0.00  0.00    +0.000 A 
ATOM      6  C   UNL     1      10.025   0.278  24.833  0.00  0.00    +0.000 A 
ATOM      7  C   UNL     1       8.847   0.074  23.812  0.00  0.00    +0.000 A 
ENDROOT
BRANCH   1   8
ATOM      8  S   UNL     1       7.171   1.903  22.735  0.00  0.00    +0.000 S 
ATOM      9  O   UNL     1       6.059   1.296  23.371  0.00  0.00    +0.000 OA
ATOM     10  O   UNL     1       7.600   3.160  23.313  0.00  0.00    +0.000 OA
BRANCH   8  14
ATOM     11  C   UNL     1       7.484  -0.029  18.922  0.00  0.00    +0.000 A 
ATOM     12  N   UNL     1       7.289   0.336  20.374  0.00  0.00    +0.000 NA
ATOM     13  C   UNL     1       6.314   1.106  20.537  0.00  0.00    +0.000 A 
ATOM     14  N   UNL     1       6.710   2.225  21.170  0.00  0.00    +0.000 N 
ATOM     15  H   UNL     1       7.471   2.604  20.714  0.00  0.00    +0.000 HD
ATOM     16  C   UNL     1       5.242   1.478  19.686  0.00  0.00    +0.000 A 
ATOM     17  C   UNL     1       5.248   1.435  18.258  0.00  0.00    +0.000 A 
ATOM     18  C   UNL     1       6.641   0.760  18.088  0.00  0.00    +0.000 A 
ENDBRANCH   8  14
ENDBRANCH   1   8
BRANCH   7  19
ATOM     19  S   UNL     1       9.189  -1.674  23.362  0.00  0.00    +0.000 S 
ATOM     20  O   UNL     1       9.869  -1.598  22.093  0.00  0.00    +0.000 OA
ATOM     21  O   UNL     1      10.041  -2.160  24.436  0.00  0.00    +0.000 OA
BRANCH  19  22
ATOM     22  N   UNL     1       7.839  -2.473  23.282  0.00  0.00    +0.000 NA
ATOM     23  C   UNL     1       7.342  -2.836  22.052  0.00  0.00    +0.000 C 
ATOM     24  C   UNL     1       5.804  -2.840  21.984  0.00  0.00    +0.000 C 
ATOM     25  N   UNL     1       5.358  -3.777  23.023  0.00  0.00    +0.000 N 
ATOM     26  C   UNL     1       5.058  -5.052  22.609  0.00  0.00    +0.000 C 
ATOM     27  O   UNL     1       5.872  -5.679  21.962  0.00  0.00    +0.000 OA
ATOM     28  C   UNL     1       5.977  -3.650  24.330  0.00  0.00    +0.000 C 
ATOM     29  C   UNL     1       6.962  -2.478  24.353  0.00  0.00    +0.000 C 
BRANCH  26  30
ATOM     30  C   UNL     1       3.901  -5.718  23.290  0.00  0.00    +0.000 C 
ATOM     31 CL   UNL     1       4.461  -6.987  24.394  0.00  0.00    +0.000 Cl
ENDBRANCH  26  30
ENDBRANCH  19  22
ENDBRANCH   7  19
TORSDOF 5
ENDMDL
MODEL 6
REMARK VINA RESULT:      -8.1      3.385      7.615
REMARK  Name = 
REMARK  6 active torsions:
REMARK  status: ('A' for Active; 'I' for Inactive)
REMARK    1  A    between atoms: N_5  and  S_7
REMARK    2  A    between atoms: S_7  and  C_10
REMARK    3  A    between atoms: C_13  and  C_14
REMARK    4  A    between atoms: C_22  and  S_23
REMARK    5  A    between atoms: S_23  and  N_26
REMARK    6  A    between atoms: C_34  and  C_36
REMARK                            x       y       z     vdW  Elec       q    Type
REMARK                         _______ _______ _______ _____ _____    ______ ____
ROOT
ATOM      1  C   UNL     1       7.500  -1.193  24.089  0.00  0.00    +0.000 A 
ATOM      2  C   UNL     1       7.089  -1.052  22.608  0.00  0.00    +0.000 A 
ATOM      3  C   UNL     1       7.903  -1.317  21.436  0.00  0.00    +0.000 A 
ATOM      4  C   UNL     1       8.176  -0.087  20.674  0.00  0.00    +0.000 C 
ATOM      5  C   UNL     1       9.237  -1.795  21.965  0.00  0.00    +0.000 A 
ATOM      6  C   UNL     1       9.922  -1.942  23.171  0.00  0.00    +0.000 A 
ATOM      7  C   UNL     1       8.834  -1.672  24.272  0.00  0.00    +0.000 A 
ENDROOT
BRANCH   1   8
ATOM      8  S   UNL     1       7.216   0.470  24.600  0.00  0.00    +0.000 S 
ATOM      9  O   UNL     1       5.905   0.920  24.303  0.00  0.00    +0.000 OA
ATOM     10  O   UNL     1       7.610   0.596  25.989  0.00  0.00    +0.000 OA
BRANCH   8  14
ATOM     11  C   UNL     1       8.803   4.443  24.852  0.00  0.00    +0.000 A 
ATOM     12  N   UNL     1       8.312   3.037  25.101  0.00  0.00    +0.000 NA
ATOM     13  C   UNL     1       9.021   2.183  24.519  0.00  0.00    +0.000 A 
ATOM     14  N   UNL     1       8.258   1.419  23.716  0.00  0.00    +0.000 N 
ATOM     15  H   UNL     1       7.725   1.982  23.143  0.00  0.00    +0.000 HD
ATOM     16  C   UNL     1      10.299   2.264  23.908  0.00  0.00    +0.000 A 
ATOM     17  C   UNL     1      10.909   3.445  23.386  0.00  0.00    +0.000 A 
ATOM     18  C   UNL     1       9.817   4.452  23.852  0.00  0.00    +0.000 A 
ENDBRANCH   8  14
ENDBRANCH   1   8
BRANCH   7  19
ATOM     19  S   UNL     1       8.795  -3.349  25.021  0.00  0.00    +0.000 S 
ATOM     20  O   UNL     1       9.962  -4.012  24.493  0.00  0.00    +0.000 OA
ATOM     21  O   UNL     1       8.878  -3.104  26.452  0.00  0.00    +0.000 OA
BRANCH  19  22
ATOM     22  N   UNL     1       7.457  -4.071  24.629  0.00  0.00    +0.000 NA
ATOM     23  C   UNL     1       6.537  -4.363  25.610  0.00  0.00    +0.000 C 
ATOM     24  C   UNL     1       5.756  -5.666  25.356  0.00  0.00    +0.000 C 
ATOM     25  N   UNL     1       5.095  -5.491  24.056  0.00  0.00    +0.000 N 
ATOM     26  C   UNL     1       3.782  -5.090  24.086  0.00  0.00    +0.000 C 
ATOM     27  O   UNL     1       3.471  -4.103  24.722  0.00  0.00    +0.000 OA
ATOM     28  C   UNL     1       5.907  -4.967  22.973  0.00  0.00    +0.000 C 
ATOM     29  C   UNL     1       7.353  -4.754  23.430  0.00  0.00    +0.000 C 
BRANCH  26  30
ATOM     30  C   UNL     1       2.881  -5.680  23.044  0.00  0.00    +0.000 C 
ATOM     31 CL   UNL     1       1.888  -6.981  23.729  0.00  0.00    +0.000 Cl
ENDBRANCH  26  30
ENDBRANCH  19  22
ENDBRANCH   7  19
TORSDOF 5
ENDMDL
MODEL 7
REMARK VINA RESULT:      -8.0      2.733      5.332
REMARK  Name = 
REMARK  6 active torsions:
REMARK  status: ('A' for Active; 'I' for Inactive)
REMARK    1  A    between atoms: N_5  and  S_7
REMARK    2  A    between atoms: S_7  and  C_10
REMARK    3  A    between atoms: C_13  and  C_14
REMARK    4  A    between atoms: C_22  and  S_23
REMARK    5  A    between atoms: S_23  and  N_26
REMARK    6  A    between atoms: C_34  and  C_36
REMARK                            x       y       z     vdW  Elec       q    Type
REMARK                         _______ _______ _______ _____ _____    ______ ____
ROOT
ATOM      1  C   UNL     1       5.425  -3.882  23.748  0.00  0.00    +0.000 A 
ATOM      2  C   UNL     1       4.236  -4.851  23.569  0.00  0.00    +0.000 A 
ATOM      3  C   UNL     1       3.681  -5.759  24.555  0.00  0.00    +0.000 A 
ATOM      4  C   UNL     1       3.884  -7.167  24.175  0.00  0.00    +0.000 C 
ATOM      5  C   UNL     1       4.488  -5.537  25.815  0.00  0.00    +0.000 A 
ATOM      6  C   UNL     1       5.614  -4.845  26.259  0.00  0.00    +0.000 A 
ATOM      7  C   UNL     1       5.986  -3.897  25.062  0.00  0.00    +0.000 A 
ENDROOT
BRANCH   1   8
ATOM      8  S   UNL     1       6.469  -4.508  22.472  0.00  0.00    +0.000 S 
ATOM      9  O   UNL     1       7.433  -5.429  22.954  0.00  0.00    +0.000 OA
ATOM     10  O   UNL     1       5.632  -4.998  21.396  0.00  0.00    +0.000 OA
BRANCH   8  14
ATOM     11  C   UNL     1       5.773  -1.375  19.631  0.00  0.00    +0.000 A 
ATOM     12  N   UNL     1       5.698  -2.404  20.734  0.00  0.00    +0.000 NA
ATOM     13  C   UNL     1       6.499  -2.153  21.664  0.00  0.00    +0.000 A 
ATOM     14  N   UNL     1       7.311  -3.205  21.872  0.00  0.00    +0.000 N 
ATOM     15  H   UNL     1       7.710  -3.476  21.037  0.00  0.00    +0.000 HD
ATOM     16  C   UNL     1       7.248  -0.992  21.989  0.00  0.00    +0.000 A 
ATOM     17  C   UNL     1       7.642   0.036  21.080  0.00  0.00    +0.000 A 
ATOM     18  C   UNL     1       6.881  -0.502  19.833  0.00  0.00    +0.000 A 
ENDBRANCH   8  14
ENDBRANCH   1   8
BRANCH   7  19
ATOM     19  S   UNL     1       5.668  -2.289  25.892  0.00  0.00    +0.000 S 
ATOM     20  O   UNL     1       4.436  -1.816  25.311  0.00  0.00    +0.000 OA
ATOM     21  O   UNL     1       5.539  -2.633  27.300  0.00  0.00    +0.000 OA
BRANCH  19  22
ATOM     22  N   UNL     1       6.874  -1.316  25.638  0.00  0.00    +0.000 NA
ATOM     23  C   UNL     1       8.158  -1.768  25.837  0.00  0.00    +0.000 C 
ATOM     24  C   UNL     1       9.121  -0.683  26.354  0.00  0.00    +0.000 C 
ATOM     25  N   UNL     1       9.095   0.389  25.350  0.00  0.00    +0.000 N 
ATOM     26  C   UNL     1      10.110   0.385  24.425  0.00  0.00    +0.000 C 
ATOM     27  O   UNL     1      10.338  -0.624  23.789  0.00  0.00    +0.000 OA
ATOM     28  C   UNL     1       7.790   0.812  24.877  0.00  0.00    +0.000 C 
ATOM     29  C   UNL     1       6.676   0.053  25.602  0.00  0.00    +0.000 C 
BRANCH  26  30
ATOM     30  C   UNL     1      10.631   1.725  24.002  0.00  0.00    +0.000 C 
ATOM     31 CL   UNL     1      10.213   2.063  22.313  0.00  0.00    +0.000 Cl
ENDBRANCH  26  30
ENDBRANCH  19  22
ENDBRANCH   7  19
TORSDOF 5
ENDMDL
MODEL 8
REMARK VINA RESULT:      -8.0      3.863      7.364
REMARK  Name = 
REMARK  6 active torsions:
REMARK  status: ('A' for Active; 'I' for Inactive)
REMARK    1  A    between atoms: N_5  and  S_7
REMARK    2  A    between atoms: S_7  and  C_10
REMARK    3  A    between atoms: C_13  and  C_14
REMARK    4  A    between atoms: C_22  and  S_23
REMARK    5  A    between atoms: S_23  and  N_26
REMARK    6  A    between atoms: C_34  and  C_36
REMARK                            x       y       z     vdW  Elec       q    Type
REMARK                         _______ _______ _______ _____ _____    ______ ____
ROOT
ATOM      1  C   UNL     1       7.479  -0.347  24.205  0.00  0.00    +0.000 A 
ATOM      2  C   UNL     1       8.098  -1.324  23.184  0.00  0.00    +0.000 A 
ATOM      3  C   UNL     1       9.480  -1.762  23.106  0.00  0.00    +0.000 A 
ATOM      4  C   UNL     1      10.136  -1.280  21.879  0.00  0.00    +0.000 C 
ATOM      5  C   UNL     1      10.187  -1.087  24.260  0.00  0.00    +0.000 A 
ATOM      6  C   UNL     1       9.954  -0.136  25.253  0.00  0.00    +0.000 A 
ATOM      7  C   UNL     1       8.406   0.127  25.184  0.00  0.00    +0.000 A 
ENDROOT
BRANCH   1   8
ATOM      8  S   UNL     1       6.882   0.869  23.078  0.00  0.00    +0.000 S 
ATOM      9  O   UNL     1       5.646   1.435  23.483  0.00  0.00    +0.000 OA
ATOM     10  O   UNL     1       7.943   1.823  22.829  0.00  0.00    +0.000 OA
BRANCH   8  14
ATOM     11  C   UNL     1       5.008   1.776  19.331  0.00  0.00    +0.000 A 
ATOM     12  N   UNL     1       5.804   1.770  20.614  0.00  0.00    +0.000 NA
ATOM     13  C   UNL     1       6.720   0.916  20.593  0.00  0.00    +0.000 A 
ATOM     14  N   UNL     1       6.597   0.081  21.641  0.00  0.00    +0.000 N 
ATOM     15  H   UNL     1       5.699  -0.269  21.673  0.00  0.00    +0.000 HD
ATOM     16  C   UNL     1       7.295   0.161  19.538  0.00  0.00    +0.000 A 
ATOM     17  C   UNL     1       6.666  -0.165  18.298  0.00  0.00    +0.000 A 
ATOM     18  C   UNL     1       5.368   0.667  18.512  0.00  0.00    +0.000 A 
ENDBRANCH   8  14
ENDBRANCH   1   8
BRANCH   7  19
ATOM     19  S   UNL     1       7.954  -0.531  26.839  0.00  0.00    +0.000 S 
ATOM     20  O   UNL     1       9.193  -0.547  27.576  0.00  0.00    +0.000 OA
ATOM     21  O   UNL     1       6.996   0.434  27.357  0.00  0.00    +0.000 OA
BRANCH  19  22
ATOM     22  N   UNL     1       7.319  -1.958  26.684  0.00  0.00    +0.000 NA
ATOM     23  C   UNL     1       8.132  -3.031  26.403  0.00  0.00    +0.000 C 
ATOM     24  C   UNL     1       7.463  -4.098  25.517  0.00  0.00    +0.000 C 
ATOM     25  N   UNL     1       6.263  -4.530  26.245  0.00  0.00    +0.000 N 
ATOM     26  C   UNL     1       6.379  -5.682  26.985  0.00  0.00    +0.000 C 
ATOM     27  O   UNL     1       7.281  -5.788  27.791  0.00  0.00    +0.000 OA
ATOM     28  C   UNL     1       5.421  -3.486  26.801  0.00  0.00    +0.000 C 
ATOM     29  C   UNL     1       5.964  -2.101  26.440  0.00  0.00    +0.000 C 
BRANCH  26  30
ATOM     30  C   UNL     1       5.179  -6.579  27.013  0.00  0.00    +0.000 C 
ATOM     31 CL   UNL     1       4.534  -6.724  28.658  0.00  0.00    +0.000 Cl
ENDBRANCH  26  30
ENDBRANCH  19  22
ENDBRANCH   7  19
TORSDOF 5
ENDMDL
MODEL 9
REMARK VINA RESULT:      -7.9      2.948      6.839
REMARK  Name = 
REMARK  6 active torsions:
REMARK  status: ('A' for Active; 'I' for Inactive)
REMARK    1  A    between atoms: N_5  and  S_7
REMARK    2  A    between atoms: S_7  and  C_10
REMARK    3  A    between atoms: C_13  and  C_14
REMARK    4  A    between atoms: C_22  and  S_23
REMARK    5  A    between atoms: S_23  and  N_26
REMARK    6  A    between atoms: C_34  and  C_36
REMARK                            x       y       z     vdW  Elec       q    Type
REMARK                         _______ _______ _______ _____ _____    ______ ____
ROOT
ATOM      1  C   UNL     1       8.486  -0.674  23.287  0.00  0.00    +0.000 A 
ATOM      2  C   UNL     1       9.768   0.128  22.977  0.00  0.00    +0.000 A 
ATOM      3  C   UNL     1      10.779   0.575  23.916  0.00  0.00    +0.000 A 
ATOM      4  C   UNL     1      10.814   2.043  24.021  0.00  0.00    +0.000 C 
ATOM      5  C   UNL     1      10.336   0.062  25.268  0.00  0.00    +0.000 A 
ATOM      6  C   UNL     1       9.253  -0.578  25.870  0.00  0.00    +0.000 A 
ATOM      7  C   UNL     1       8.343  -1.017  24.667  0.00  0.00    +0.000 A 
ENDROOT
BRANCH   1   8
ATOM      8  S   UNL     1       7.300   0.473  22.666  0.00  0.00    +0.000 S 
ATOM      9  O   UNL     1       6.191   0.640  23.533  0.00  0.00    +0.000 OA
ATOM     10  O   UNL     1       7.991   1.696  22.307  0.00  0.00    +0.000 OA
BRANCH   8  14
ATOM     11  C   UNL     1       4.935   1.816  19.354  0.00  0.00    +0.000 A 
ATOM     12  N   UNL     1       5.926   1.646  20.480  0.00  0.00    +0.000 NA
ATOM     13  C   UNL     1       6.739   0.721  20.253  0.00  0.00    +0.000 A 
ATOM     14  N   UNL     1       6.710  -0.178  21.254  0.00  0.00    +0.000 N 
ATOM     15  H   UNL     1       5.799  -0.451  21.418  0.00  0.00    +0.000 HD
ATOM     16  C   UNL     1       7.058   0.002  19.072  0.00  0.00    +0.000 A 
ATOM     17  C   UNL     1       6.206  -0.175  17.939  0.00  0.00    +0.000 A 
ATOM     18  C   UNL     1       5.047   0.746  18.420  0.00  0.00    +0.000 A 
ENDBRANCH   8  14
ENDBRANCH   1   8
BRANCH   7  19
ATOM     19  S   UNL     1       8.495  -2.837  24.874  0.00  0.00    +0.000 S 
ATOM     20  O   UNL     1       9.563  -3.218  23.983  0.00  0.00    +0.000 OA
ATOM     21  O   UNL     1       8.835  -3.010  26.277  0.00  0.00    +0.000 OA
BRANCH  19  22
ATOM     22  N   UNL     1       7.130  -3.525  24.515  0.00  0.00    +0.000 NA
ATOM     23  C   UNL     1       6.524  -4.344  25.439  0.00  0.00    +0.000 C 
ATOM     24  C   UNL     1       5.755  -5.521  24.812  0.00  0.00    +0.000 C 
ATOM     25  N   UNL     1       4.759  -4.919  23.917  0.00  0.00    +0.000 N 
ATOM     26  C   UNL     1       3.489  -4.779  24.421  0.00  0.00    +0.000 C 
ATOM     27  O   UNL     1       3.325  -4.215  25.484  0.00  0.00    +0.000 OA
ATOM     28  C   UNL     1       5.223  -3.866  23.032  0.00  0.00    +0.000 C 
ATOM     29  C   UNL     1       6.729  -3.644  23.195  0.00  0.00    +0.000 C 
BRANCH  26  30
ATOM     30  C   UNL     1       2.362  -5.006  23.460  0.00  0.00    +0.000 C 
ATOM     31 CL   UNL     1       2.352  -6.682  22.880  0.00  0.00    +0.000 Cl
ENDBRANCH  26  30
ENDBRANCH  19  22
ENDBRANCH   7  19
TORSDOF 5
ENDMDL
