MODEL 1
REMARK VINA RESULT:      -8.7      0.000      0.000
REMARK  Name = 
REMARK  3 active torsions:
REMARK  status: ('A' for Active; 'I' for Inactive)
REMARK    1  A    between atoms: C_7  and  S_8
REMARK    2  A    between atoms: S_8  and  N_11
REMARK    3  A    between atoms: N_18  and  C_19
REMARK                            x       y       z     vdW  Elec       q    Type
REMARK                         _______ _______ _______ _____ _____    ______ ____
ROOT
ATOM      1  N   UNL     1       9.027  -2.045  24.580  0.00  0.00    +0.000 NA
ATOM      2  C   UNL     1       9.489  -2.488  23.399  0.00  0.00    +0.000 C 
ATOM      3  C   UNL     1      10.547  -1.641  22.706  0.00  0.00    +0.000 C 
ATOM      4  N   UNL     1      10.170  -0.213  22.925  0.00  0.00    +0.000 N 
ATOM      5  C   UNL     1      10.154   0.155  24.288  0.00  0.00    +0.000 C 
ATOM      6  C   UNL     1       9.244  -0.789  25.090  0.00  0.00    +0.000 C 
ENDROOT
BRANCH   4   7
ATOM      7  C   UNL     1       9.597   0.357  21.851  0.00  0.00    +0.000 A 
ATOM      8  C   UNL     1       9.936   1.811  22.082  0.00  0.00    +0.000 A 
ATOM      9  C   UNL     1       8.960   2.854  22.354  0.00  0.00    +0.000 A 
ATOM     10  C   UNL     1       7.630   2.392  21.826  0.00  0.00    +0.000 A 
ATOM     11  C   UNL     1       7.045   1.221  21.716  0.00  0.00    +0.000 A 
ATOM     12  C   UNL     1       6.275   1.035  20.586  0.00  0.00    +0.000 A 
ATOM     13  C   UNL     1       6.166   1.061  19.157  0.00  0.00    +0.000 A 
ATOM     14  C   UNL     1       7.445   0.234  19.010  0.00  0.00    +0.000 A 
ATOM     15  C   UNL     1       8.206  -0.301  19.945  0.00  0.00    +0.000 A 
ATOM     16  C   UNL     1       8.246   0.290  21.312  0.00  0.00    +0.000 A 
ENDBRANCH   4   7
BRANCH   1  17
ATOM     17  S   UNL     1       7.560  -2.608  25.049  0.00  0.00    +0.000 S 
ATOM     18  O   UNL     1       7.364  -2.368  26.438  0.00  0.00    +0.000 OA
ATOM     19  O   UNL     1       6.561  -2.018  24.169  0.00  0.00    +0.000 OA
BRANCH  17  24
ATOM     20  C   UNL     1       5.204  -6.301  25.011  0.00  0.00    +0.000 A 
ATOM     21  C   UNL     1       6.000  -5.765  26.181  0.00  0.00    +0.000 A 
ATOM     22  C   UNL     1       7.168  -4.887  26.161  0.00  0.00    +0.000 A 
ATOM     23  F   UNL     1       8.202  -5.726  26.406  0.00  0.00    +0.000 F 
ATOM     24  C   UNL     1       7.472  -4.406  24.720  0.00  0.00    +0.000 A 
ATOM     25  C   UNL     1       6.761  -4.714  23.503  0.00  0.00    +0.000 A 
ATOM     26  F   UNL     1       7.472  -5.535  22.668  0.00  0.00    +0.000 F 
ATOM     27  C   UNL     1       5.492  -5.632  23.738  0.00  0.00    +0.000 A 
ENDBRANCH  17  24
ENDBRANCH   1  17
TORSDOF 3
ENDMDL
MODEL 2
REMARK VINA RESULT:      -8.2      2.016      3.631
REMARK  Name = 
REMARK  3 active torsions:
REMARK  status: ('A' for Active; 'I' for Inactive)
REMARK    1  A    between atoms: C_7  and  S_8
REMARK    2  A    between atoms: S_8  and  N_11
REMARK    3  A    between atoms: N_18  and  C_19
REMARK                            x       y       z     vdW  Elec       q    Type
REMARK                         _______ _______ _______ _____ _____    ______ ____
ROOT
ATOM      1  N   UNL     1       7.941  -1.777  24.437  0.00  0.00    +0.000 NA
ATOM      2  C   UNL     1       8.732  -1.006  25.201  0.00  0.00    +0.000 C 
ATOM      3  C   UNL     1       8.129   0.281  25.747  0.00  0.00    +0.000 C 
ATOM      4  N   UNL     1       7.272   0.850  24.665  0.00  0.00    +0.000 N 
ATOM      5  C   UNL     1       6.206   0.001  24.296  0.00  0.00    +0.000 C 
ATOM      6  C   UNL     1       6.733  -1.391  23.912  0.00  0.00    +0.000 C 
ENDROOT
BRANCH   4   7
ATOM      7  C   UNL     1       7.847   1.877  24.016  0.00  0.00    +0.000 A 
ATOM      8  C   UNL     1       7.707   1.424  22.581  0.00  0.00    +0.000 A 
ATOM      9  C   UNL     1       8.820   1.088  21.708  0.00  0.00    +0.000 A 
ATOM     10  C   UNL     1      10.048   1.775  22.239  0.00  0.00    +0.000 A 
ATOM     11  C   UNL     1      10.474   2.089  23.441  0.00  0.00    +0.000 A 
ATOM     12  C   UNL     1      11.145   3.290  23.549  0.00  0.00    +0.000 A 
ATOM     13  C   UNL     1      11.171   4.706  23.329  0.00  0.00    +0.000 A 
ATOM     14  C   UNL     1       9.792   4.866  23.972  0.00  0.00    +0.000 A 
ATOM     15  C   UNL     1       9.027   3.957  24.546  0.00  0.00    +0.000 A 
ATOM     16  C   UNL     1       9.144   2.522  24.159  0.00  0.00    +0.000 A 
ENDBRANCH   4   7
BRANCH   1  17
ATOM     17  S   UNL     1       8.697  -2.823  23.425  0.00  0.00    +0.000 S 
ATOM     18  O   UNL     1       8.315  -2.565  22.079  0.00  0.00    +0.000 OA
ATOM     19  O   UNL     1      10.125  -2.740  23.693  0.00  0.00    +0.000 OA
BRANCH  17  24
ATOM     20  C   UNL     1       6.388  -5.539  25.972  0.00  0.00    +0.000 A 
ATOM     21  C   UNL     1       7.775  -5.009  26.263  0.00  0.00    +0.000 A 
ATOM     22  C   UNL     1       8.792  -4.553  25.318  0.00  0.00    +0.000 A 
ATOM     23  F   UNL     1       9.670  -5.582  25.273  0.00  0.00    +0.000 F 
ATOM     24  C   UNL     1       8.234  -4.536  23.874  0.00  0.00    +0.000 A 
ATOM     25  C   UNL     1       6.912  -4.891  23.418  0.00  0.00    +0.000 A 
ATOM     26  F   UNL     1       6.895  -6.059  22.702  0.00  0.00    +0.000 F 
ATOM     27  C   UNL     1       5.937  -5.304  24.597  0.00  0.00    +0.000 A 
ENDBRANCH  17  24
ENDBRANCH   1  17
TORSDOF 3
ENDMDL
MODEL 3
REMARK VINA RESULT:      -8.2      1.964      3.364
REMARK  Name = 
REMARK  3 active torsions:
REMARK  status: ('A' for Active; 'I' for Inactive)
REMARK    1  A    between atoms: C_7  and  S_8
REMARK    2  A    between atoms: S_8  and  N_11
REMARK    3  A    between atoms: N_18  and  C_19
REMARK                            x       y       z     vdW  Elec       q    Type
REMARK                         _______ _______ _______ _____ _____    ______ ____
ROOT
ATOM      1  N   UNL     1       8.262  -1.798  22.855  0.00  0.00    +0.000 NA
ATOM      2  C   UNL     1       7.342  -0.951  23.345  0.00  0.00    +0.000 C 
ATOM      3  C   UNL     1       6.799   0.109  22.396  0.00  0.00    +0.000 C 
ATOM      4  N   UNL     1       7.950   0.579  21.569  0.00  0.00    +0.000 N 
ATOM      5  C   UNL     1       8.525  -0.444  20.784  0.00  0.00    +0.000 C 
ATOM      6  C   UNL     1       8.925  -1.640  21.664  0.00  0.00    +0.000 C 
ENDROOT
BRANCH   4   7
ATOM      7  C   UNL     1       8.439   1.767  21.963  0.00  0.00    +0.000 A 
ATOM      8  C   UNL     1       9.910   1.446  22.085  0.00  0.00    +0.000 A 
ATOM      9  C   UNL     1      10.656   1.451  23.333  0.00  0.00    +0.000 A 
ATOM     10  C   UNL     1       9.920   2.327  24.309  0.00  0.00    +0.000 A 
ATOM     11  C   UNL     1       8.652   2.599  24.520  0.00  0.00    +0.000 A 
ATOM     12  C   UNL     1       8.367   3.898  24.886  0.00  0.00    +0.000 A 
ATOM     13  C   UNL     1       8.471   5.302  24.614  0.00  0.00    +0.000 A 
ATOM     14  C   UNL     1       8.000   5.093  23.174  0.00  0.00    +0.000 A 
ATOM     15  C   UNL     1       7.602   3.986  22.578  0.00  0.00    +0.000 A 
ATOM     16  C   UNL     1       8.081   2.658  23.057  0.00  0.00    +0.000 A 
ENDBRANCH   4   7
BRANCH   1  17
ATOM     17  S   UNL     1       9.225  -2.543  23.952  0.00  0.00    +0.000 S 
ATOM     18  O   UNL     1      10.577  -2.531  23.506  0.00  0.00    +0.000 OA
ATOM     19  O   UNL     1       8.992  -1.913  25.244  0.00  0.00    +0.000 OA
BRANCH  17  24
ATOM     20  C   UNL     1       6.589  -5.413  25.954  0.00  0.00    +0.000 A 
ATOM     21  C   UNL     1       7.955  -4.973  26.435  0.00  0.00    +0.000 A 
ATOM     22  C   UNL     1       9.075  -4.463  25.649  0.00  0.00    +0.000 A 
ATOM     23  F   UNL     1       9.923  -5.517  25.580  0.00  0.00    +0.000 F 
ATOM     24  C   UNL     1       8.669  -4.273  24.167  0.00  0.00    +0.000 A 
ATOM     25  C   UNL     1       7.389  -4.526  23.548  0.00  0.00    +0.000 A 
ATOM     26  F   UNL     1       7.410  -5.611  22.713  0.00  0.00    +0.000 F 
ATOM     27  C   UNL     1       6.288  -5.019  24.575  0.00  0.00    +0.000 A 
ENDBRANCH  17  24
ENDBRANCH   1  17
TORSDOF 3
ENDMDL
MODEL 4
REMARK VINA RESULT:      -8.2      1.502      2.162
REMARK  Name = 
REMARK  3 active torsions:
REMARK  status: ('A' for Active; 'I' for Inactive)
REMARK    1  A    between atoms: C_7  and  S_8
REMARK    2  A    between atoms: S_8  and  N_11
REMARK    3  A    between atoms: N_18  and  C_19
REMARK                            x       y       z     vdW  Elec       q    Type
REMARK                         _______ _______ _______ _____ _____    ______ ____
ROOT
ATOM      1  N   UNL     1       8.996  -2.314  24.172  0.00  0.00    +0.000 NA
ATOM      2  C   UNL     1      10.034  -2.029  23.368  0.00  0.00    +0.000 C 
ATOM      3  C   UNL     1      10.471  -0.572  23.291  0.00  0.00    +0.000 C 
ATOM      4  N   UNL     1       9.227   0.254  23.304  0.00  0.00    +0.000 N 
ATOM      5  C   UNL     1       8.469   0.097  24.485  0.00  0.00    +0.000 C 
ATOM      6  C   UNL     1       8.152  -1.387  24.730  0.00  0.00    +0.000 C 
ENDROOT
BRANCH   4   7
ATOM      7  C   UNL     1       8.883   0.718  22.091  0.00  0.00    +0.000 A 
ATOM      8  C   UNL     1       9.059   2.205  22.292  0.00  0.00    +0.000 A 
ATOM      9  C   UNL     1       7.978   3.176  22.259  0.00  0.00    +0.000 A 
ATOM     10  C   UNL     1       6.843   2.579  21.473  0.00  0.00    +0.000 A 
ATOM     11  C   UNL     1       6.381   1.359  21.313  0.00  0.00    +0.000 A 
ATOM     12  C   UNL     1       5.913   1.052  20.053  0.00  0.00    +0.000 A 
ATOM     13  C   UNL     1       6.139   0.995  18.639  0.00  0.00    +0.000 A 
ATOM     14  C   UNL     1       7.470   0.270  18.846  0.00  0.00    +0.000 A 
ATOM     15  C   UNL     1       8.026  -0.150  19.966  0.00  0.00    +0.000 A 
ATOM     16  C   UNL     1       7.704   0.512  21.262  0.00  0.00    +0.000 A 
ENDBRANCH   4   7
BRANCH   1  17
ATOM     17  S   UNL     1       8.188  -3.705  23.855  0.00  0.00    +0.000 S 
ATOM     18  O   UNL     1       7.748  -3.719  22.501  0.00  0.00    +0.000 OA
ATOM     19  O   UNL     1       9.052  -4.813  24.238  0.00  0.00    +0.000 OA
BRANCH  17  24
ATOM     20  C   UNL     1       5.115  -6.189  25.745  0.00  0.00    +0.000 A 
ATOM     21  C   UNL     1       5.001  -5.501  24.402  0.00  0.00    +0.000 A 
ATOM     22  C   UNL     1       5.694  -4.304  23.931  0.00  0.00    +0.000 A 
ATOM     23  F   UNL     1       4.751  -3.336  24.015  0.00  0.00    +0.000 F 
ATOM     24  C   UNL     1       6.742  -3.830  24.968  0.00  0.00    +0.000 A 
ATOM     25  C   UNL     1       7.072  -4.419  26.244  0.00  0.00    +0.000 A 
ATOM     26  F   UNL     1       6.656  -3.657  27.303  0.00  0.00    +0.000 F 
ATOM     27  C   UNL     1       6.255  -5.742  26.549  0.00  0.00    +0.000 A 
ENDBRANCH  17  24
ENDBRANCH   1  17
TORSDOF 3
ENDMDL
MODEL 5
REMARK VINA RESULT:      -8.2      1.637      2.775
REMARK  Name = 
REMARK  3 active torsions:
REMARK  status: ('A' for Active; 'I' for Inactive)
REMARK    1  A    between atoms: C_7  and  S_8
REMARK    2  A    between atoms: S_8  and  N_11
REMARK    3  A    between atoms: N_18  and  C_19
REMARK                            x       y       z     vdW  Elec       q    Type
REMARK                         _______ _______ _______ _____ _____    ______ ____
ROOT
ATOM      1  N   UNL     1       7.975  -1.900  22.183  0.00  0.00    +0.000 NA
ATOM      2  C   UNL     1       7.231  -1.134  21.368  0.00  0.00    +0.000 C 
ATOM      3  C   UNL     1       7.971  -0.145  20.477  0.00  0.00    +0.000 C 
ATOM      4  N   UNL     1       9.091   0.416  21.290  0.00  0.00    +0.000 N 
ATOM      5  C   UNL     1      10.020  -0.562  21.707  0.00  0.00    +0.000 C 
ATOM      6  C   UNL     1       9.305  -1.700  22.456  0.00  0.00    +0.000 C 
ENDROOT
BRANCH   4   7
ATOM      7  C   UNL     1       8.842   1.651  21.758  0.00  0.00    +0.000 A 
ATOM      8  C   UNL     1      10.196   2.027  22.312  0.00  0.00    +0.000 A 
ATOM      9  C   UNL     1      10.480   2.249  23.720  0.00  0.00    +0.000 A 
ATOM     10  C   UNL     1       9.187   2.593  24.405  0.00  0.00    +0.000 A 
ATOM     11  C   UNL     1       7.934   2.234  24.230  0.00  0.00    +0.000 A 
ATOM     12  C   UNL     1       6.990   3.216  24.443  0.00  0.00    +0.000 A 
ATOM     13  C   UNL     1       6.500   4.532  24.154  0.00  0.00    +0.000 A 
ATOM     14  C   UNL     1       6.595   4.273  22.649  0.00  0.00    +0.000 A 
ATOM     15  C   UNL     1       6.938   3.171  22.011  0.00  0.00    +0.000 A 
ATOM     16  C   UNL     1       7.826   2.169  22.664  0.00  0.00    +0.000 A 
ENDBRANCH   4   7
BRANCH   1  17
ATOM     17  S   UNL     1       7.212  -2.533  23.488  0.00  0.00    +0.000 S 
ATOM     18  O   UNL     1       7.868  -2.127  24.685  0.00  0.00    +0.000 OA
ATOM     19  O   UNL     1       5.806  -2.167  23.397  0.00  0.00    +0.000 OA
BRANCH  17  24
ATOM     20  C   UNL     1       5.022  -6.323  23.648  0.00  0.00    +0.000 A 
ATOM     21  C   UNL     1       5.664  -5.616  24.822  0.00  0.00    +0.000 A 
ATOM     22  C   UNL     1       6.791  -4.687  24.818  0.00  0.00    +0.000 A 
ATOM     23  F   UNL     1       7.824  -5.437  25.268  0.00  0.00    +0.000 F 
ATOM     24  C   UNL     1       7.231  -4.359  23.370  0.00  0.00    +0.000 A 
ATOM     25  C   UNL     1       6.670  -4.841  22.131  0.00  0.00    +0.000 A 
ATOM     26  F   UNL     1       7.499  -5.714  21.479  0.00  0.00    +0.000 F 
ATOM     27  C   UNL     1       5.420  -5.791  22.342  0.00  0.00    +0.000 A 
ENDBRANCH  17  24
ENDBRANCH   1  17
TORSDOF 3
ENDMDL
MODEL 6
REMARK VINA RESULT:      -8.1      2.557      6.637
REMARK  Name = 
REMARK  3 active torsions:
REMARK  status: ('A' for Active; 'I' for Inactive)
REMARK    1  A    between atoms: C_7  and  S_8
REMARK    2  A    between atoms: S_8  and  N_11
REMARK    3  A    between atoms: N_18  and  C_19
REMARK                            x       y       z     vdW  Elec       q    Type
REMARK                         _______ _______ _______ _____ _____    ______ ____
ROOT
ATOM      1  N   UNL     1       8.371  -2.210  25.533  0.00  0.00    +0.000 NA
ATOM      2  C   UNL     1       7.325  -2.700  26.219  0.00  0.00    +0.000 C 
ATOM      3  C   UNL     1       7.330  -4.194  26.518  0.00  0.00    +0.000 C 
ATOM      4  N   UNL     1       7.874  -4.875  25.306  0.00  0.00    +0.000 N 
ATOM      5  C   UNL     1       9.199  -4.496  25.003  0.00  0.00    +0.000 C 
ATOM      6  C   UNL     1       9.307  -2.967  24.875  0.00  0.00    +0.000 C 
ENDROOT
BRANCH   4   7
ATOM      7  C   UNL     1       6.924  -5.446  24.545  0.00  0.00    +0.000 A 
ATOM      8  C   UNL     1       7.504  -5.246  23.164  0.00  0.00    +0.000 A 
ATOM      9  C   UNL     1       6.916  -4.404  22.135  0.00  0.00    +0.000 A 
ATOM     10  C   UNL     1       5.452  -4.249  22.444  0.00  0.00    +0.000 A 
ATOM     11  C   UNL     1       4.751  -4.190  23.554  0.00  0.00    +0.000 A 
ATOM     12  C   UNL     1       3.515  -4.799  23.520  0.00  0.00    +0.000 A 
ATOM     13  C   UNL     1       2.729  -5.970  23.260  0.00  0.00    +0.000 A 
ATOM     14  C   UNL     1       3.666  -6.830  24.109  0.00  0.00    +0.000 A 
ATOM     15  C   UNL     1       4.715  -6.468  24.822  0.00  0.00    +0.000 A 
ATOM     16  C   UNL     1       5.484  -5.244  24.461  0.00  0.00    +0.000 A 
ENDBRANCH   4   7
BRANCH   1  17
ATOM     17  S   UNL     1       8.128  -0.791  24.749  0.00  0.00    +0.000 S 
ATOM     18  O   UNL     1       7.104  -0.939  23.772  0.00  0.00    +0.000 OA
ATOM     19  O   UNL     1       7.883   0.232  25.755  0.00  0.00    +0.000 OA
BRANCH  17  24
ATOM     20  C   UNL     1      10.254   2.039  22.168  0.00  0.00    +0.000 A 
ATOM     21  C   UNL     1       9.506   0.807  21.710  0.00  0.00    +0.000 A 
ATOM     22  C   UNL     1       9.223  -0.416  22.458  0.00  0.00    +0.000 A 
ATOM     23  F   UNL     1      10.113  -1.308  21.961  0.00  0.00    +0.000 F 
ATOM     24  C   UNL     1       9.684  -0.282  23.930  0.00  0.00    +0.000 A 
ATOM     25  C   UNL     1      10.306   0.849  24.576  0.00  0.00    +0.000 A 
ATOM     26  F   UNL     1      11.623   0.627  24.879  0.00  0.00    +0.000 F 
ATOM     27  C   UNL     1      10.476   2.098  23.616  0.00  0.00    +0.000 A 
ENDBRANCH  17  24
ENDBRANCH   1  17
TORSDOF 3
ENDMDL
MODEL 7
REMARK VINA RESULT:      -8.1      2.809      7.008
REMARK  Name = 
REMARK  3 active torsions:
REMARK  status: ('A' for Active; 'I' for Inactive)
REMARK    1  A    between atoms: C_7  and  S_8
REMARK    2  A    between atoms: S_8  and  N_11
REMARK    3  A    between atoms: N_18  and  C_19
REMARK                            x       y       z     vdW  Elec       q    Type
REMARK                         _______ _______ _______ _____ _____    ______ ____
ROOT
ATOM      1  N   UNL     1       8.362  -1.286  23.700  0.00  0.00    +0.000 NA
ATOM      2  C   UNL     1       7.033  -1.482  23.729  0.00  0.00    +0.000 C 
ATOM      3  C   UNL     1       6.416  -1.855  25.070  0.00  0.00    +0.000 C 
ATOM      4  N   UNL     1       7.371  -2.786  25.742  0.00  0.00    +0.000 N 
ATOM      5  C   UNL     1       8.630  -2.202  25.999  0.00  0.00    +0.000 C 
ATOM      6  C   UNL     1       9.231  -1.627  24.706  0.00  0.00    +0.000 C 
ENDROOT
BRANCH   4   7
ATOM      7  C   UNL     1       6.995  -4.075  25.672  0.00  0.00    +0.000 A 
ATOM      8  C   UNL     1       8.086  -4.646  24.798  0.00  0.00    +0.000 A 
ATOM      9  C   UNL     1       7.879  -5.183  23.462  0.00  0.00    +0.000 A 
ATOM     10  C   UNL     1       6.435  -5.582  23.343  0.00  0.00    +0.000 A 
ATOM     11  C   UNL     1       5.311  -5.116  23.840  0.00  0.00    +0.000 A 
ATOM     12  C   UNL     1       4.363  -6.059  24.179  0.00  0.00    +0.000 A 
ATOM     13  C   UNL     1       4.018  -7.248  24.901  0.00  0.00    +0.000 A 
ATOM     14  C   UNL     1       4.614  -6.680  26.190  0.00  0.00    +0.000 A 
ATOM     15  C   UNL     1       5.138  -5.490  26.414  0.00  0.00    +0.000 A 
ATOM     16  C   UNL     1       5.739  -4.709  25.296  0.00  0.00    +0.000 A 
ENDBRANCH   4   7
BRANCH   1  17
ATOM     17  S   UNL     1       9.090  -1.433  22.239  0.00  0.00    +0.000 S 
ATOM     18  O   UNL     1      10.435  -1.869  22.404  0.00  0.00    +0.000 OA
ATOM     19  O   UNL     1       8.254  -2.294  21.415  0.00  0.00    +0.000 OA
BRANCH  17  24
ATOM     20  C   UNL     1       7.161   2.449  21.609  0.00  0.00    +0.000 A 
ATOM     21  C   UNL     1       6.864   1.174  20.850  0.00  0.00    +0.000 A 
ATOM     22  C   UNL     1       7.741   0.029  20.618  0.00  0.00    +0.000 A 
ATOM     23  F   UNL     1       8.136   0.185  19.333  0.00  0.00    +0.000 F 
ATOM     24  C   UNL     1       9.073   0.188  21.391  0.00  0.00    +0.000 A 
ATOM     25  C   UNL     1       9.487   1.270  22.252  0.00  0.00    +0.000 A 
ATOM     26  F   UNL     1      10.483   2.033  21.702  0.00  0.00    +0.000 F 
ATOM     27  C   UNL     1       8.378   2.388  22.423  0.00  0.00    +0.000 A 
ENDBRANCH  17  24
ENDBRANCH   1  17
TORSDOF 3
ENDMDL
MODEL 8
REMARK VINA RESULT:      -8.0      2.593      6.376
REMARK  Name = 
REMARK  3 active torsions:
REMARK  status: ('A' for Active; 'I' for Inactive)
REMARK    1  A    between atoms: C_7  and  S_8
REMARK    2  A    between atoms: S_8  and  N_11
REMARK    3  A    between atoms: N_18  and  C_19
REMARK                            x       y       z     vdW  Elec       q    Type
REMARK                         _______ _______ _______ _____ _____    ______ ____
ROOT
ATOM      1  N   UNL     1       8.794  -1.994  24.251  0.00  0.00    +0.000 NA
ATOM      2  C   UNL     1       7.580  -2.031  24.826  0.00  0.00    +0.000 C 
ATOM      3  C   UNL     1       7.299  -3.186  25.777  0.00  0.00    +0.000 C 
ATOM      4  N   UNL     1       7.933  -4.400  25.183  0.00  0.00    +0.000 N 
ATOM      5  C   UNL     1       9.334  -4.288  25.051  0.00  0.00    +0.000 C 
ATOM      6  C   UNL     1       9.701  -3.024  24.256  0.00  0.00    +0.000 C 
ENDROOT
BRANCH   4   7
ATOM      7  C   UNL     1       7.054  -5.219  24.581  0.00  0.00    +0.000 A 
ATOM      8  C   UNL     1       7.684  -5.361  23.215  0.00  0.00    +0.000 A 
ATOM      9  C   UNL     1       7.095  -4.872  21.978  0.00  0.00    +0.000 A 
ATOM     10  C   UNL     1       5.613  -4.740  22.192  0.00  0.00    +0.000 A 
ATOM     11  C   UNL     1       4.860  -4.430  23.223  0.00  0.00    +0.000 A 
ATOM     12  C   UNL     1       3.663  -5.109  23.322  0.00  0.00    +0.000 A 
ATOM     13  C   UNL     1       2.960  -6.357  23.369  0.00  0.00    +0.000 A 
ATOM     14  C   UNL     1       3.905  -6.889  24.447  0.00  0.00    +0.000 A 
ATOM     15  C   UNL     1       4.898  -6.277  25.064  0.00  0.00    +0.000 A 
ATOM     16  C   UNL     1       5.610  -5.146  24.404  0.00  0.00    +0.000 A 
ENDBRANCH   4   7
BRANCH   1  17
ATOM     17  S   UNL     1       8.919  -1.128  22.864  0.00  0.00    +0.000 S 
ATOM     18  O   UNL     1       9.680   0.053  23.091  0.00  0.00    +0.000 OA
ATOM     19  O   UNL     1       9.441  -2.017  21.836  0.00  0.00    +0.000 OA
BRANCH  17  24
ATOM     20  C   UNL     1       6.391   1.291  20.229  0.00  0.00    +0.000 A 
ATOM     21  C   UNL     1       6.865   1.682  21.611  0.00  0.00    +0.000 A 
ATOM     22  C   UNL     1       7.245   0.811  22.722  0.00  0.00    +0.000 A 
ATOM     23  F   UNL     1       6.175   0.866  23.550  0.00  0.00    +0.000 F 
ATOM     24  C   UNL     1       7.243  -0.674  22.285  0.00  0.00    +0.000 A 
ATOM     25  C   UNL     1       6.936  -1.227  20.988  0.00  0.00    +0.000 A 
ATOM     26  F   UNL     1       5.749  -1.910  20.972  0.00  0.00    +0.000 F 
ATOM     27  C   UNL     1       6.604  -0.121  19.902  0.00  0.00    +0.000 A 
ENDBRANCH  17  24
ENDBRANCH   1  17
TORSDOF 3
ENDMDL
MODEL 9
REMARK VINA RESULT:      -7.9      2.957      6.744
REMARK  Name = 
REMARK  3 active torsions:
REMARK  status: ('A' for Active; 'I' for Inactive)
REMARK    1  A    between atoms: C_7  and  S_8
REMARK    2  A    between atoms: S_8  and  N_11
REMARK    3  A    between atoms: N_18  and  C_19
REMARK                            x       y       z     vdW  Elec       q    Type
REMARK                         _______ _______ _______ _____ _____    ______ ____
ROOT
ATOM      1  N   UNL     1       8.829  -1.998  24.034  0.00  0.00    +0.000 NA
ATOM      2  C   UNL     1       7.575  -1.951  24.512  0.00  0.00    +0.000 C 
ATOM      3  C   UNL     1       7.195  -2.979  25.569  0.00  0.00    +0.000 C 
ATOM      4  N   UNL     1       7.847  -4.264  25.176  0.00  0.00    +0.000 N 
ATOM      5  C   UNL     1       9.256  -4.185  25.143  0.00  0.00    +0.000 C 
ATOM      6  C   UNL     1       9.711  -3.031  24.234  0.00  0.00    +0.000 C 
ENDROOT
BRANCH   4   7
ATOM      7  C   UNL     1       6.999  -5.138  24.607  0.00  0.00    +0.000 A 
ATOM      8  C   UNL     1       7.663  -5.351  23.267  0.00  0.00    +0.000 A 
ATOM      9  C   UNL     1       7.092  -4.953  21.990  0.00  0.00    +0.000 A 
ATOM     10  C   UNL     1       5.603  -4.842  22.163  0.00  0.00    +0.000 A 
ATOM     11  C   UNL     1       4.820  -4.486  23.157  0.00  0.00    +0.000 A 
ATOM     12  C   UNL     1       3.636  -5.185  23.273  0.00  0.00    +0.000 A 
ATOM     13  C   UNL     1       2.959  -6.443  23.383  0.00  0.00    +0.000 A 
ATOM     14  C   UNL     1       3.891  -6.885  24.513  0.00  0.00    +0.000 A 
ATOM     15  C   UNL     1       4.856  -6.213  25.110  0.00  0.00    +0.000 A 
ATOM     16  C   UNL     1       5.559  -5.110  24.396  0.00  0.00    +0.000 A 
ENDBRANCH   4   7
BRANCH   1  17
ATOM     17  S   UNL     1       9.079  -1.307  22.569  0.00  0.00    +0.000 S 
ATOM     18  O   UNL     1      10.273  -1.816  21.984  0.00  0.00    +0.000 OA
ATOM     19  O   UNL     1       7.871  -1.499  21.780  0.00  0.00    +0.000 OA
BRANCH  17  24
ATOM     20  C   UNL     1       7.540   2.403  24.316  0.00  0.00    +0.000 A 
ATOM     21  C   UNL     1       7.124   1.804  22.990  0.00  0.00    +0.000 A 
ATOM     22  C   UNL     1       7.886   0.918  22.113  0.00  0.00    +0.000 A 
ATOM     23  F   UNL     1       8.300   1.735  21.116  0.00  0.00    +0.000 F 
ATOM     24  C   UNL     1       9.224   0.505  22.773  0.00  0.00    +0.000 A 
ATOM     25  C   UNL     1       9.738   0.878  24.069  0.00  0.00    +0.000 A 
ATOM     26  F   UNL     1      10.805   1.733  23.990  0.00  0.00    +0.000 F 
ATOM     27  C   UNL     1       8.742   1.796  24.893  0.00  0.00    +0.000 A 
ENDBRANCH  17  24
ENDBRANCH   1  17
TORSDOF 3
ENDMDL
