MODEL 1
REMARK VINA RESULT:      -8.7      0.000      0.000
REMARK  Name = 
REMARK  6 active torsions:
REMARK  status: ('A' for Active; 'I' for Inactive)
REMARK    1  A    between atoms: C_5  and  S_6
REMARK    2  A    between atoms: S_6  and  N_9
REMARK    3  A    between atoms: C_17  and  C_19
REMARK    4  A    between atoms: C_19  and  N_22
REMARK    5  A    between atoms: C_26  and  S_27
REMARK    6  A    between atoms: S_27  and  N_30
REMARK                            x       y       z     vdW  Elec       q    Type
REMARK                         _______ _______ _______ _____ _____    ______ ____
ROOT
ATOM      1  N   UNL     1       8.516  -0.707  24.060  0.00  0.00    +0.000 NA
ATOM      2  C   UNL     1       7.161  -0.987  23.896  0.00  0.00    +0.000 C 
ATOM      3  C   UNL     1       7.012  -2.410  23.326  0.00  0.00    +0.000 C 
ATOM      4  N   UNL     1       7.606  -3.332  24.320  0.00  0.00    +0.000 N 
ATOM      5  C   UNL     1       7.579  -4.634  23.977  0.00  0.00    +0.000 C 
ATOM      6  O   UNL     1       8.649  -5.242  23.939  0.00  0.00    +0.000 OA
ATOM      7  C   UNL     1       8.429  -2.804  25.358  0.00  0.00    +0.000 C 
ATOM      8  C   UNL     1       9.079  -1.463  25.108  0.00  0.00    +0.000 C 
ENDROOT
BRANCH   1   9
ATOM      9  S   UNL     1       9.148   0.651  23.686  0.00  0.00    +0.000 S 
ATOM     10  O   UNL     1      10.567   0.693  24.130  0.00  0.00    +0.000 OA
ATOM     11  O   UNL     1       8.417   1.706  24.533  0.00  0.00    +0.000 OA
BRANCH   9  14
ATOM     12  C   UNL     1       6.703   1.568  20.998  0.00  0.00    +0.000 A 
ATOM     13  C   UNL     1       7.855   2.008  21.920  0.00  0.00    +0.000 A 
ATOM     14  C   UNL     1       9.127   1.345  22.116  0.00  0.00    +0.000 A 
ATOM     15  C   UNL     1       9.129   0.150  21.194  0.00  0.00    +0.000 A 
ATOM     16  C   UNL     1       8.250  -0.523  20.352  0.00  0.00    +0.000 A 
ATOM     17  C   UNL     1       7.004   0.400  20.204  0.00  0.00    +0.000 A 
ATOM     18 CL   UNL     1       7.097   0.793  18.491  0.00  0.00    +0.000 Cl
ENDBRANCH   9  14
ENDBRANCH   1   9
BRANCH   5  19
ATOM     19  C   UNL     1       6.208  -5.373  23.865  0.00  0.00    +0.000 C 
BRANCH  19  20
ATOM     20  N   UNL     1       5.066  -4.801  24.422  0.00  0.00    +0.000 N 
ATOM     21  C   UNL     1       4.885  -5.231  25.508  0.00  0.00    +0.000 A 
ATOM     22  C   UNL     1       5.343  -6.355  26.100  0.00  0.00    +0.000 A 
ATOM     23  C   UNL     1       5.014  -6.775  27.444  0.00  0.00    +0.000 A 
ATOM     24  C   UNL     1       3.813  -5.952  27.915  0.00  0.00    +0.000 A 
ATOM     25  C   UNL     1       3.084  -4.920  27.262  0.00  0.00    +0.000 A 
ATOM     26  C   UNL     1       3.401  -4.804  25.883  0.00  0.00    +0.000 A 
ATOM     27  C   UNL     1       2.225  -5.356  24.915  0.00  0.00    +0.000 C 
ATOM     28  C   UNL     1       2.709  -5.035  23.580  0.00  0.00    +0.000 C 
ATOM     29  C   UNL     1       4.077  -4.337  23.614  0.00  0.00    +0.000 C 
BRANCH  23  30
ATOM     30  S   UNL     1       6.236  -6.237  28.548  0.00  0.00    +0.000 S 
ATOM     31  O   UNL     1       6.583  -7.387  29.350  0.00  0.00    +0.000 OA
ATOM     32  O   UNL     1       5.850  -5.067  29.267  0.00  0.00    +0.000 OA
BRANCH  30  33
ATOM     33  N   UNL     1       7.588  -5.866  27.659  0.00  0.00    +0.000 NA
ATOM     34  H   UNL     1       7.402  -6.054  26.682  0.00  0.00    +0.000 HD
ATOM     35  H   UNL     1       7.760  -4.864  27.697  0.00  0.00    +0.000 HD
ENDBRANCH  30  33
ENDBRANCH  23  30
ENDBRANCH  19  20
ENDBRANCH   5  19
TORSDOF 6
ENDMDL
MODEL 2
REMARK VINA RESULT:      -8.5      2.253      3.618
REMARK  Name = 
REMARK  6 active torsions:
REMARK  status: ('A' for Active; 'I' for Inactive)
REMARK    1  A    between atoms: C_5  and  S_6
REMARK    2  A    between atoms: S_6  and  N_9
REMARK    3  A    between atoms: C_17  and  C_19
REMARK    4  A    between atoms: C_19  and  N_22
REMARK    5  A    between atoms: C_26  and  S_27
REMARK    6  A    between atoms: S_27  and  N_30
REMARK                            x       y       z     vdW  Elec       q    Type
REMARK                         _______ _______ _______ _____ _____    ______ ____
ROOT
ATOM      1  N   UNL     1       9.162   0.525  24.799  0.00  0.00    +0.000 NA
ATOM      2  C   UNL     1       7.774   0.401  24.802  0.00  0.00    +0.000 C 
ATOM      3  C   UNL     1       7.408  -1.094  24.856  0.00  0.00    +0.000 C 
ATOM      4  N   UNL     1       7.968  -1.626  26.118  0.00  0.00    +0.000 N 
ATOM      5  C   UNL     1       7.756  -2.939  26.327  0.00  0.00    +0.000 C 
ATOM      6  O   UNL     1       8.739  -3.659  26.506  0.00  0.00    +0.000 OA
ATOM      7  C   UNL     1       8.933  -0.856  26.833  0.00  0.00    +0.000 C 
ATOM      8  C   UNL     1       9.717   0.170  26.047  0.00  0.00    +0.000 C 
ENDROOT
BRANCH   1   9
ATOM      9  S   UNL     1       9.919   1.520  23.894  0.00  0.00    +0.000 S 
ATOM     10  O   UNL     1      11.376   1.470  24.187  0.00  0.00    +0.000 OA
ATOM     11  O   UNL     1       9.457   2.922  24.326  0.00  0.00    +0.000 OA
BRANCH   9  14
ATOM     12  C   UNL     1       7.285   1.501  21.228  0.00  0.00    +0.000 A 
ATOM     13  C   UNL     1       8.515   2.193  21.842  0.00  0.00    +0.000 A 
ATOM     14  C   UNL     1       9.785   1.588  22.183  0.00  0.00    +0.000 A 
ATOM     15  C   UNL     1       9.690   0.139  21.772  0.00  0.00    +0.000 A 
ATOM     16  C   UNL     1       8.733  -0.753  21.300  0.00  0.00    +0.000 A 
ATOM     17  C   UNL     1       7.498   0.110  20.905  0.00  0.00    +0.000 A 
ATOM     18 CL   UNL     1       7.460  -0.160  19.167  0.00  0.00    +0.000 Cl
ENDBRANCH   9  14
ENDBRANCH   1   9
BRANCH   5  19
ATOM     19  C   UNL     1       6.302  -3.456  26.562  0.00  0.00    +0.000 C 
BRANCH  19  20
ATOM     20  N   UNL     1       5.989  -4.788  26.299  0.00  0.00    +0.000 N 
ATOM     21  C   UNL     1       5.610  -4.904  25.186  0.00  0.00    +0.000 A 
ATOM     22  C   UNL     1       5.119  -3.991  24.321  0.00  0.00    +0.000 A 
ATOM     23  C   UNL     1       4.661  -4.284  22.981  0.00  0.00    +0.000 A 
ATOM     24  C   UNL     1       4.490  -5.800  22.860  0.00  0.00    +0.000 A 
ATOM     25  C   UNL     1       4.728  -6.837  23.805  0.00  0.00    +0.000 A 
ATOM     26  C   UNL     1       4.950  -6.349  25.120  0.00  0.00    +0.000 A 
ATOM     27  C   UNL     1       3.700  -6.618  26.114  0.00  0.00    +0.000 C 
ATOM     28  C   UNL     1       4.189  -6.152  27.404  0.00  0.00    +0.000 C 
ATOM     29  C   UNL     1       5.624  -5.612  27.316  0.00  0.00    +0.000 C 
BRANCH  23  30
ATOM     30  S   UNL     1       5.940  -4.005  21.845  0.00  0.00    +0.000 S 
ATOM     31  O   UNL     1       5.889  -5.104  20.910  0.00  0.00    +0.000 OA
ATOM     32  O   UNL     1       7.198  -3.781  22.480  0.00  0.00    +0.000 OA
BRANCH  30  33
ATOM     33  N   UNL     1       5.554  -2.642  20.980  0.00  0.00    +0.000 NA
ATOM     34  H   UNL     1       4.551  -2.505  21.009  0.00  0.00    +0.000 HD
ATOM     35  H   UNL     1       5.936  -1.822  21.444  0.00  0.00    +0.000 HD
ENDBRANCH  30  33
ENDBRANCH  23  30
ENDBRANCH  19  20
ENDBRANCH   5  19
TORSDOF 6
ENDMDL
MODEL 3
REMARK VINA RESULT:      -8.5      3.735      8.522
REMARK  Name = 
REMARK  6 active torsions:
REMARK  status: ('A' for Active; 'I' for Inactive)
REMARK    1  A    between atoms: C_5  and  S_6
REMARK    2  A    between atoms: S_6  and  N_9
REMARK    3  A    between atoms: C_17  and  C_19
REMARK    4  A    between atoms: C_19  and  N_22
REMARK    5  A    between atoms: C_26  and  S_27
REMARK    6  A    between atoms: S_27  and  N_30
REMARK                            x       y       z     vdW  Elec       q    Type
REMARK                         _______ _______ _______ _____ _____    ______ ____
ROOT
ATOM      1  N   UNL     1       5.225  -5.126  23.709  0.00  0.00    +0.000 NA
ATOM      2  C   UNL     1       5.104  -3.936  22.995  0.00  0.00    +0.000 C 
ATOM      3  C   UNL     1       6.261  -2.999  23.386  0.00  0.00    +0.000 C 
ATOM      4  N   UNL     1       7.515  -3.690  23.013  0.00  0.00    +0.000 N 
ATOM      5  C   UNL     1       8.645  -3.016  23.302  0.00  0.00    +0.000 C 
ATOM      6  O   UNL     1       9.478  -3.570  24.021  0.00  0.00    +0.000 OA
ATOM      7  C   UNL     1       7.480  -5.082  22.706  0.00  0.00    +0.000 C 
ATOM      8  C   UNL     1       6.330  -5.884  23.269  0.00  0.00    +0.000 C 
ENDROOT
BRANCH   1   9
ATOM      9  S   UNL     1       4.025  -5.849  24.356  0.00  0.00    +0.000 S 
ATOM     10  O   UNL     1       4.186  -7.322  24.227  0.00  0.00    +0.000 OA
ATOM     11  O   UNL     1       2.801  -5.489  23.497  0.00  0.00    +0.000 OA
BRANCH   9  14
ATOM     12  C   UNL     1       4.925  -3.871  27.410  0.00  0.00    +0.000 A 
ATOM     13  C   UNL     1       3.858  -4.246  26.365  0.00  0.00    +0.000 A 
ATOM     14  C   UNL     1       3.459  -5.575  25.954  0.00  0.00    +0.000 A 
ATOM     15  C   UNL     1       4.265  -6.539  26.791  0.00  0.00    +0.000 A 
ATOM     16  C   UNL     1       5.313  -6.507  27.703  0.00  0.00    +0.000 A 
ATOM     17  C   UNL     1       5.510  -5.009  28.080  0.00  0.00    +0.000 A 
ATOM     18 CL   UNL     1       5.074  -5.046  29.784  0.00  0.00    +0.000 Cl
ENDBRANCH   9  14
ENDBRANCH   1   9
BRANCH   5  19
ATOM     19  C   UNL     1       8.960  -1.684  22.551  0.00  0.00    +0.000 C 
BRANCH  19  20
ATOM     20  N   UNL     1       8.323  -0.506  22.932  0.00  0.00    +0.000 N 
ATOM     21  C   UNL     1       7.801  -0.006  21.998  0.00  0.00    +0.000 A 
ATOM     22  C   UNL     1       8.012  -0.171  20.675  0.00  0.00    +0.000 A 
ATOM     23  C   UNL     1       7.308   0.536  19.629  0.00  0.00    +0.000 A 
ATOM     24  C   UNL     1       6.582   1.723  20.267  0.00  0.00    +0.000 A 
ATOM     25  C   UNL     1       6.511   2.143  21.625  0.00  0.00    +0.000 A 
ATOM     26  C   UNL     1       7.438   1.470  22.463  0.00  0.00    +0.000 A 
ATOM     27  C   UNL     1       8.678   2.409  22.915  0.00  0.00    +0.000 C 
ATOM     28  C   UNL     1       9.419   1.565  23.843  0.00  0.00    +0.000 C 
ATOM     29  C   UNL     1       8.767   0.185  24.015  0.00  0.00    +0.000 C 
BRANCH  23  30
ATOM     30  S   UNL     1       5.968  -0.410  19.073  0.00  0.00    +0.000 S 
ATOM     31  O   UNL     1       5.849  -1.514  19.996  0.00  0.00    +0.000 OA
ATOM     32  O   UNL     1       6.077  -0.758  17.694  0.00  0.00    +0.000 OA
BRANCH  30  33
ATOM     33  N   UNL     1       4.595   0.503  19.263  0.00  0.00    +0.000 NA
ATOM     34  H   UNL     1       4.109   0.556  18.376  0.00  0.00    +0.000 HD
ATOM     35  H   UNL     1       3.945   0.021  19.879  0.00  0.00    +0.000 HD
ENDBRANCH  30  33
ENDBRANCH  23  30
ENDBRANCH  19  20
ENDBRANCH   5  19
TORSDOF 6
ENDMDL
MODEL 4
REMARK VINA RESULT:      -8.2      3.740      8.892
REMARK  Name = 
REMARK  6 active torsions:
REMARK  status: ('A' for Active; 'I' for Inactive)
REMARK    1  A    between atoms: C_5  and  S_6
REMARK    2  A    between atoms: S_6  and  N_9
REMARK    3  A    between atoms: C_17  and  C_19
REMARK    4  A    between atoms: C_19  and  N_22
REMARK    5  A    between atoms: C_26  and  S_27
REMARK    6  A    between atoms: S_27  and  N_30
REMARK                            x       y       z     vdW  Elec       q    Type
REMARK                         _______ _______ _______ _____ _____    ______ ____
ROOT
ATOM      1  N   UNL     1       6.541  -4.553  25.835  0.00  0.00    +0.000 NA
ATOM      2  C   UNL     1       6.029  -3.537  25.031  0.00  0.00    +0.000 C 
ATOM      3  C   UNL     1       7.166  -2.564  24.671  0.00  0.00    +0.000 C 
ATOM      4  N   UNL     1       8.175  -3.346  23.922  0.00  0.00    +0.000 N 
ATOM      5  C   UNL     1       9.263  -2.652  23.536  0.00  0.00    +0.000 C 
ATOM      6  O   UNL     1      10.366  -3.060  23.901  0.00  0.00    +0.000 OA
ATOM      7  C   UNL     1       8.112  -4.770  23.944  0.00  0.00    +0.000 C 
ATOM      8  C   UNL     1       7.391  -5.411  25.108  0.00  0.00    +0.000 C 
ENDROOT
BRANCH   1   9
ATOM      9  S   UNL     1       5.806  -5.097  27.079  0.00  0.00    +0.000 S 
ATOM     10  O   UNL     1       4.911  -4.051  27.641  0.00  0.00    +0.000 OA
ATOM     11  O   UNL     1       6.891  -5.331  28.144  0.00  0.00    +0.000 OA
BRANCH   9  14
ATOM     12  C   UNL     1       2.272  -6.270  27.505  0.00  0.00    +0.000 A 
ATOM     13  C   UNL     1       3.562  -6.292  26.665  0.00  0.00    +0.000 A 
ATOM     14  C   UNL     1       4.907  -6.559  27.127  0.00  0.00    +0.000 A 
ATOM     15  C   UNL     1       4.798  -6.866  28.601  0.00  0.00    +0.000 A 
ATOM     16  C   UNL     1       3.836  -6.840  29.605  0.00  0.00    +0.000 A 
ATOM     17  C   UNL     1       2.469  -6.639  28.887  0.00  0.00    +0.000 A 
ATOM     18 CL   UNL     1       1.680  -8.167  29.263  0.00  0.00    +0.000 Cl
ENDBRANCH   9  14
ENDBRANCH   1   9
BRANCH   5  19
ATOM     19  C   UNL     1       9.115  -1.515  22.477  0.00  0.00    +0.000 C 
BRANCH  19  20
ATOM     20  N   UNL     1       8.472  -0.327  22.820  0.00  0.00    +0.000 N 
ATOM     21  C   UNL     1       7.906   0.114  21.882  0.00  0.00    +0.000 A 
ATOM     22  C   UNL     1       8.068  -0.119  20.562  0.00  0.00    +0.000 A 
ATOM     23  C   UNL     1       7.311   0.521  19.509  0.00  0.00    +0.000 A 
ATOM     24  C   UNL     1       6.590   1.728  20.113  0.00  0.00    +0.000 A 
ATOM     25  C   UNL     1       6.565   2.220  21.448  0.00  0.00    +0.000 A 
ATOM     26  C   UNL     1       7.536   1.608  22.283  0.00  0.00    +0.000 A 
ATOM     27  C   UNL     1       8.777   2.587  22.634  0.00  0.00    +0.000 C 
ATOM     28  C   UNL     1       9.568   1.807  23.575  0.00  0.00    +0.000 C 
ATOM     29  C   UNL     1       8.947   0.428  23.846  0.00  0.00    +0.000 C 
BRANCH  23  30
ATOM     30  S   UNL     1       5.966  -0.475  19.059  0.00  0.00    +0.000 S 
ATOM     31  O   UNL     1       5.840  -1.468  20.099  0.00  0.00    +0.000 OA
ATOM     32  O   UNL     1       6.076  -0.975  17.727  0.00  0.00    +0.000 OA
BRANCH  30  33
ATOM     33  N   UNL     1       4.598   0.461  19.142  0.00  0.00    +0.000 NA
ATOM     34  H   UNL     1       4.454   0.915  18.249  0.00  0.00    +0.000 HD
ATOM     35  H   UNL     1       3.782  -0.134  19.260  0.00  0.00    +0.000 HD
ENDBRANCH  30  33
ENDBRANCH  23  30
ENDBRANCH  19  20
ENDBRANCH   5  19
TORSDOF 6
ENDMDL
MODEL 5
REMARK VINA RESULT:      -7.9      1.808      2.455
REMARK  Name = 
REMARK  6 active torsions:
REMARK  status: ('A' for Active; 'I' for Inactive)
REMARK    1  A    between atoms: C_5  and  S_6
REMARK    2  A    between atoms: S_6  and  N_9
REMARK    3  A    between atoms: C_17  and  C_19
REMARK    4  A    between atoms: C_19  and  N_22
REMARK    5  A    between atoms: C_26  and  S_27
REMARK    6  A    between atoms: S_27  and  N_30
REMARK                            x       y       z     vdW  Elec       q    Type
REMARK                         _______ _______ _______ _____ _____    ______ ____
ROOT
ATOM      1  N   UNL     1       8.418   0.871  24.267  0.00  0.00    +0.000 NA
ATOM      2  C   UNL     1       7.236   0.159  24.460  0.00  0.00    +0.000 C 
ATOM      3  C   UNL     1       7.447  -1.294  23.996  0.00  0.00    +0.000 C 
ATOM      4  N   UNL     1       8.524  -1.859  24.839  0.00  0.00    +0.000 N 
ATOM      5  C   UNL     1       8.858  -3.133  24.558  0.00  0.00    +0.000 C 
ATOM      6  O   UNL     1      10.032  -3.372  24.273  0.00  0.00    +0.000 OA
ATOM      7  C   UNL     1       9.335  -0.981  25.617  0.00  0.00    +0.000 C 
ATOM      8  C   UNL     1       9.424   0.458  25.165  0.00  0.00    +0.000 C 
ENDROOT
BRANCH   1   9
ATOM      9  S   UNL     1       8.456   2.306  23.699  0.00  0.00    +0.000 S 
ATOM     10  O   UNL     1       9.690   3.001  24.153  0.00  0.00    +0.000 OA
ATOM     11  O   UNL     1       7.290   3.055  24.363  0.00  0.00    +0.000 OA
BRANCH   9  14
ATOM     12  C   UNL     1       5.998   1.866  20.904  0.00  0.00    +0.000 A 
ATOM     13  C   UNL     1       6.859   2.825  21.747  0.00  0.00    +0.000 A 
ATOM     14  C   UNL     1       8.271   2.711  22.041  0.00  0.00    +0.000 A 
ATOM     15  C   UNL     1       8.759   1.481  21.313  0.00  0.00    +0.000 A 
ATOM     16  C   UNL     1       8.231   0.420  20.586  0.00  0.00    +0.000 A 
ATOM     17  C   UNL     1       6.746   0.789  20.299  0.00  0.00    +0.000 A 
ATOM     18 CL   UNL     1       6.785   0.939  18.546  0.00  0.00    +0.000 Cl
ENDBRANCH   9  14
ENDBRANCH   1   9
BRANCH   5  19
ATOM     19  C   UNL     1       7.826  -4.275  24.822  0.00  0.00    +0.000 C 
BRANCH  19  20
ATOM     20  N   UNL     1       6.831  -4.539  23.884  0.00  0.00    +0.000 N 
ATOM     21  C   UNL     1       5.968  -5.178  24.376  0.00  0.00    +0.000 A 
ATOM     22  C   UNL     1       5.960  -5.942  25.489  0.00  0.00    +0.000 A 
ATOM     23  C   UNL     1       4.823  -6.699  25.965  0.00  0.00    +0.000 A 
ATOM     24  C   UNL     1       3.799  -6.777  24.831  0.00  0.00    +0.000 A 
ATOM     25  C   UNL     1       3.827  -6.227  23.519  0.00  0.00    +0.000 A 
ATOM     26  C   UNL     1       5.102  -5.718  23.157  0.00  0.00    +0.000 A 
ATOM     27  C   UNL     1       5.874  -6.651  22.082  0.00  0.00    +0.000 C 
ATOM     28  C   UNL     1       7.077  -5.890  21.777  0.00  0.00    +0.000 C 
ATOM     29  C   UNL     1       7.138  -4.569  22.560  0.00  0.00    +0.000 C 
BRANCH  23  30
ATOM     30  S   UNL     1       3.946  -5.776  27.139  0.00  0.00    +0.000 S 
ATOM     31  O   UNL     1       3.229  -6.736  27.946  0.00  0.00    +0.000 OA
ATOM     32  O   UNL     1       3.159  -4.743  26.549  0.00  0.00    +0.000 OA
BRANCH  30  33
ATOM     33  N   UNL     1       5.055  -5.061  28.146  0.00  0.00    +0.000 NA
ATOM     34  H   UNL     1       5.176  -5.640  28.968  0.00  0.00    +0.000 HD
ATOM     35  H   UNL     1       5.970  -5.057  27.702  0.00  0.00    +0.000 HD
ENDBRANCH  30  33
ENDBRANCH  23  30
ENDBRANCH  19  20
ENDBRANCH   5  19
TORSDOF 6
ENDMDL
MODEL 6
REMARK VINA RESULT:      -7.8      3.182      8.213
REMARK  Name = 
REMARK  6 active torsions:
REMARK  status: ('A' for Active; 'I' for Inactive)
REMARK    1  A    between atoms: C_5  and  S_6
REMARK    2  A    between atoms: S_6  and  N_9
REMARK    3  A    between atoms: C_17  and  C_19
REMARK    4  A    between atoms: C_19  and  N_22
REMARK    5  A    between atoms: C_26  and  S_27
REMARK    6  A    between atoms: S_27  and  N_30
REMARK                            x       y       z     vdW  Elec       q    Type
REMARK                         _______ _______ _______ _____ _____    ______ ____
ROOT
ATOM      1  N   UNL     1       5.908  -3.869  26.201  0.00  0.00    +0.000 NA
ATOM      2  C   UNL     1       6.233  -3.454  24.911  0.00  0.00    +0.000 C 
ATOM      3  C   UNL     1       5.537  -2.110  24.629  0.00  0.00    +0.000 C 
ATOM      4  N   UNL     1       6.058  -1.143  25.621  0.00  0.00    +0.000 N 
ATOM      5  C   UNL     1       5.540   0.097  25.535  0.00  0.00    +0.000 C 
ATOM      6  O   UNL     1       4.994   0.564  26.535  0.00  0.00    +0.000 OA
ATOM      7  C   UNL     1       6.772  -1.625  26.758  0.00  0.00    +0.000 C 
ATOM      8  C   UNL     1       6.519  -3.055  27.177  0.00  0.00    +0.000 C 
ENDROOT
BRANCH   1   9
ATOM      9  S   UNL     1       5.552  -5.329  26.553  0.00  0.00    +0.000 S 
ATOM     10  O   UNL     1       5.351  -5.466  28.020  0.00  0.00    +0.000 OA
ATOM     11  O   UNL     1       6.803  -6.162  26.226  0.00  0.00    +0.000 OA
BRANCH   9  14
ATOM     12  C   UNL     1       4.071  -5.947  23.165  0.00  0.00    +0.000 A 
ATOM     13  C   UNL     1       4.672  -6.537  24.455  0.00  0.00    +0.000 A 
ATOM     14  C   UNL     1       4.292  -6.237  25.819  0.00  0.00    +0.000 A 
ATOM     15  C   UNL     1       3.145  -5.258  25.736  0.00  0.00    +0.000 A 
ATOM     16  C   UNL     1       2.476  -4.513  24.772  0.00  0.00    +0.000 A 
ATOM     17  C   UNL     1       2.956  -5.058  23.394  0.00  0.00    +0.000 A 
ATOM     18 CL   UNL     1       1.455  -5.736  22.776  0.00  0.00    +0.000 Cl
ENDBRANCH   9  14
ENDBRANCH   1   9
BRANCH   5  19
ATOM     19  C   UNL     1       5.843   0.972  24.278  0.00  0.00    +0.000 C 
BRANCH  19  20
ATOM     20  N   UNL     1       7.152   1.360  24.003  0.00  0.00    +0.000 N 
ATOM     21  C   UNL     1       7.500   0.912  22.967  0.00  0.00    +0.000 A 
ATOM     22  C   UNL     1       7.020  -0.125  22.248  0.00  0.00    +0.000 A 
ATOM     23  C   UNL     1       7.569  -0.585  20.992  0.00  0.00    +0.000 A 
ATOM     24  C   UNL     1       8.954   0.042  20.824  0.00  0.00    +0.000 A 
ATOM     25  C   UNL     1       9.669   0.946  21.658  0.00  0.00    +0.000 A 
ATOM     26  C   UNL     1       9.078   1.104  22.939  0.00  0.00    +0.000 A 
ATOM     27  C   UNL     1       9.915   0.373  24.117  0.00  0.00    +0.000 C 
ATOM     28  C   UNL     1       9.204   0.760  25.327  0.00  0.00    +0.000 C 
ATOM     29  C   UNL     1       7.998   1.662  25.024  0.00  0.00    +0.000 C 
BRANCH  23  30
ATOM     30  S   UNL     1       6.715   0.140  19.671  0.00  0.00    +0.000 S 
ATOM     31  O   UNL     1       7.631   0.135  18.554  0.00  0.00    +0.000 OA
ATOM     32  O   UNL     1       6.151   1.405  20.011  0.00  0.00    +0.000 OA
BRANCH  30  33
ATOM     33  N   UNL     1       5.473  -0.879  19.256  0.00  0.00    +0.000 NA
ATOM     34  H   UNL     1       5.635  -1.234  18.321  0.00  0.00    +0.000 HD
ATOM     35  H   UNL     1       5.494  -1.705  19.848  0.00  0.00    +0.000 HD
ENDBRANCH  30  33
ENDBRANCH  23  30
ENDBRANCH  19  20
ENDBRANCH   5  19
TORSDOF 6
ENDMDL
MODEL 7
REMARK VINA RESULT:      -7.7      3.368      8.086
REMARK  Name = 
REMARK  6 active torsions:
REMARK  status: ('A' for Active; 'I' for Inactive)
REMARK    1  A    between atoms: C_5  and  S_6
REMARK    2  A    between atoms: S_6  and  N_9
REMARK    3  A    between atoms: C_17  and  C_19
REMARK    4  A    between atoms: C_19  and  N_22
REMARK    5  A    between atoms: C_26  and  S_27
REMARK    6  A    between atoms: S_27  and  N_30
REMARK                            x       y       z     vdW  Elec       q    Type
REMARK                         _______ _______ _______ _____ _____    ______ ____
ROOT
ATOM      1  N   UNL     1       5.883  -4.372  23.607  0.00  0.00    +0.000 NA
ATOM      2  C   UNL     1       5.693  -3.020  23.885  0.00  0.00    +0.000 C 
ATOM      3  C   UNL     1       6.985  -2.451  24.500  0.00  0.00    +0.000 C 
ATOM      4  N   UNL     1       8.050  -2.617  23.486  0.00  0.00    +0.000 N 
ATOM      5  C   UNL     1       9.269  -2.185  23.863  0.00  0.00    +0.000 C 
ATOM      6  O   UNL     1      10.201  -2.989  23.830  0.00  0.00    +0.000 OA
ATOM      7  C   UNL     1       7.826  -3.480  22.373  0.00  0.00    +0.000 C 
ATOM      8  C   UNL     1       6.782  -4.560  22.536  0.00  0.00    +0.000 C 
ENDROOT
BRANCH   1   9
ATOM      9  S   UNL     1       4.818  -5.451  23.895  0.00  0.00    +0.000 S 
ATOM     10  O   UNL     1       5.141  -6.699  23.154  0.00  0.00    +0.000 OA
ATOM     11  O   UNL     1       3.509  -4.929  23.279  0.00  0.00    +0.000 OA
BRANCH   9  14
ATOM     12  C   UNL     1       4.101  -3.986  27.270  0.00  0.00    +0.000 A 
ATOM     13  C   UNL     1       3.618  -4.857  26.096  0.00  0.00    +0.000 A 
ATOM     14  C   UNL     1       4.325  -5.950  25.462  0.00  0.00    +0.000 A 
ATOM     15  C   UNL     1       5.624  -6.109  26.215  0.00  0.00    +0.000 A 
ATOM     16  C   UNL     1       6.343  -5.453  27.208  0.00  0.00    +0.000 A 
ATOM     17  C   UNL     1       5.375  -4.395  27.814  0.00  0.00    +0.000 A 
ATOM     18 CL   UNL     1       5.205  -5.016  29.452  0.00  0.00    +0.000 Cl
ENDBRANCH   9  14
ENDBRANCH   1   9
BRANCH   5  19
ATOM     19  C   UNL     1       9.504  -0.660  24.101  0.00  0.00    +0.000 C 
BRANCH  19  20
ATOM     20  N   UNL     1       9.411   0.231  23.034  0.00  0.00    +0.000 N 
ATOM     21  C   UNL     1       8.631   1.082  23.282  0.00  0.00    +0.000 A 
ATOM     22  C   UNL     1       7.631   1.127  24.188  0.00  0.00    +0.000 A 
ATOM     23  C   UNL     1       6.724   2.239  24.367  0.00  0.00    +0.000 A 
ATOM     24  C   UNL     1       6.856   3.156  23.149  0.00  0.00    +0.000 A 
ATOM     25  C   UNL     1       7.695   3.060  22.003  0.00  0.00    +0.000 A 
ATOM     26  C   UNL     1       8.341   1.800  21.894  0.00  0.00    +0.000 A 
ATOM     27  C   UNL     1       7.725   0.874  20.717  0.00  0.00    +0.000 C 
ATOM     28  C   UNL     1       8.600  -0.291  20.712  0.00  0.00    +0.000 C 
ATOM     29  C   UNL     1       9.704  -0.188  21.774  0.00  0.00    +0.000 C 
BRANCH  23  30
ATOM     30  S   UNL     1       7.303   3.278  25.626  0.00  0.00    +0.000 S 
ATOM     31  O   UNL     1       6.240   4.221  25.885  0.00  0.00    +0.000 OA
ATOM     32  O   UNL     1       8.580   3.841  25.330  0.00  0.00    +0.000 OA
BRANCH  30  33
ATOM     33  N   UNL     1       7.455   2.363  27.002  0.00  0.00    +0.000 NA
ATOM     34  H   UNL     1       7.900   1.484  26.767  0.00  0.00    +0.000 HD
ATOM     35  H   UNL     1       8.104   2.812  27.643  0.00  0.00    +0.000 HD
ENDBRANCH  30  33
ENDBRANCH  23  30
ENDBRANCH  19  20
ENDBRANCH   5  19
TORSDOF 6
ENDMDL
MODEL 8
REMARK VINA RESULT:      -7.6      2.221      2.451
REMARK  Name = 
REMARK  6 active torsions:
REMARK  status: ('A' for Active; 'I' for Inactive)
REMARK    1  A    between atoms: C_5  and  S_6
REMARK    2  A    between atoms: S_6  and  N_9
REMARK    3  A    between atoms: C_17  and  C_19
REMARK    4  A    between atoms: C_19  and  N_22
REMARK    5  A    between atoms: C_26  and  S_27
REMARK    6  A    between atoms: S_27  and  N_30
REMARK                            x       y       z     vdW  Elec       q    Type
REMARK                         _______ _______ _______ _____ _____    ______ ____
ROOT
ATOM      1  N   UNL     1       8.532  -1.354  23.820  0.00  0.00    +0.000 NA
ATOM      2  C   UNL     1       7.204  -1.564  24.185  0.00  0.00    +0.000 C 
ATOM      3  C   UNL     1       6.691  -2.838  23.490  0.00  0.00    +0.000 C 
ATOM      4  N   UNL     1       7.533  -3.956  23.971  0.00  0.00    +0.000 N 
ATOM      5  C   UNL     1       7.235  -5.161  23.448  0.00  0.00    +0.000 C 
ATOM      6  O   UNL     1       8.131  -5.773  22.866  0.00  0.00    +0.000 OA
ATOM      7  C   UNL     1       8.754  -3.668  24.651  0.00  0.00    +0.000 C 
ATOM      8  C   UNL     1       9.386  -2.320  24.392  0.00  0.00    +0.000 C 
ENDROOT
BRANCH   1   9
ATOM      9  S   UNL     1       9.100   0.036  23.462  0.00  0.00    +0.000 S 
ATOM     10  O   UNL     1       8.280   0.662  22.391  0.00  0.00    +0.000 OA
ATOM     11  O   UNL     1      10.480  -0.218  22.833  0.00  0.00    +0.000 OA
BRANCH   9  14
ATOM     12  C   UNL     1       8.147   3.596  24.148  0.00  0.00    +0.000 A 
ATOM     13  C   UNL     1       8.270   2.153  24.672  0.00  0.00    +0.000 A 
ATOM     14  C   UNL     1       9.425   1.285  24.595  0.00  0.00    +0.000 A 
ATOM     15  C   UNL     1      10.519   2.091  23.937  0.00  0.00    +0.000 A 
ATOM     16  C   UNL     1      10.677   3.321  23.307  0.00  0.00    +0.000 A 
ATOM     17  C   UNL     1       9.373   4.122  23.594  0.00  0.00    +0.000 A 
ATOM     18 CL   UNL     1      10.011   5.435  24.577  0.00  0.00    +0.000 Cl
ENDBRANCH   9  14
ENDBRANCH   1   9
BRANCH   5  19
ATOM     19  C   UNL     1       5.865  -5.829  23.786  0.00  0.00    +0.000 C 
BRANCH  19  20
ATOM     20  N   UNL     1       4.854  -5.074  24.376  0.00  0.00    +0.000 N 
ATOM     21  C   UNL     1       4.732  -5.375  25.512  0.00  0.00    +0.000 A 
ATOM     22  C   UNL     1       5.117  -6.485  26.177  0.00  0.00    +0.000 A 
ATOM     23  C   UNL     1       4.876  -6.734  27.581  0.00  0.00    +0.000 A 
ATOM     24  C   UNL     1       3.825  -5.732  28.065  0.00  0.00    +0.000 A 
ATOM     25  C   UNL     1       3.155  -4.686  27.372  0.00  0.00    +0.000 A 
ATOM     26  C   UNL     1       3.348  -4.739  25.966  0.00  0.00    +0.000 A 
ATOM     27  C   UNL     1       2.030  -5.234  25.166  0.00  0.00    +0.000 C 
ATOM     28  C   UNL     1       2.414  -5.100  23.768  0.00  0.00    +0.000 C 
ATOM     29  C   UNL     1       3.848  -4.572  23.611  0.00  0.00    +0.000 C 
BRANCH  23  30
ATOM     30  S   UNL     1       6.252  -6.246  28.514  0.00  0.00    +0.000 S 
ATOM     31  O   UNL     1       6.669  -7.416  29.251  0.00  0.00    +0.000 OA
ATOM     32  O   UNL     1       6.001  -5.075  29.290  0.00  0.00    +0.000 OA
BRANCH  30  33
ATOM     33  N   UNL     1       7.481  -5.903  27.454  0.00  0.00    +0.000 NA
ATOM     34  H   UNL     1       7.555  -4.899  27.347  0.00  0.00    +0.000 HD
ATOM     35  H   UNL     1       8.372  -6.181  27.860  0.00  0.00    +0.000 HD
ENDBRANCH  30  33
ENDBRANCH  23  30
ENDBRANCH  19  20
ENDBRANCH   5  19
TORSDOF 6
ENDMDL
MODEL 9
REMARK VINA RESULT:      -7.5      2.680      7.996
REMARK  Name = 
REMARK  6 active torsions:
REMARK  status: ('A' for Active; 'I' for Inactive)
REMARK    1  A    between atoms: C_5  and  S_6
REMARK    2  A    between atoms: S_6  and  N_9
REMARK    3  A    between atoms: C_17  and  C_19
REMARK    4  A    between atoms: C_19  and  N_22
REMARK    5  A    between atoms: C_26  and  S_27
REMARK    6  A    between atoms: S_27  and  N_30
REMARK                            x       y       z     vdW  Elec       q    Type
REMARK                         _______ _______ _______ _____ _____    ______ ____
ROOT
ATOM      1  N   UNL     1       6.988  -3.746  25.716  0.00  0.00    +0.000 NA
ATOM      2  C   UNL     1       6.869  -2.388  26.007  0.00  0.00    +0.000 C 
ATOM      3  C   UNL     1       8.234  -1.710  25.789  0.00  0.00    +0.000 C 
ATOM      4  N   UNL     1       8.580  -1.896  24.362  0.00  0.00    +0.000 N 
ATOM      5  C   UNL     1       9.765  -1.375  23.990  0.00  0.00    +0.000 C 
ATOM      6  O   UNL     1      10.591  -2.131  23.477  0.00  0.00    +0.000 OA
ATOM      7  C   UNL     1       7.856  -2.849  23.587  0.00  0.00    +0.000 C 
ATOM      8  C   UNL     1       7.166  -3.967  24.335  0.00  0.00    +0.000 C 
ENDROOT
BRANCH   1   9
ATOM      9  S   UNL     1       6.348  -4.853  26.580  0.00  0.00    +0.000 S 
ATOM     10  O   UNL     1       6.350  -4.450  28.011  0.00  0.00    +0.000 OA
ATOM     11  O   UNL     1       7.294  -6.062  26.489  0.00  0.00    +0.000 OA
BRANCH   9  14
ATOM     12  C   UNL     1       4.354  -6.321  23.766  0.00  0.00    +0.000 A 
ATOM     13  C   UNL     1       4.922  -6.485  25.188  0.00  0.00    +0.000 A 
ATOM     14  C   UNL     1       4.808  -5.556  26.292  0.00  0.00    +0.000 A 
ATOM     15  C   UNL     1       3.973  -4.402  25.793  0.00  0.00    +0.000 A 
ATOM     16  C   UNL     1       3.423  -3.950  24.598  0.00  0.00    +0.000 A 
ATOM     17  C   UNL     1       3.564  -5.126  23.587  0.00  0.00    +0.000 A 
ATOM     18 CL   UNL     1       1.870  -5.511  23.304  0.00  0.00    +0.000 Cl
ENDBRANCH   9  14
ENDBRANCH   1   9
BRANCH   5  19
ATOM     19  C   UNL     1       9.964   0.173  24.008  0.00  0.00    +0.000 C 
BRANCH  19  20
ATOM     20  N   UNL     1       9.563   0.936  22.913  0.00  0.00    +0.000 N 
ATOM     21  C   UNL     1       8.711   1.689  23.233  0.00  0.00    +0.000 A 
ATOM     22  C   UNL     1       7.876   1.678  24.294  0.00  0.00    +0.000 A 
ATOM     23  C   UNL     1       6.849   2.664  24.548  0.00  0.00    +0.000 A 
ATOM     24  C   UNL     1       6.639   3.470  23.265  0.00  0.00    +0.000 A 
ATOM     25  C   UNL     1       7.286   3.384  22.001  0.00  0.00    +0.000 A 
ATOM     26  C   UNL     1       8.094   2.223  21.869  0.00  0.00    +0.000 A 
ATOM     27  C   UNL     1       7.447   1.111  20.886  0.00  0.00    +0.000 C 
ATOM     28  C   UNL     1       8.478   0.086  20.810  0.00  0.00    +0.000 C 
ATOM     29  C   UNL     1       9.711   0.445  21.655  0.00  0.00    +0.000 C 
BRANCH  23  30
ATOM     30  S   UNL     1       7.455   3.889  25.612  0.00  0.00    +0.000 S 
ATOM     31  O   UNL     1       6.432   4.907  25.672  0.00  0.00    +0.000 OA
ATOM     32  O   UNL     1       8.760   4.336  25.247  0.00  0.00    +0.000 OA
BRANCH  30  33
ATOM     33  N   UNL     1       7.546   3.233  27.134  0.00  0.00    +0.000 NA
ATOM     34  H   UNL     1       8.462   3.424  27.521  0.00  0.00    +0.000 HD
ATOM     35  H   UNL     1       6.903   3.717  27.755  0.00  0.00    +0.000 HD
ENDBRANCH  30  33
ENDBRANCH  23  30
ENDBRANCH  19  20
ENDBRANCH   5  19
TORSDOF 6
ENDMDL
