MODEL 1
REMARK VINA RESULT:      -8.8      0.000      0.000
REMARK  Name = 
REMARK  5 active torsions:
REMARK  status: ('A' for Active; 'I' for Inactive)
REMARK    1  A    between atoms: C_11  and  N_13
REMARK    2  A    between atoms: N_13  and  C_49
REMARK    3  A    between atoms: C_14  and  C_16
REMARK    4  A    between atoms: C_16  and  C_19
REMARK    5  A    between atoms: C_31  and  C_33
REMARK                            x       y       z     vdW  Elec       q    Type
REMARK                         _______ _______ _______ _____ _____    ______ ____
ROOT
ATOM      1  C   UNL     1       7.268  -1.025  24.655  0.00  0.00    +0.000 C 
ENDROOT
BRANCH   1   2
ATOM      2  C   UNL     1       7.668   0.130  25.465  0.00  0.00    +0.000 C 
ATOM      3  O   UNL     1       8.421  -0.187  26.445  0.00  0.00    +0.000 OA
ATOM      4  N   UNL     1       7.722   1.459  25.139  0.00  0.00    +0.000 N 
ATOM      5  C   UNL     1       7.244   2.403  26.185  0.00  0.00    +0.000 C 
ATOM      6  C   UNL     1       7.694   3.809  25.916  0.00  0.00    +0.000 C 
ATOM      7  C   UNL     1       7.847   4.108  24.432  0.00  0.00    +0.000 C 
ATOM      8  C   UNL     1       8.765   3.161  23.731  0.00  0.00    +0.000 C 
ATOM      9  C   UNL     1       9.008   1.909  24.560  0.00  0.00    +0.000 C 
BRANCH   8  10
ATOM     10  C   UNL     1       8.465   2.855  22.320  0.00  0.00    +0.000 C 
ATOM     11  N   UNL     1       7.051   2.677  21.921  0.00  0.00    +0.000 NA
ATOM     12  C   UNL     1       6.734   1.456  21.510  0.00  0.00    +0.000 A 
ATOM     13  C   UNL     1       5.886   1.750  20.302  0.00  0.00    +0.000 A 
ATOM     14  C   UNL     1       5.984   1.130  18.953  0.00  0.00    +0.000 A 
ATOM     15  C   UNL     1       7.145   0.207  18.995  0.00  0.00    +0.000 A 
ATOM     16  C   UNL     1       8.183  -0.153  19.896  0.00  0.00    +0.000 A 
ATOM     17  C   UNL     1       7.875   0.556  21.192  0.00  0.00    +0.000 A 
ATOM     18  S   UNL     1       9.317   1.336  21.783  0.00  0.00    +0.000 S 
ENDBRANCH   8  10
ENDBRANCH   1   2
BRANCH   1  20
ATOM     19  N   UNL     1       6.488  -3.341  24.423  0.00  0.00    +0.000 N 
ATOM     20  C   UNL     1       6.397  -2.099  25.049  0.00  0.00    +0.000 C 
ATOM     21  O   UNL     1       5.151  -1.873  25.270  0.00  0.00    +0.000 OA
BRANCH  19  28
ATOM     22  C   UNL     1       7.389  -4.061  26.508  0.00  0.00    +0.000 C 
ATOM     23  C   UNL     1       8.732  -3.665  26.582  0.00  0.00    +0.000 C 
ATOM     24  S   UNL     1       9.411  -4.350  24.999  0.00  0.00    +0.000 S 
ATOM     25  O   UNL     1      10.399  -5.263  25.302  0.00  0.00    +0.000 OA
ATOM     26  O   UNL     1       9.550  -3.309  24.070  0.00  0.00    +0.000 OA
ATOM     27  C   UNL     1       7.939  -5.276  24.401  0.00  0.00    +0.000 C 
ATOM     28  C   UNL     1       6.790  -4.519  25.140  0.00  0.00    +0.000 C 
ENDBRANCH  19  28
BRANCH  19  29
ATOM     29  C   UNL     1       5.719  -3.338  23.281  0.00  0.00    +0.000 A 
ATOM     30  C   UNL     1       4.773  -4.465  23.608  0.00  0.00    +0.000 A 
ATOM     31  C   UNL     1       4.728  -5.778  22.930  0.00  0.00    +0.000 A 
ATOM     32  C   UNL     1       5.620  -5.840  21.714  0.00  0.00    +0.000 A 
ATOM     33  F   UNL     1       6.525  -6.895  22.039  0.00  0.00    +0.000 F 
ATOM     34  C   UNL     1       6.333  -4.705  21.092  0.00  0.00    +0.000 A 
ATOM     35  C   UNL     1       6.253  -3.388  21.914  0.00  0.00    +0.000 A 
ENDBRANCH  19  29
ENDBRANCH   1  20
TORSDOF 5
ENDMDL
MODEL 2
REMARK VINA RESULT:      -8.1      2.228      2.972
REMARK  Name = 
REMARK  5 active torsions:
REMARK  status: ('A' for Active; 'I' for Inactive)
REMARK    1  A    between atoms: C_11  and  N_13
REMARK    2  A    between atoms: N_13  and  C_49
REMARK    3  A    between atoms: C_14  and  C_16
REMARK    4  A    between atoms: C_16  and  C_19
REMARK    5  A    between atoms: C_31  and  C_33
REMARK                            x       y       z     vdW  Elec       q    Type
REMARK                         _______ _______ _______ _____ _____    ______ ____
ROOT
ATOM      1  C   UNL     1       6.783  -2.112  26.244  0.00  0.00    +0.000 C 
ENDROOT
BRANCH   1   2
ATOM      2  C   UNL     1       8.183  -1.690  26.130  0.00  0.00    +0.000 C 
ATOM      3  O   UNL     1       8.989  -2.480  26.727  0.00  0.00    +0.000 OA
ATOM      4  N   UNL     1       8.790  -0.885  25.202  0.00  0.00    +0.000 N 
ATOM      5  C   UNL     1       9.790   0.077  25.736  0.00  0.00    +0.000 C 
ATOM      6  C   UNL     1      10.671   0.625  24.650  0.00  0.00    +0.000 C 
ATOM      7  C   UNL     1       9.968   0.706  23.303  0.00  0.00    +0.000 C 
ATOM      8  C   UNL     1       9.400  -0.601  22.855  0.00  0.00    +0.000 C 
ATOM      9  C   UNL     1       9.307  -1.589  24.007  0.00  0.00    +0.000 C 
BRANCH   8  10
ATOM     10  C   UNL     1       8.167  -0.555  22.048  0.00  0.00    +0.000 C 
ATOM     11  N   UNL     1       8.288  -0.567  20.572  0.00  0.00    +0.000 NA
ATOM     12  C   UNL     1       7.875   0.539  19.967  0.00  0.00    +0.000 A 
ATOM     13  C   UNL     1       7.099  -0.019  18.804  0.00  0.00    +0.000 A 
ATOM     14  C   UNL     1       5.742   0.380  18.345  0.00  0.00    +0.000 A 
ATOM     15  C   UNL     1       5.250   1.394  19.309  0.00  0.00    +0.000 A 
ATOM     16  C   UNL     1       5.664   1.984  20.533  0.00  0.00    +0.000 A 
ATOM     17  C   UNL     1       7.059   1.471  20.792  0.00  0.00    +0.000 A 
ATOM     18  S   UNL     1       7.180   0.925  22.443  0.00  0.00    +0.000 S 
ENDBRANCH   8  10
ENDBRANCH   1   2
BRANCH   1  20
ATOM     19  N   UNL     1       5.936  -3.717  24.590  0.00  0.00    +0.000 N 
ATOM     20  C   UNL     1       5.890  -2.448  25.169  0.00  0.00    +0.000 C 
ATOM     21  O   UNL     1       5.667  -1.606  24.225  0.00  0.00    +0.000 OA
BRANCH  19  28
ATOM     22  C   UNL     1       3.976  -4.204  25.854  0.00  0.00    +0.000 C 
ATOM     23  C   UNL     1       4.356  -4.681  27.115  0.00  0.00    +0.000 C 
ATOM     24  S   UNL     1       5.523  -6.048  26.660  0.00  0.00    +0.000 S 
ATOM     25  O   UNL     1       5.020  -7.237  27.146  0.00  0.00    +0.000 OA
ATOM     26  O   UNL     1       6.842  -5.609  26.849  0.00  0.00    +0.000 OA
ATOM     27  C   UNL     1       5.317  -6.042  24.833  0.00  0.00    +0.000 C 
ATOM     28  C   UNL     1       4.819  -4.581  24.595  0.00  0.00    +0.000 C 
ENDBRANCH  19  28
BRANCH  19  29
ATOM     29  C   UNL     1       6.891  -3.736  23.600  0.00  0.00    +0.000 A 
ATOM     30  C   UNL     1       6.041  -3.346  22.418  0.00  0.00    +0.000 A 
ATOM     31  C   UNL     1       5.688  -4.225  21.282  0.00  0.00    +0.000 A 
ATOM     32  C   UNL     1       6.426  -5.542  21.309  0.00  0.00    +0.000 A 
ATOM     33  F   UNL     1       5.366  -6.496  21.387  0.00  0.00    +0.000 F 
ATOM     34  C   UNL     1       7.533  -5.907  22.218  0.00  0.00    +0.000 A 
ATOM     35  C   UNL     1       7.799  -4.860  23.335  0.00  0.00    +0.000 A 
ENDBRANCH  19  29
ENDBRANCH   1  20
TORSDOF 5
ENDMDL
MODEL 3
REMARK VINA RESULT:      -7.8      0.933      1.047
REMARK  Name = 
REMARK  5 active torsions:
REMARK  status: ('A' for Active; 'I' for Inactive)
REMARK    1  A    between atoms: C_11  and  N_13
REMARK    2  A    between atoms: N_13  and  C_49
REMARK    3  A    between atoms: C_14  and  C_16
REMARK    4  A    between atoms: C_16  and  C_19
REMARK    5  A    between atoms: C_31  and  C_33
REMARK                            x       y       z     vdW  Elec       q    Type
REMARK                         _______ _______ _______ _____ _____    ______ ____
ROOT
ATOM      1  C   UNL     1       6.842  -1.167  25.483  0.00  0.00    +0.000 C 
ENDROOT
BRANCH   1   2
ATOM      2  C   UNL     1       6.651   0.087  26.218  0.00  0.00    +0.000 C 
ATOM      3  O   UNL     1       7.041   0.015  27.431  0.00  0.00    +0.000 OA
ATOM      4  N   UNL     1       6.528   1.371  25.757  0.00  0.00    +0.000 N 
ATOM      5  C   UNL     1       5.504   2.208  26.437  0.00  0.00    +0.000 C 
ATOM      6  C   UNL     1       5.701   3.669  26.155  0.00  0.00    +0.000 C 
ATOM      7  C   UNL     1       6.320   3.930  24.789  0.00  0.00    +0.000 C 
ATOM      8  C   UNL     1       7.615   3.216  24.582  0.00  0.00    +0.000 C 
ATOM      9  C   UNL     1       7.805   2.105  25.604  0.00  0.00    +0.000 C 
BRANCH   8  10
ATOM     10  C   UNL     1       7.931   2.782  23.209  0.00  0.00    +0.000 C 
ATOM     11  N   UNL     1       6.820   2.349  22.332  0.00  0.00    +0.000 NA
ATOM     12  C   UNL     1       6.849   1.070  21.981  0.00  0.00    +0.000 A 
ATOM     13  C   UNL     1       6.508   1.148  20.516  0.00  0.00    +0.000 A 
ATOM     14  C   UNL     1       7.204   0.473  19.387  0.00  0.00    +0.000 A 
ATOM     15  C   UNL     1       8.365  -0.241  19.972  0.00  0.00    +0.000 A 
ATOM     16  C   UNL     1       9.007  -0.371  21.232  0.00  0.00    +0.000 A 
ATOM     17  C   UNL     1       8.131   0.353  22.223  0.00  0.00    +0.000 A 
ATOM     18  S   UNL     1       9.113   1.395  23.216  0.00  0.00    +0.000 S 
ENDBRANCH   8  10
ENDBRANCH   1   2
BRANCH   1  20
ATOM     19  N   UNL     1       6.316  -3.461  24.786  0.00  0.00    +0.000 N 
ATOM     20  C   UNL     1       6.120  -2.396  25.665  0.00  0.00    +0.000 C 
ATOM     21  O   UNL     1       4.871  -2.374  25.965  0.00  0.00    +0.000 OA
BRANCH  19  28
ATOM     22  C   UNL     1       7.431  -4.478  26.629  0.00  0.00    +0.000 C 
ATOM     23  C   UNL     1       8.727  -3.954  26.721  0.00  0.00    +0.000 C 
ATOM     24  S   UNL     1       9.360  -4.223  24.999  0.00  0.00    +0.000 S 
ATOM     25  O   UNL     1      10.455  -5.058  25.057  0.00  0.00    +0.000 OA
ATOM     26  O   UNL     1       9.326  -3.006  24.301  0.00  0.00    +0.000 OA
ATOM     27  C   UNL     1       7.952  -5.172  24.292  0.00  0.00    +0.000 C 
ATOM     28  C   UNL     1       6.787  -4.717  25.227  0.00  0.00    +0.000 C 
ENDBRANCH  19  28
BRANCH  19  29
ATOM     29  C   UNL     1       5.490  -3.315  23.695  0.00  0.00    +0.000 A 
ATOM     30  C   UNL     1       4.681  -4.580  23.814  0.00  0.00    +0.000 A 
ATOM     31  C   UNL     1       4.732  -5.729  22.884  0.00  0.00    +0.000 A 
ATOM     32  C   UNL     1       5.559  -5.448  21.652  0.00  0.00    +0.000 A 
ATOM     33  F   UNL     1       6.583  -6.441  21.726  0.00  0.00    +0.000 F 
ATOM     34  C   UNL     1       6.119  -4.139  21.254  0.00  0.00    +0.000 A 
ATOM     35  C   UNL     1       5.951  -3.031  22.329  0.00  0.00    +0.000 A 
ENDBRANCH  19  29
ENDBRANCH   1  20
TORSDOF 5
ENDMDL
MODEL 4
REMARK VINA RESULT:      -7.5      2.570      4.985
REMARK  Name = 
REMARK  5 active torsions:
REMARK  status: ('A' for Active; 'I' for Inactive)
REMARK    1  A    between atoms: C_11  and  N_13
REMARK    2  A    between atoms: N_13  and  C_49
REMARK    3  A    between atoms: C_14  and  C_16
REMARK    4  A    between atoms: C_16  and  C_19
REMARK    5  A    between atoms: C_31  and  C_33
REMARK                            x       y       z     vdW  Elec       q    Type
REMARK                         _______ _______ _______ _____ _____    ______ ____
ROOT
ATOM      1  C   UNL     1       7.588  -1.956  23.318  0.00  0.00    +0.000 C 
ENDROOT
BRANCH   1   2
ATOM      2  C   UNL     1       8.283  -0.975  22.479  0.00  0.00    +0.000 C 
ATOM      3  O   UNL     1       8.162  -1.215  21.231  0.00  0.00    +0.000 OA
ATOM      4  N   UNL     1       8.663   0.312  22.755  0.00  0.00    +0.000 N 
ATOM      5  C   UNL     1      10.005   0.713  22.255  0.00  0.00    +0.000 C 
ATOM      6  C   UNL     1      10.175   2.205  22.248  0.00  0.00    +0.000 C 
ATOM      7  C   UNL     1       9.374   2.896  23.342  0.00  0.00    +0.000 C 
ATOM      8  C   UNL     1       7.917   2.573  23.301  0.00  0.00    +0.000 C 
ATOM      9  C   UNL     1       7.646   1.343  22.448  0.00  0.00    +0.000 C 
BRANCH   8  10
ATOM     10  C   UNL     1       7.200   2.536  24.589  0.00  0.00    +0.000 C 
ATOM     11  N   UNL     1       7.816   1.807  25.719  0.00  0.00    +0.000 NA
ATOM     12  C   UNL     1       7.145   0.738  26.129  0.00  0.00    +0.000 A 
ATOM     13  C   UNL     1       7.218   0.886  27.625  0.00  0.00    +0.000 A 
ATOM     14  C   UNL     1       6.104   0.763  28.603  0.00  0.00    +0.000 A 
ATOM     15  C   UNL     1       4.869   0.541  27.813  0.00  0.00    +0.000 A 
ATOM     16  C   UNL     1       4.473   0.509  26.449  0.00  0.00    +0.000 A 
ATOM     17  C   UNL     1       5.744   0.619  25.643  0.00  0.00    +0.000 A 
ATOM     18  S   UNL     1       5.537   1.815  24.393  0.00  0.00    +0.000 S 
ENDBRANCH   8  10
ENDBRANCH   1   2
BRANCH   1  20
ATOM     19  N   UNL     1       7.357  -3.972  24.700  0.00  0.00    +0.000 N 
ATOM     20  C   UNL     1       8.138  -3.161  23.877  0.00  0.00    +0.000 C 
ATOM     21  O   UNL     1       9.330  -3.168  24.355  0.00  0.00    +0.000 OA
BRANCH  19  28
ATOM     22  C   UNL     1       7.383  -5.475  22.852  0.00  0.00    +0.000 C 
ATOM     23  C   UNL     1       6.446  -5.043  21.903  0.00  0.00    +0.000 C 
ATOM     24  S   UNL     1       4.916  -4.881  22.938  0.00  0.00    +0.000 S 
ATOM     25  O   UNL     1       3.959  -5.745  22.448  0.00  0.00    +0.000 OA
ATOM     26  O   UNL     1       4.691  -3.524  23.217  0.00  0.00    +0.000 OA
ATOM     27  C   UNL     1       5.540  -5.558  24.530  0.00  0.00    +0.000 C 
ATOM     28  C   UNL     1       7.075  -5.317  24.375  0.00  0.00    +0.000 C 
ENDBRANCH  19  28
BRANCH  19  29
ATOM     29  C   UNL     1       7.432  -3.517  25.997  0.00  0.00    +0.000 A 
ATOM     30  C   UNL     1       7.924  -4.768  26.678  0.00  0.00    +0.000 A 
ATOM     31  C   UNL     1       7.151  -5.592  27.632  0.00  0.00    +0.000 A 
ATOM     32  C   UNL     1       5.839  -4.957  28.027  0.00  0.00    +0.000 A 
ATOM     33  F   UNL     1       4.879  -5.920  27.594  0.00  0.00    +0.000 F 
ATOM     34  C   UNL     1       5.397  -3.585  27.698  0.00  0.00    +0.000 A 
ATOM     35  C   UNL     1       6.339  -2.842  26.710  0.00  0.00    +0.000 A 
ENDBRANCH  19  29
ENDBRANCH   1  20
TORSDOF 5
ENDMDL
MODEL 5
REMARK VINA RESULT:      -7.4      2.003      2.957
REMARK  Name = 
REMARK  5 active torsions:
REMARK  status: ('A' for Active; 'I' for Inactive)
REMARK    1  A    between atoms: C_11  and  N_13
REMARK    2  A    between atoms: N_13  and  C_49
REMARK    3  A    between atoms: C_14  and  C_16
REMARK    4  A    between atoms: C_16  and  C_19
REMARK    5  A    between atoms: C_31  and  C_33
REMARK                            x       y       z     vdW  Elec       q    Type
REMARK                         _______ _______ _______ _____ _____    ______ ____
ROOT
ATOM      1  C   UNL     1       8.128  -1.253  24.748  0.00  0.00    +0.000 C 
ENDROOT
BRANCH   1   2
ATOM      2  C   UNL     1       8.282  -0.046  25.566  0.00  0.00    +0.000 C 
ATOM      3  O   UNL     1       9.085  -0.208  26.544  0.00  0.00    +0.000 OA
ATOM      4  N   UNL     1       8.061   1.268  25.250  0.00  0.00    +0.000 N 
ATOM      5  C   UNL     1       7.400   2.086  26.302  0.00  0.00    +0.000 C 
ATOM      6  C   UNL     1       7.551   3.557  26.042  0.00  0.00    +0.000 C 
ATOM      7  C   UNL     1       7.637   3.890  24.560  0.00  0.00    +0.000 C 
ATOM      8  C   UNL     1       8.730   3.157  23.853  0.00  0.00    +0.000 C 
ATOM      9  C   UNL     1       9.226   1.977  24.674  0.00  0.00    +0.000 C 
BRANCH   8  10
ATOM     10  C   UNL     1       8.498   2.806  22.440  0.00  0.00    +0.000 C 
ATOM     11  N   UNL     1       7.110   2.550  21.995  0.00  0.00    +0.000 NA
ATOM     12  C   UNL     1       6.869   1.306  21.602  0.00  0.00    +0.000 A 
ATOM     13  C   UNL     1       6.053   1.531  20.357  0.00  0.00    +0.000 A 
ATOM     14  C   UNL     1       6.232   0.887  19.028  0.00  0.00    +0.000 A 
ATOM     15  C   UNL     1       7.433   0.024  19.134  0.00  0.00    +0.000 A 
ATOM     16  C   UNL     1       8.453  -0.265  20.080  0.00  0.00    +0.000 A 
ATOM     17  C   UNL     1       8.064   0.456  21.347  0.00  0.00    +0.000 A 
ATOM     18  S   UNL     1       9.442   1.319  21.971  0.00  0.00    +0.000 S 
ENDBRANCH   8  10
ENDBRANCH   1   2
BRANCH   1  20
ATOM     19  N   UNL     1       6.711  -3.215  25.166  0.00  0.00    +0.000 N 
ATOM     20  C   UNL     1       7.963  -2.602  25.218  0.00  0.00    +0.000 C 
ATOM     21  O   UNL     1       8.528  -2.981  26.308  0.00  0.00    +0.000 OA
BRANCH  19  28
ATOM     22  C   UNL     1       7.728  -4.573  23.493  0.00  0.00    +0.000 C 
ATOM     23  C   UNL     1       7.814  -3.839  22.303  0.00  0.00    +0.000 C 
ATOM     24  S   UNL     1       6.063  -3.270  22.089  0.00  0.00    +0.000 S 
ATOM     25  O   UNL     1       5.573  -3.784  20.907  0.00  0.00    +0.000 OA
ATOM     26  O   UNL     1       5.967  -1.922  22.468  0.00  0.00    +0.000 OA
ATOM     27  C   UNL     1       5.267  -4.172  23.479  0.00  0.00    +0.000 C 
ATOM     28  C   UNL     1       6.488  -4.397  24.426  0.00  0.00    +0.000 C 
ENDBRANCH  19  28
BRANCH  19  29
ATOM     29  C   UNL     1       5.996  -2.895  26.297  0.00  0.00    +0.000 A 
ATOM     30  C   UNL     1       5.842  -4.267  26.899  0.00  0.00    +0.000 A 
ATOM     31  C   UNL     1       4.574  -5.020  27.020  0.00  0.00    +0.000 A 
ATOM     32  C   UNL     1       3.366  -4.196  26.644  0.00  0.00    +0.000 A 
ATOM     33  F   UNL     1       2.811  -4.931  25.553  0.00  0.00    +0.000 F 
ATOM     34  C   UNL     1       3.348  -2.744  26.367  0.00  0.00    +0.000 A 
ATOM     35  C   UNL     1       4.761  -2.099  26.307  0.00  0.00    +0.000 A 
ENDBRANCH  19  29
ENDBRANCH   1  20
TORSDOF 5
ENDMDL
MODEL 6
REMARK VINA RESULT:      -7.4      2.041      2.502
REMARK  Name = 
REMARK  5 active torsions:
REMARK  status: ('A' for Active; 'I' for Inactive)
REMARK    1  A    between atoms: C_11  and  N_13
REMARK    2  A    between atoms: N_13  and  C_49
REMARK    3  A    between atoms: C_14  and  C_16
REMARK    4  A    between atoms: C_16  and  C_19
REMARK    5  A    between atoms: C_31  and  C_33
REMARK                            x       y       z     vdW  Elec       q    Type
REMARK                         _______ _______ _______ _____ _____    ______ ____
ROOT
ATOM      1  C   UNL     1       5.666  -1.565  26.062  0.00  0.00    +0.000 C 
ENDROOT
BRANCH   1   2
ATOM      2  C   UNL     1       5.477  -0.291  26.763  0.00  0.00    +0.000 C 
ATOM      3  O   UNL     1       5.377  -0.430  28.027  0.00  0.00    +0.000 OA
ATOM      4  N   UNL     1       5.789   0.984  26.374  0.00  0.00    +0.000 N 
ATOM      5  C   UNL     1       4.778   2.026  26.698  0.00  0.00    +0.000 C 
ATOM      6  C   UNL     1       5.353   3.410  26.602  0.00  0.00    +0.000 C 
ATOM      7  C   UNL     1       6.463   3.519  25.567  0.00  0.00    +0.000 C 
ATOM      8  C   UNL     1       7.574   2.546  25.789  0.00  0.00    +0.000 C 
ATOM      9  C   UNL     1       7.154   1.431  26.735  0.00  0.00    +0.000 C 
BRANCH   8  10
ATOM     10  C   UNL     1       8.273   2.039  24.594  0.00  0.00    +0.000 C 
ATOM     11  N   UNL     1       7.474   1.733  23.386  0.00  0.00    +0.000 NA
ATOM     12  C   UNL     1       7.451   0.453  23.039  0.00  0.00    +0.000 A 
ATOM     13  C   UNL     1       7.635   0.537  21.547  0.00  0.00    +0.000 A 
ATOM     14  C   UNL     1       8.574  -0.251  20.704  0.00  0.00    +0.000 A 
ATOM     15  C   UNL     1       9.367  -1.095  21.630  0.00  0.00    +0.000 A 
ATOM     16  C   UNL     1       9.526  -1.276  23.030  0.00  0.00    +0.000 A 
ATOM     17  C   UNL     1       8.471  -0.419  23.684  0.00  0.00    +0.000 A 
ATOM     18  S   UNL     1       9.191   0.510  24.970  0.00  0.00    +0.000 S 
ENDBRANCH   8  10
ENDBRANCH   1   2
BRANCH   1  20
ATOM     19  N   UNL     1       4.996  -3.707  25.067  0.00  0.00    +0.000 N 
ATOM     20  C   UNL     1       4.663  -2.555  25.779  0.00  0.00    +0.000 C 
ATOM     21  O   UNL     1       3.489  -2.197  25.398  0.00  0.00    +0.000 OA
BRANCH  19  28
ATOM     22  C   UNL     1       4.438  -4.794  27.112  0.00  0.00    +0.000 C 
ATOM     23  C   UNL     1       5.427  -4.507  28.063  0.00  0.00    +0.000 C 
ATOM     24  S   UNL     1       6.969  -4.990  27.153  0.00  0.00    +0.000 S 
ATOM     25  O   UNL     1       7.592  -6.004  27.849  0.00  0.00    +0.000 OA
ATOM     26  O   UNL     1       7.613  -3.832  26.692  0.00  0.00    +0.000 OA
ATOM     27  C   UNL     1       6.224  -5.711  25.634  0.00  0.00    +0.000 C 
ATOM     28  C   UNL     1       4.835  -4.998  25.616  0.00  0.00    +0.000 C 
ENDBRANCH  19  28
BRANCH  19  29
ATOM     29  C   UNL     1       4.909  -3.454  23.717  0.00  0.00    +0.000 A 
ATOM     30  C   UNL     1       4.245  -4.727  23.260  0.00  0.00    +0.000 A 
ATOM     31  C   UNL     1       4.871  -5.776  22.427  0.00  0.00    +0.000 A 
ATOM     32  C   UNL     1       6.225  -5.371  21.896  0.00  0.00    +0.000 A 
ATOM     33  F   UNL     1       7.090  -6.365  22.447  0.00  0.00    +0.000 F 
ATOM     34  C   UNL     1       6.836  -4.029  21.987  0.00  0.00    +0.000 A 
ATOM     35  C   UNL     1       6.035  -3.033  22.872  0.00  0.00    +0.000 A 
ENDBRANCH  19  29
ENDBRANCH   1  20
TORSDOF 5
ENDMDL
MODEL 7
REMARK VINA RESULT:      -7.2      3.183      7.851
REMARK  Name = 
REMARK  5 active torsions:
REMARK  status: ('A' for Active; 'I' for Inactive)
REMARK    1  A    between atoms: C_11  and  N_13
REMARK    2  A    between atoms: N_13  and  C_49
REMARK    3  A    between atoms: C_14  and  C_16
REMARK    4  A    between atoms: C_16  and  C_19
REMARK    5  A    between atoms: C_31  and  C_33
REMARK                            x       y       z     vdW  Elec       q    Type
REMARK                         _______ _______ _______ _____ _____    ______ ____
ROOT
ATOM      1  C   UNL     1       9.019  -1.873  25.355  0.00  0.00    +0.000 C 
ENDROOT
BRANCH   1   2
ATOM      2  C   UNL     1       8.993  -2.807  24.224  0.00  0.00    +0.000 C 
ATOM      3  O   UNL     1      10.159  -3.141  23.829  0.00  0.00    +0.000 OA
ATOM      4  N   UNL     1       8.007  -3.662  23.809  0.00  0.00    +0.000 N 
ATOM      5  C   UNL     1       7.798  -3.745  22.338  0.00  0.00    +0.000 C 
ATOM      6  C   UNL     1       7.002  -4.959  21.956  0.00  0.00    +0.000 C 
ATOM      7  C   UNL     1       6.016  -5.384  23.034  0.00  0.00    +0.000 C 
ATOM      8  C   UNL     1       6.659  -5.622  24.361  0.00  0.00    +0.000 C 
ATOM      9  C   UNL     1       8.049  -5.009  24.421  0.00  0.00    +0.000 C 
BRANCH   8  10
ATOM     10  C   UNL     1       5.856  -5.322  25.560  0.00  0.00    +0.000 C 
ATOM     11  N   UNL     1       5.948  -6.237  26.720  0.00  0.00    +0.000 NA
ATOM     12  C   UNL     1       4.831  -6.891  27.009  0.00  0.00    +0.000 A 
ATOM     13  C   UNL     1       4.787  -6.774  28.509  0.00  0.00    +0.000 A 
ATOM     14  C   UNL     1       3.628  -6.378  29.353  0.00  0.00    +0.000 A 
ATOM     15  C   UNL     1       2.524  -6.036  28.423  0.00  0.00    +0.000 A 
ATOM     16  C   UNL     1       2.317  -5.904  27.024  0.00  0.00    +0.000 A 
ATOM     17  C   UNL     1       3.589  -6.380  26.367  0.00  0.00    +0.000 A 
ATOM     18  S   UNL     1       4.081  -5.230  25.154  0.00  0.00    +0.000 S 
ENDBRANCH   8  10
ENDBRANCH   1   2
BRANCH   1  20
ATOM     19  N   UNL     1       8.237   0.304  24.532  0.00  0.00    +0.000 N 
ATOM     20  C   UNL     1       9.137  -0.442  25.293  0.00  0.00    +0.000 C 
ATOM     21  O   UNL     1      10.291   0.108  25.166  0.00  0.00    +0.000 OA
BRANCH  19  28
ATOM     22  C   UNL     1       7.377   1.000  26.642  0.00  0.00    +0.000 C 
ATOM     23  C   UNL     1       6.534  -0.002  27.141  0.00  0.00    +0.000 C 
ATOM     24  S   UNL     1       5.378  -0.261  25.715  0.00  0.00    +0.000 S 
ATOM     25  O   UNL     1       4.096   0.037  26.127  0.00  0.00    +0.000 OA
ATOM     26  O   UNL     1       5.741  -1.434  25.036  0.00  0.00    +0.000 OA
ATOM     27  C   UNL     1       5.950   1.084  24.599  0.00  0.00    +0.000 C 
ATOM     28  C   UNL     1       7.411   1.293  25.109  0.00  0.00    +0.000 C 
ENDBRANCH  19  28
BRANCH  19  29
ATOM     29  C   UNL     1       8.677   0.363  23.229  0.00  0.00    +0.000 A 
ATOM     30  C   UNL     1       9.037   1.824  23.148  0.00  0.00    +0.000 A 
ATOM     31  C   UNL     1       8.333   2.843  22.340  0.00  0.00    +0.000 A 
ATOM     32  C   UNL     1       7.293   2.247  21.422  0.00  0.00    +0.000 A 
ATOM     33  F   UNL     1       6.086   2.869  21.866  0.00  0.00    +0.000 F 
ATOM     34  C   UNL     1       7.080   0.808  21.158  0.00  0.00    +0.000 A 
ATOM     35  C   UNL     1       7.922  -0.128  22.069  0.00  0.00    +0.000 A 
ENDBRANCH  19  29
ENDBRANCH   1  20
TORSDOF 5
ENDMDL
MODEL 8
REMARK VINA RESULT:      -7.1      3.158      6.852
REMARK  Name = 
REMARK  5 active torsions:
REMARK  status: ('A' for Active; 'I' for Inactive)
REMARK    1  A    between atoms: C_11  and  N_13
REMARK    2  A    between atoms: N_13  and  C_49
REMARK    3  A    between atoms: C_14  and  C_16
REMARK    4  A    between atoms: C_16  and  C_19
REMARK    5  A    between atoms: C_31  and  C_33
REMARK                            x       y       z     vdW  Elec       q    Type
REMARK                         _______ _______ _______ _____ _____    ______ ____
ROOT
ATOM      1  C   UNL     1       6.356  -0.731  25.930  0.00  0.00    +0.000 C 
ENDROOT
BRANCH   1   2
ATOM      2  C   UNL     1       6.461  -2.130  26.358  0.00  0.00    +0.000 C 
ATOM      3  O   UNL     1       5.495  -2.493  27.109  0.00  0.00    +0.000 OA
ATOM      4  N   UNL     1       7.141  -3.177  25.794  0.00  0.00    +0.000 N 
ATOM      5  C   UNL     1       7.841  -4.081  26.745  0.00  0.00    +0.000 C 
ATOM      6  C   UNL     1       8.215  -5.385  26.101  0.00  0.00    +0.000 C 
ATOM      7  C   UNL     1       8.492  -5.251  24.611  0.00  0.00    +0.000 C 
ATOM      8  C   UNL     1       7.358  -4.642  23.853  0.00  0.00    +0.000 C 
ATOM      9  C   UNL     1       6.379  -3.946  24.785  0.00  0.00    +0.000 C 
BRANCH   8  10
ATOM     10  C   UNL     1       7.700  -3.822  22.677  0.00  0.00    +0.000 C 
ATOM     11  N   UNL     1       8.568  -2.639  22.869  0.00  0.00    +0.000 NA
ATOM     12  C   UNL     1       7.987  -1.471  22.624  0.00  0.00    +0.000 A 
ATOM     13  C   UNL     1       9.058  -0.754  21.847  0.00  0.00    +0.000 A 
ATOM     14  C   UNL     1       8.903  -0.002  20.572  0.00  0.00    +0.000 A 
ATOM     15  C   UNL     1       7.488  -0.158  20.158  0.00  0.00    +0.000 A 
ATOM     16  C   UNL     1       6.331  -0.868  20.578  0.00  0.00    +0.000 A 
ATOM     17  C   UNL     1       6.696  -1.525  21.886  0.00  0.00    +0.000 A 
ATOM     18  S   UNL     1       6.198  -3.195  21.856  0.00  0.00    +0.000 S 
ENDBRANCH   8  10
ENDBRANCH   1   2
BRANCH   1  20
ATOM     19  N   UNL     1       7.104   1.586  25.616  0.00  0.00    +0.000 N 
ATOM     20  C   UNL     1       7.309   0.320  26.164  0.00  0.00    +0.000 C 
ATOM     21  O   UNL     1       8.569   0.076  26.104  0.00  0.00    +0.000 OA
BRANCH  19  28
ATOM     22  C   UNL     1       6.604   2.237  27.853  0.00  0.00    +0.000 C 
ATOM     23  C   UNL     1       5.278   1.889  28.141  0.00  0.00    +0.000 C 
ATOM     24  S   UNL     1       4.371   2.675  26.727  0.00  0.00    +0.000 S 
ATOM     25  O   UNL     1       3.491   3.608  27.232  0.00  0.00    +0.000 OA
ATOM     26  O   UNL     1       4.028   1.685  25.794  0.00  0.00    +0.000 OA
ATOM     27  C   UNL     1       5.760   3.572  25.923  0.00  0.00    +0.000 C 
ATOM     28  C   UNL     1       6.982   2.738  26.423  0.00  0.00    +0.000 C 
ENDBRANCH  19  28
BRANCH  19  29
ATOM     29  C   UNL     1       7.610   1.619  24.337  0.00  0.00    +0.000 A 
ATOM     30  C   UNL     1       8.839   2.460  24.569  0.00  0.00    +0.000 A 
ATOM     31  C   UNL     1       9.054   3.832  24.062  0.00  0.00    +0.000 A 
ATOM     32  C   UNL     1       7.979   4.277  23.100  0.00  0.00    +0.000 A 
ATOM     33  F   UNL     1       7.428   5.423  23.750  0.00  0.00    +0.000 F 
ATOM     34  C   UNL     1       6.912   3.430  22.528  0.00  0.00    +0.000 A 
ATOM     35  C   UNL     1       6.842   2.005  23.145  0.00  0.00    +0.000 A 
ENDBRANCH  19  29
ENDBRANCH   1  20
TORSDOF 5
ENDMDL
MODEL 9
REMARK VINA RESULT:      -7.0      3.192      7.195
REMARK  Name = 
REMARK  5 active torsions:
REMARK  status: ('A' for Active; 'I' for Inactive)
REMARK    1  A    between atoms: C_11  and  N_13
REMARK    2  A    between atoms: N_13  and  C_49
REMARK    3  A    between atoms: C_14  and  C_16
REMARK    4  A    between atoms: C_16  and  C_19
REMARK    5  A    between atoms: C_31  and  C_33
REMARK                            x       y       z     vdW  Elec       q    Type
REMARK                         _______ _______ _______ _____ _____    ______ ____
ROOT
ATOM      1  C   UNL     1       5.555  -0.344  25.951  0.00  0.00    +0.000 C 
ENDROOT
BRANCH   1   2
ATOM      2  C   UNL     1       4.541  -0.692  26.951  0.00  0.00    +0.000 C 
ATOM      3  O   UNL     1       3.423  -0.110  26.748  0.00  0.00    +0.000 OA
ATOM      4  N   UNL     1       4.449  -1.785  27.771  0.00  0.00    +0.000 N 
ATOM      5  C   UNL     1       4.009  -1.514  29.166  0.00  0.00    +0.000 C 
ATOM      6  C   UNL     1       3.562  -2.766  29.863  0.00  0.00    +0.000 C 
ATOM      7  C   UNL     1       4.288  -4.010  29.370  0.00  0.00    +0.000 C 
ATOM      8  C   UNL     1       4.179  -4.210  27.894  0.00  0.00    +0.000 C 
ATOM      9  C   UNL     1       3.721  -2.939  27.194  0.00  0.00    +0.000 C 
BRANCH   8  10
ATOM     10  C   UNL     1       5.322  -4.848  27.216  0.00  0.00    +0.000 C 
ATOM     11  N   UNL     1       6.685  -4.357  27.518  0.00  0.00    +0.000 NA
ATOM     12  C   UNL     1       7.315  -3.788  26.498  0.00  0.00    +0.000 A 
ATOM     13  C   UNL     1       8.694  -4.377  26.622  0.00  0.00    +0.000 A 
ATOM     14  C   UNL     1       9.523  -4.979  25.543  0.00  0.00    +0.000 A 
ATOM     15  C   UNL     1       8.694  -4.963  24.314  0.00  0.00    +0.000 A 
ATOM     16  C   UNL     1       7.366  -4.632  23.933  0.00  0.00    +0.000 A 
ATOM     17  C   UNL     1       6.722  -4.020  25.152  0.00  0.00    +0.000 A 
ATOM     18  S   UNL     1       5.155  -4.738  25.405  0.00  0.00    +0.000 S 
ENDBRANCH   8  10
ENDBRANCH   1   2
BRANCH   1  20
ATOM     19  N   UNL     1       7.691   0.561  25.146  0.00  0.00    +0.000 N 
ATOM     20  C   UNL     1       6.896   0.111  26.201  0.00  0.00    +0.000 C 
ATOM     21  O   UNL     1       7.660  -0.536  27.006  0.00  0.00    +0.000 OA
BRANCH  19  28
ATOM     22  C   UNL     1       7.432   2.686  26.192  0.00  0.00    +0.000 C 
ATOM     23  C   UNL     1       6.152   3.179  25.906  0.00  0.00    +0.000 C 
ATOM     24  S   UNL     1       6.106   3.049  24.057  0.00  0.00    +0.000 S 
ATOM     25  O   UNL     1       5.938   4.312  23.531  0.00  0.00    +0.000 OA
ATOM     26  O   UNL     1       5.342   1.930  23.693  0.00  0.00    +0.000 OA
ATOM     27  C   UNL     1       7.838   2.520  23.737  0.00  0.00    +0.000 C 
ATOM     28  C   UNL     1       8.210   1.873  25.108  0.00  0.00    +0.000 C 
ENDBRANCH  19  28
BRANCH  19  29
ATOM     29  C   UNL     1       8.326  -0.511  24.561  0.00  0.00    +0.000 A 
ATOM     30  C   UNL     1       9.761  -0.094  24.753  0.00  0.00    +0.000 A 
ATOM     31  C   UNL     1      10.697   0.298  23.677  0.00  0.00    +0.000 A 
ATOM     32  C   UNL     1      10.134   0.063  22.296  0.00  0.00    +0.000 A 
ATOM     33  F   UNL     1      10.134   1.373  21.728  0.00  0.00    +0.000 F 
ATOM     34  C   UNL     1       8.882  -0.653  21.971  0.00  0.00    +0.000 A 
ATOM     35  C   UNL     1       8.030  -1.025  23.216  0.00  0.00    +0.000 A 
ENDBRANCH  19  29
ENDBRANCH   1  20
TORSDOF 5
ENDMDL
