MODEL 1
REMARK VINA RESULT:      -8.6      0.000      0.000
REMARK  Name = 
REMARK  5 active torsions:
REMARK  status: ('A' for Active; 'I' for Inactive)
REMARK    1  A    between atoms: C_7  and  N_8
REMARK    2  A    between atoms: C_11  and  N_12
REMARK    3  A    between atoms: C_20  and  C_22
REMARK    4  A    between atoms: C_22  and  C_25
REMARK    5  A    between atoms: C_25  and  C_28
REMARK                            x       y       z     vdW  Elec       q    Type
REMARK                         _______ _______ _______ _____ _____    ______ ____
ROOT
ATOM      1  N   UNL     1       7.211  -4.369  25.294  0.00  0.00    +0.000 N 
ATOM      2  C   UNL     1       7.667  -3.688  26.515  0.00  0.00    +0.000 C 
ATOM      3  C   UNL     1       8.543  -2.522  26.139  0.00  0.00    +0.000 C 
ATOM      4  N   UNL     1       9.133  -2.755  24.771  0.00  0.00    +0.000 N 
ATOM      5  C   UNL     1       9.476  -1.707  24.072  0.00  0.00    +0.000 C 
ATOM      6  O   UNL     1       9.733  -0.606  24.712  0.00  0.00    +0.000 OA
ATOM      7  C   UNL     1       9.508  -4.130  24.567  0.00  0.00    +0.000 C 
ATOM      8  C   UNL     1       8.262  -5.000  24.512  0.00  0.00    +0.000 C 
ENDROOT
BRANCH   1  13
ATOM      9  C   UNL     1       3.947  -5.220  26.294  0.00  0.00    +0.000 A 
ATOM     10  C   UNL     1       3.936  -6.284  25.200  0.00  0.00    +0.000 A 
ATOM     11  C   UNL     1       4.836  -6.470  24.081  0.00  0.00    +0.000 A 
ATOM     12  C   UNL     1       5.636  -5.147  23.961  0.00  0.00    +0.000 A 
ATOM     13  C   UNL     1       5.951  -4.107  24.907  0.00  0.00    +0.000 A 
ATOM     14  C   UNL     1       4.890  -4.118  25.980  0.00  0.00    +0.000 A 
BRANCH  12  15
ATOM     15  N   UNL     1       5.212  -4.745  22.908  0.00  0.00    +0.000 N 
ATOM     16  O   UNL     1       5.313  -5.587  22.002  0.00  0.00    +0.000 OA
ATOM     17  O   UNL     1       4.851  -3.617  22.265  0.00  0.00    +0.000 OA
ENDBRANCH  12  15
ENDBRANCH   1  13
BRANCH   5  18
ATOM     18  C   UNL     1       9.914  -1.621  22.668  0.00  0.00    +0.000 C 
BRANCH  18  19
ATOM     19  C   UNL     1       9.473  -0.441  21.876  0.00  0.00    +0.000 C 
BRANCH  19  20
ATOM     20  C   UNL     1       8.040  -0.683  21.331  0.00  0.00    +0.000 C 
ATOM     21  C   UNL     1       7.078  -0.291  22.487  0.00  0.00    +0.000 C 
ATOM     22  N   UNL     1       6.473   0.972  22.220  0.00  0.00    +0.000 N 
ATOM     23  H   UNL     1       6.841   1.548  22.915  0.00  0.00    +0.000 HD
ATOM     24  C   UNL     1       6.973   1.496  21.014  0.00  0.00    +0.000 A 
ATOM     25  C   UNL     1       5.625   1.771  20.385  0.00  0.00    +0.000 A 
ATOM     26  C   UNL     1       5.134   1.273  19.112  0.00  0.00    +0.000 A 
ATOM     27  C   UNL     1       6.224   0.545  18.322  0.00  0.00    +0.000 A 
ATOM     28  F   UNL     1       6.351   1.489  17.278  0.00  0.00    +0.000 F 
ATOM     29  C   UNL     1       7.530   0.088  18.843  0.00  0.00    +0.000 A 
ATOM     30  C   UNL     1       7.787   0.474  20.310  0.00  0.00    +0.000 A 
ENDBRANCH  19  20
ENDBRANCH  18  19
ENDBRANCH   5  18
TORSDOF 5
ENDMDL
MODEL 2
REMARK VINA RESULT:      -8.2      2.040      2.729
REMARK  Name = 
REMARK  5 active torsions:
REMARK  status: ('A' for Active; 'I' for Inactive)
REMARK    1  A    between atoms: C_7  and  N_8
REMARK    2  A    between atoms: C_11  and  N_12
REMARK    3  A    between atoms: C_20  and  C_22
REMARK    4  A    between atoms: C_22  and  C_25
REMARK    5  A    between atoms: C_25  and  C_28
REMARK                            x       y       z     vdW  Elec       q    Type
REMARK                         _______ _______ _______ _____ _____    ______ ____
ROOT
ATOM      1  N   UNL     1       7.350  -4.358  24.819  0.00  0.00    +0.000 N 
ATOM      2  C   UNL     1       7.396  -3.834  26.192  0.00  0.00    +0.000 C 
ATOM      3  C   UNL     1       8.162  -2.537  26.207  0.00  0.00    +0.000 C 
ATOM      4  N   UNL     1       9.092  -2.487  25.022  0.00  0.00    +0.000 N 
ATOM      5  C   UNL     1       9.441  -1.311  24.574  0.00  0.00    +0.000 C 
ATOM      6  O   UNL     1       9.377  -0.304  25.392  0.00  0.00    +0.000 OA
ATOM      7  C   UNL     1       9.697  -3.765  24.750  0.00  0.00    +0.000 C 
ATOM      8  C   UNL     1       8.638  -4.742  24.264  0.00  0.00    +0.000 C 
ENDROOT
BRANCH   1  13
ATOM      9  C   UNL     1       4.890  -6.336  23.267  0.00  0.00    +0.000 A 
ATOM     10  C   UNL     1       5.569  -6.056  21.931  0.00  0.00    +0.000 A 
ATOM     11  C   UNL     1       6.574  -5.069  21.592  0.00  0.00    +0.000 A 
ATOM     12  C   UNL     1       6.588  -4.063  22.771  0.00  0.00    +0.000 A 
ATOM     13  C   UNL     1       6.197  -4.172  24.154  0.00  0.00    +0.000 A 
ATOM     14  C   UNL     1       5.164  -5.266  24.259  0.00  0.00    +0.000 A 
BRANCH  12  15
ATOM     15  N   UNL     1       6.159  -3.085  22.213  0.00  0.00    +0.000 N 
ATOM     16  O   UNL     1       5.995  -2.129  22.986  0.00  0.00    +0.000 OA
ATOM     17  O   UNL     1       5.572  -2.684  21.069  0.00  0.00    +0.000 OA
ENDBRANCH  12  15
ENDBRANCH   1  13
BRANCH   5  18
ATOM     18  C   UNL     1      10.189  -0.959  23.354  0.00  0.00    +0.000 C 
BRANCH  18  19
ATOM     19  C   UNL     1       9.534  -1.212  22.043  0.00  0.00    +0.000 C 
BRANCH  19  20
ATOM     20  C   UNL     1       9.180   0.138  21.365  0.00  0.00    +0.000 C 
ATOM     21  C   UNL     1       7.976  -0.165  20.430  0.00  0.00    +0.000 C 
ATOM     22  N   UNL     1       6.768   0.330  21.003  0.00  0.00    +0.000 N 
ATOM     23  H   UNL     1       6.262  -0.482  21.195  0.00  0.00    +0.000 HD
ATOM     24  C   UNL     1       7.034   0.895  22.263  0.00  0.00    +0.000 A 
ATOM     25  C   UNL     1       6.347   2.217  21.997  0.00  0.00    +0.000 A 
ATOM     26  C   UNL     1       6.929   3.543  22.095  0.00  0.00    +0.000 A 
ATOM     27  C   UNL     1       8.334   3.509  22.699  0.00  0.00    +0.000 A 
ATOM     28  F   UNL     1       8.023   4.157  23.916  0.00  0.00    +0.000 F 
ATOM     29  C   UNL     1       9.181   2.311  22.888  0.00  0.00    +0.000 A 
ATOM     30  C   UNL     1       8.498   0.993  22.482  0.00  0.00    +0.000 A 
ENDBRANCH  19  20
ENDBRANCH  18  19
ENDBRANCH   5  18
TORSDOF 5
ENDMDL
MODEL 3
REMARK VINA RESULT:      -7.9      1.716      2.469
REMARK  Name = 
REMARK  5 active torsions:
REMARK  status: ('A' for Active; 'I' for Inactive)
REMARK    1  A    between atoms: C_7  and  N_8
REMARK    2  A    between atoms: C_11  and  N_12
REMARK    3  A    between atoms: C_20  and  C_22
REMARK    4  A    between atoms: C_22  and  C_25
REMARK    5  A    between atoms: C_25  and  C_28
REMARK                            x       y       z     vdW  Elec       q    Type
REMARK                         _______ _______ _______ _____ _____    ______ ____
ROOT
ATOM      1  N   UNL     1       8.273  -3.101  23.741  0.00  0.00    +0.000 N 
ATOM      2  C   UNL     1       8.304  -3.292  25.198  0.00  0.00    +0.000 C 
ATOM      3  C   UNL     1       8.271  -1.949  25.879  0.00  0.00    +0.000 C 
ATOM      4  N   UNL     1       8.790  -0.893  24.936  0.00  0.00    +0.000 N 
ATOM      5  C   UNL     1       8.384   0.335  25.117  0.00  0.00    +0.000 C 
ATOM      6  O   UNL     1       7.966   0.669  26.301  0.00  0.00    +0.000 OA
ATOM      7  C   UNL     1       9.905  -1.362  24.155  0.00  0.00    +0.000 C 
ATOM      8  C   UNL     1       9.437  -2.433  23.182  0.00  0.00    +0.000 C 
ENDROOT
BRANCH   1  13
ATOM      9  C   UNL     1       4.860  -2.873  24.567  0.00  0.00    +0.000 A 
ATOM     10  C   UNL     1       4.866  -4.377  24.821  0.00  0.00    +0.000 A 
ATOM     11  C   UNL     1       5.855  -5.373  24.464  0.00  0.00    +0.000 A 
ATOM     12  C   UNL     1       6.778  -4.691  23.421  0.00  0.00    +0.000 A 
ATOM     13  C   UNL     1       7.087  -3.312  23.142  0.00  0.00    +0.000 A 
ATOM     14  C   UNL     1       5.925  -2.472  23.614  0.00  0.00    +0.000 A 
BRANCH  12  15
ATOM     15  N   UNL     1       6.503  -5.342  22.446  0.00  0.00    +0.000 N 
ATOM     16  O   UNL     1       7.459  -6.019  22.039  0.00  0.00    +0.000 OA
ATOM     17  O   UNL     1       5.582  -5.460  21.469  0.00  0.00    +0.000 OA
ENDBRANCH  12  15
ENDBRANCH   1  13
BRANCH   5  18
ATOM     18  C   UNL     1       8.587   1.522  24.269  0.00  0.00    +0.000 C 
BRANCH  18  19
ATOM     19  C   UNL     1       7.387   2.147  23.653  0.00  0.00    +0.000 C 
BRANCH  19  20
ATOM     20  C   UNL     1       7.640   2.390  22.141  0.00  0.00    +0.000 C 
ATOM     21  C   UNL     1       9.087   1.890  21.872  0.00  0.00    +0.000 C 
ATOM     22  N   UNL     1       9.060   0.635  21.198  0.00  0.00    +0.000 N 
ATOM     23  H   UNL     1       9.437   0.020  21.855  0.00  0.00    +0.000 HD
ATOM     24  C   UNL     1       7.730   0.212  21.029  0.00  0.00    +0.000 A 
ATOM     25  C   UNL     1       7.830  -0.052  19.543  0.00  0.00    +0.000 A 
ATOM     26  C   UNL     1       7.008   0.523  18.493  0.00  0.00    +0.000 A 
ATOM     27  C   UNL     1       5.840   1.334  19.058  0.00  0.00    +0.000 A 
ATOM     28  F   UNL     1       4.802   0.471  18.640  0.00  0.00    +0.000 F 
ATOM     29  C   UNL     1       5.680   1.786  20.457  0.00  0.00    +0.000 A 
ATOM     30  C   UNL     1       6.794   1.303  21.402  0.00  0.00    +0.000 A 
ENDBRANCH  19  20
ENDBRANCH  18  19
ENDBRANCH   5  18
TORSDOF 5
ENDMDL
MODEL 4
REMARK VINA RESULT:      -7.9      2.617      4.216
REMARK  Name = 
REMARK  5 active torsions:
REMARK  status: ('A' for Active; 'I' for Inactive)
REMARK    1  A    between atoms: C_7  and  N_8
REMARK    2  A    between atoms: C_11  and  N_12
REMARK    3  A    between atoms: C_20  and  C_22
REMARK    4  A    between atoms: C_22  and  C_25
REMARK    5  A    between atoms: C_25  and  C_28
REMARK                            x       y       z     vdW  Elec       q    Type
REMARK                         _______ _______ _______ _____ _____    ______ ____
ROOT
ATOM      1  N   UNL     1       4.477  -5.319  25.857  0.00  0.00    +0.000 N 
ATOM      2  C   UNL     1       4.409  -5.909  24.512  0.00  0.00    +0.000 C 
ATOM      3  C   UNL     1       5.761  -5.813  23.855  0.00  0.00    +0.000 C 
ATOM      4  N   UNL     1       6.547  -4.689  24.481  0.00  0.00    +0.000 N 
ATOM      5  C   UNL     1       7.849  -4.760  24.434  0.00  0.00    +0.000 C 
ATOM      6  O   UNL     1       8.386  -5.487  23.500  0.00  0.00    +0.000 OA
ATOM      7  C   UNL     1       5.722  -3.547  24.776  0.00  0.00    +0.000 C 
ATOM      8  C   UNL     1       4.745  -3.891  25.890  0.00  0.00    +0.000 C 
ENDROOT
BRANCH   1  13
ATOM      9  C   UNL     1       2.663  -6.076  28.775  0.00  0.00    +0.000 A 
ATOM     10  C   UNL     1       3.668  -5.241  29.563  0.00  0.00    +0.000 A 
ATOM     11  C   UNL     1       4.963  -4.732  29.165  0.00  0.00    +0.000 A 
ATOM     12  C   UNL     1       5.341  -5.508  27.877  0.00  0.00    +0.000 A 
ATOM     13  C   UNL     1       4.554  -6.188  26.880  0.00  0.00    +0.000 A 
ATOM     14  C   UNL     1       3.253  -6.606  27.521  0.00  0.00    +0.000 A 
BRANCH  12  15
ATOM     15  N   UNL     1       6.276  -6.147  28.288  0.00  0.00    +0.000 N 
ATOM     16  O   UNL     1       7.353  -5.790  27.787  0.00  0.00    +0.000 OA
ATOM     17  O   UNL     1       6.584  -7.279  28.949  0.00  0.00    +0.000 OA
ENDBRANCH  12  15
ENDBRANCH   1  13
BRANCH   5  18
ATOM     18  C   UNL     1       8.858  -3.912  25.093  0.00  0.00    +0.000 C 
BRANCH  18  19
ATOM     19  C   UNL     1       9.671  -3.009  24.236  0.00  0.00    +0.000 C 
BRANCH  19  20
ATOM     20  C   UNL     1       8.922  -1.665  24.033  0.00  0.00    +0.000 C 
ATOM     21  C   UNL     1       9.776  -0.594  24.767  0.00  0.00    +0.000 C 
ATOM     22  N   UNL     1      10.500   0.193  23.825  0.00  0.00    +0.000 N 
ATOM     23  H   UNL     1      11.429  -0.040  24.004  0.00  0.00    +0.000 HD
ATOM     24  C   UNL     1      10.255  -0.277  22.522  0.00  0.00    +0.000 A 
ATOM     25  C   UNL     1       9.871   1.063  21.934  0.00  0.00    +0.000 A 
ATOM     26  C   UNL     1       8.632   1.400  21.256  0.00  0.00    +0.000 A 
ATOM     27  C   UNL     1       7.760   0.168  21.008  0.00  0.00    +0.000 A 
ATOM     28  F   UNL     1       7.880   0.141  19.600  0.00  0.00    +0.000 F 
ATOM     29  C   UNL     1       7.930  -1.167  21.623  0.00  0.00    +0.000 A 
ATOM     30  C   UNL     1       9.162  -1.282  22.536  0.00  0.00    +0.000 A 
ENDBRANCH  19  20
ENDBRANCH  18  19
ENDBRANCH   5  18
TORSDOF 5
ENDMDL
MODEL 5
REMARK VINA RESULT:      -7.8      1.509      1.914
REMARK  Name = 
REMARK  5 active torsions:
REMARK  status: ('A' for Active; 'I' for Inactive)
REMARK    1  A    between atoms: C_7  and  N_8
REMARK    2  A    between atoms: C_11  and  N_12
REMARK    3  A    between atoms: C_20  and  C_22
REMARK    4  A    between atoms: C_22  and  C_25
REMARK    5  A    between atoms: C_25  and  C_28
REMARK                            x       y       z     vdW  Elec       q    Type
REMARK                         _______ _______ _______ _____ _____    ______ ____
ROOT
ATOM      1  N   UNL     1       7.031  -4.229  24.720  0.00  0.00    +0.000 N 
ATOM      2  C   UNL     1       6.646  -3.766  26.061  0.00  0.00    +0.000 C 
ATOM      3  C   UNL     1       7.349  -2.468  26.363  0.00  0.00    +0.000 C 
ATOM      4  N   UNL     1       8.596  -2.362  25.522  0.00  0.00    +0.000 N 
ATOM      5  C   UNL     1       9.045  -1.167  25.251  0.00  0.00    +0.000 C 
ATOM      6  O   UNL     1       8.716  -0.198  26.052  0.00  0.00    +0.000 OA
ATOM      7  C   UNL     1       9.276  -3.625  25.397  0.00  0.00    +0.000 C 
ATOM      8  C   UNL     1       8.433  -4.584  24.570  0.00  0.00    +0.000 C 
ENDROOT
BRANCH   1  13
ATOM      9  C   UNL     1       3.533  -4.256  24.344  0.00  0.00    +0.000 A 
ATOM     10  C   UNL     1       3.649  -5.665  23.771  0.00  0.00    +0.000 A 
ATOM     11  C   UNL     1       4.818  -6.383  23.309  0.00  0.00    +0.000 A 
ATOM     12  C   UNL     1       5.930  -5.314  23.147  0.00  0.00    +0.000 A 
ATOM     13  C   UNL     1       6.133  -4.018  23.742  0.00  0.00    +0.000 A 
ATOM     14  C   UNL     1       4.785  -3.481  24.157  0.00  0.00    +0.000 A 
BRANCH  12  15
ATOM     15  N   UNL     1       6.063  -5.334  21.950  0.00  0.00    +0.000 N 
ATOM     16  O   UNL     1       6.934  -6.137  21.581  0.00  0.00    +0.000 OA
ATOM     17  O   UNL     1       5.763  -4.643  20.834  0.00  0.00    +0.000 OA
ENDBRANCH  12  15
ENDBRANCH   1  13
BRANCH   5  18
ATOM     18  C   UNL     1      10.123  -0.758  24.334  0.00  0.00    +0.000 C 
BRANCH  18  19
ATOM     19  C   UNL     1       9.923   0.484  23.541  0.00  0.00    +0.000 C 
BRANCH  19  20
ATOM     20  C   UNL     1       9.589   0.117  22.070  0.00  0.00    +0.000 C 
ATOM     21  C   UNL     1       9.643  -1.435  22.001  0.00  0.00    +0.000 C 
ATOM     22  N   UNL     1       8.325  -1.975  21.955  0.00  0.00    +0.000 N 
ATOM     23  H   UNL     1       8.247  -2.451  22.802  0.00  0.00    +0.000 HD
ATOM     24  C   UNL     1       7.380  -0.936  22.036  0.00  0.00    +0.000 A 
ATOM     25  C   UNL     1       6.582  -1.346  20.818  0.00  0.00    +0.000 A 
ATOM     26  C   UNL     1       6.285  -0.536  19.651  0.00  0.00    +0.000 A 
ATOM     27  C   UNL     1       6.720   0.919  19.838  0.00  0.00    +0.000 A 
ATOM     28  F   UNL     1       5.427   1.490  19.880  0.00  0.00    +0.000 F 
ATOM     29  C   UNL     1       7.612   1.441  20.896  0.00  0.00    +0.000 A 
ATOM     30  C   UNL     1       8.055   0.381  21.918  0.00  0.00    +0.000 A 
ENDBRANCH  19  20
ENDBRANCH  18  19
ENDBRANCH   5  18
TORSDOF 5
ENDMDL
MODEL 6
REMARK VINA RESULT:      -7.7      2.442      3.827
REMARK  Name = 
REMARK  5 active torsions:
REMARK  status: ('A' for Active; 'I' for Inactive)
REMARK    1  A    between atoms: C_7  and  N_8
REMARK    2  A    between atoms: C_11  and  N_12
REMARK    3  A    between atoms: C_20  and  C_22
REMARK    4  A    between atoms: C_22  and  C_25
REMARK    5  A    between atoms: C_25  and  C_28
REMARK                            x       y       z     vdW  Elec       q    Type
REMARK                         _______ _______ _______ _____ _____    ______ ____
ROOT
ATOM      1  N   UNL     1       5.024  -5.342  22.513  0.00  0.00    +0.000 N 
ATOM      2  C   UNL     1       5.991  -6.197  21.810  0.00  0.00    +0.000 C 
ATOM      3  C   UNL     1       7.352  -6.033  22.436  0.00  0.00    +0.000 C 
ATOM      4  N   UNL     1       7.427  -4.699  23.135  0.00  0.00    +0.000 N 
ATOM      5  C   UNL     1       8.269  -4.580  24.125  0.00  0.00    +0.000 C 
ATOM      6  O   UNL     1       9.283  -5.392  24.163  0.00  0.00    +0.000 OA
ATOM      7  C   UNL     1       6.760  -3.659  22.396  0.00  0.00    +0.000 C 
ATOM      8  C   UNL     1       5.261  -3.913  22.388  0.00  0.00    +0.000 C 
ENDROOT
BRANCH   1  13
ATOM      9  C   UNL     1       1.728  -5.015  23.698  0.00  0.00    +0.000 A 
ATOM     10  C   UNL     1       2.284  -4.277  24.912  0.00  0.00    +0.000 A 
ATOM     11  C   UNL     1       3.647  -4.174  25.388  0.00  0.00    +0.000 A 
ATOM     12  C   UNL     1       4.438  -5.277  24.638  0.00  0.00    +0.000 A 
ATOM     13  C   UNL     1       4.216  -5.962  23.390  0.00  0.00    +0.000 A 
ATOM     14  C   UNL     1       2.735  -5.925  23.098  0.00  0.00    +0.000 A 
BRANCH  12  15
ATOM     15  N   UNL     1       4.702  -6.005  25.560  0.00  0.00    +0.000 N 
ATOM     16  O   UNL     1       5.904  -5.972  25.864  0.00  0.00    +0.000 OA
ATOM     17  O   UNL     1       4.213  -7.035  26.278  0.00  0.00    +0.000 OA
ENDBRANCH  12  15
ENDBRANCH   1  13
BRANCH   5  18
ATOM     18  C   UNL     1       8.439  -3.473  25.082  0.00  0.00    +0.000 C 
BRANCH  18  19
ATOM     19  C   UNL     1       9.481  -2.455  24.785  0.00  0.00    +0.000 C 
BRANCH  19  20
ATOM     20  C   UNL     1       8.810  -1.084  24.505  0.00  0.00    +0.000 C 
ATOM     21  C   UNL     1       9.655  -0.035  25.280  0.00  0.00    +0.000 C 
ATOM     22  N   UNL     1      10.479   0.700  24.379  0.00  0.00    +0.000 N 
ATOM     23  H   UNL     1      11.382   0.431  24.630  0.00  0.00    +0.000 HD
ATOM     24  C   UNL     1      10.308   0.214  23.070  0.00  0.00    +0.000 A 
ATOM     25  C   UNL     1      10.027   1.557  22.433  0.00  0.00    +0.000 A 
ATOM     26  C   UNL     1       8.856   1.933  21.660  0.00  0.00    +0.000 A 
ATOM     27  C   UNL     1       7.950   0.734  21.372  0.00  0.00    +0.000 A 
ATOM     28  F   UNL     1       8.170   0.673  19.977  0.00  0.00    +0.000 F 
ATOM     29  C   UNL     1       8.016  -0.593  22.021  0.00  0.00    +0.000 A 
ATOM     30  C   UNL     1       9.173  -0.742  23.023  0.00  0.00    +0.000 A 
ENDBRANCH  19  20
ENDBRANCH  18  19
ENDBRANCH   5  18
TORSDOF 5
ENDMDL
MODEL 7
REMARK VINA RESULT:      -7.6      3.292      6.280
REMARK  Name = 
REMARK  5 active torsions:
REMARK  status: ('A' for Active; 'I' for Inactive)
REMARK    1  A    between atoms: C_7  and  N_8
REMARK    2  A    between atoms: C_11  and  N_12
REMARK    3  A    between atoms: C_20  and  C_22
REMARK    4  A    between atoms: C_22  and  C_25
REMARK    5  A    between atoms: C_25  and  C_28
REMARK                            x       y       z     vdW  Elec       q    Type
REMARK                         _______ _______ _______ _____ _____    ______ ____
ROOT
ATOM      1  N   UNL     1       9.235   1.998  23.675  0.00  0.00    +0.000 N 
ATOM      2  C   UNL     1       9.649   1.981  22.265  0.00  0.00    +0.000 C 
ATOM      3  C   UNL     1       9.788   0.554  21.801  0.00  0.00    +0.000 C 
ATOM      4  N   UNL     1      10.035  -0.340  22.990  0.00  0.00    +0.000 N 
ATOM      5  C   UNL     1       9.683  -1.593  22.890  0.00  0.00    +0.000 C 
ATOM      6  O   UNL     1       9.588  -2.106  21.700  0.00  0.00    +0.000 OA
ATOM      7  C   UNL     1      10.908   0.271  23.958  0.00  0.00    +0.000 C 
ATOM      8  C   UNL     1      10.208   1.453  24.609  0.00  0.00    +0.000 C 
ENDROOT
BRANCH   1  13
ATOM      9  C   UNL     1       7.314   3.875  25.947  0.00  0.00    +0.000 A 
ATOM     10  C   UNL     1       7.083   2.595  26.743  0.00  0.00    +0.000 A 
ATOM     11  C   UNL     1       7.322   1.217  26.369  0.00  0.00    +0.000 A 
ATOM     12  C   UNL     1       7.522   1.228  24.831  0.00  0.00    +0.000 A 
ATOM     13  C   UNL     1       7.936   2.253  23.907  0.00  0.00    +0.000 A 
ATOM     14  C   UNL     1       7.601   3.592  24.519  0.00  0.00    +0.000 A 
BRANCH  12  15
ATOM     15  N   UNL     1       6.537   0.625  24.491  0.00  0.00    +0.000 N 
ATOM     16  O   UNL     1       6.552   0.330  23.286  0.00  0.00    +0.000 OA
ATOM     17  O   UNL     1       5.285   0.321  24.884  0.00  0.00    +0.000 OA
ENDBRANCH  12  15
ENDBRANCH   1  13
BRANCH   5  18
ATOM     18  C   UNL     1       9.650  -2.642  23.925  0.00  0.00    +0.000 C 
BRANCH  18  19
ATOM     19  C   UNL     1       8.699  -2.469  25.055  0.00  0.00    +0.000 C 
BRANCH  19  20
ATOM     20  C   UNL     1       7.698  -3.654  25.082  0.00  0.00    +0.000 C 
ATOM     21  C   UNL     1       6.409  -3.101  25.752  0.00  0.00    +0.000 C 
ATOM     22  N   UNL     1       5.402  -2.869  24.770  0.00  0.00    +0.000 N 
ATOM     23  H   UNL     1       5.299  -1.900  24.779  0.00  0.00    +0.000 HD
ATOM     24  C   UNL     1       5.904  -3.167  23.491  0.00  0.00    +0.000 A 
ATOM     25  C   UNL     1       4.773  -4.083  23.081  0.00  0.00    +0.000 A 
ATOM     26  C   UNL     1       4.877  -5.463  22.639  0.00  0.00    +0.000 A 
ATOM     27  C   UNL     1       6.332  -5.892  22.439  0.00  0.00    +0.000 A 
ATOM     28  F   UNL     1       6.289  -6.023  21.032  0.00  0.00    +0.000 F 
ATOM     29  C   UNL     1       7.534  -5.171  22.911  0.00  0.00    +0.000 A 
ATOM     30  C   UNL     1       7.227  -3.831  23.602  0.00  0.00    +0.000 A 
ENDBRANCH  19  20
ENDBRANCH  18  19
ENDBRANCH   5  18
TORSDOF 5
ENDMDL
MODEL 8
REMARK VINA RESULT:      -7.6      2.652      6.213
REMARK  Name = 
REMARK  5 active torsions:
REMARK  status: ('A' for Active; 'I' for Inactive)
REMARK    1  A    between atoms: C_7  and  N_8
REMARK    2  A    between atoms: C_11  and  N_12
REMARK    3  A    between atoms: C_20  and  C_22
REMARK    4  A    between atoms: C_22  and  C_25
REMARK    5  A    between atoms: C_25  and  C_28
REMARK                            x       y       z     vdW  Elec       q    Type
REMARK                         _______ _______ _______ _____ _____    ______ ____
ROOT
ATOM      1  N   UNL     1       8.565   0.654  23.466  0.00  0.00    +0.000 N 
ATOM      2  C   UNL     1       9.679   0.182  22.632  0.00  0.00    +0.000 C 
ATOM      3  C   UNL     1      10.061  -1.214  23.050  0.00  0.00    +0.000 C 
ATOM      4  N   UNL     1       9.631  -1.448  24.476  0.00  0.00    +0.000 N 
ATOM      5  C   UNL     1       9.402  -2.679  24.846  0.00  0.00    +0.000 C 
ATOM      6  O   UNL     1       9.974  -3.633  24.175  0.00  0.00    +0.000 OA
ATOM      7  C   UNL     1       9.832  -0.286  25.302  0.00  0.00    +0.000 C 
ATOM      8  C   UNL     1       8.879   0.819  24.876  0.00  0.00    +0.000 C 
ENDROOT
BRANCH   1  13
ATOM      9  C   UNL     1       6.640  -1.597  21.567  0.00  0.00    +0.000 A 
ATOM     10  C   UNL     1       7.069  -0.838  20.315  0.00  0.00    +0.000 A 
ATOM     11  C   UNL     1       7.703   0.457  20.188  0.00  0.00    +0.000 A 
ATOM     12  C   UNL     1       7.544   1.138  21.572  0.00  0.00    +0.000 A 
ATOM     13  C   UNL     1       7.346   0.618  22.901  0.00  0.00    +0.000 A 
ATOM     14  C   UNL     1       6.691  -0.736  22.775  0.00  0.00    +0.000 A 
BRANCH  12  15
ATOM     15  N   UNL     1       6.796   2.034  21.276  0.00  0.00    +0.000 N 
ATOM     16  O   UNL     1       7.166   3.131  21.722  0.00  0.00    +0.000 OA
ATOM     17  O   UNL     1       5.557   2.276  20.807  0.00  0.00    +0.000 OA
ENDBRANCH  12  15
ENDBRANCH   1  13
BRANCH   5  18
ATOM     18  C   UNL     1       8.822  -3.186  26.102  0.00  0.00    +0.000 C 
BRANCH  18  19
ATOM     19  C   UNL     1       7.357  -3.025  26.302  0.00  0.00    +0.000 C 
BRANCH  19  20
ATOM     20  C   UNL     1       6.625  -4.326  25.879  0.00  0.00    +0.000 C 
ATOM     21  C   UNL     1       5.236  -4.273  26.575  0.00  0.00    +0.000 C 
ATOM     22  N   UNL     1       4.222  -3.938  25.630  0.00  0.00    +0.000 N 
ATOM     23  H   UNL     1       3.919  -3.061  25.928  0.00  0.00    +0.000 HD
ATOM     24  C   UNL     1       4.800  -3.711  24.369  0.00  0.00    +0.000 A 
ATOM     25  C   UNL     1       3.893  -4.648  23.602  0.00  0.00    +0.000 A 
ATOM     26  C   UNL     1       4.292  -5.769  22.768  0.00  0.00    +0.000 A 
ATOM     27  C   UNL     1       5.808  -5.824  22.570  0.00  0.00    +0.000 A 
ATOM     28  F   UNL     1       5.821  -5.506  21.192  0.00  0.00    +0.000 F 
ATOM     29  C   UNL     1       6.823  -5.074  23.340  0.00  0.00    +0.000 A 
ATOM     30  C   UNL     1       6.231  -4.109  24.381  0.00  0.00    +0.000 A 
ENDBRANCH  19  20
ENDBRANCH  18  19
ENDBRANCH   5  18
TORSDOF 5
ENDMDL
MODEL 9
REMARK VINA RESULT:      -7.6      2.320      3.319
REMARK  Name = 
REMARK  5 active torsions:
REMARK  status: ('A' for Active; 'I' for Inactive)
REMARK    1  A    between atoms: C_7  and  N_8
REMARK    2  A    between atoms: C_11  and  N_12
REMARK    3  A    between atoms: C_20  and  C_22
REMARK    4  A    between atoms: C_22  and  C_25
REMARK    5  A    between atoms: C_25  and  C_28
REMARK                            x       y       z     vdW  Elec       q    Type
REMARK                         _______ _______ _______ _____ _____    ______ ____
ROOT
ATOM      1  N   UNL     1       5.086  -5.644  24.513  0.00  0.00    +0.000 N 
ATOM      2  C   UNL     1       5.867  -6.279  23.442  0.00  0.00    +0.000 C 
ATOM      3  C   UNL     1       7.052  -5.411  23.106  0.00  0.00    +0.000 C 
ATOM      4  N   UNL     1       6.764  -3.987  23.506  0.00  0.00    +0.000 N 
ATOM      5  C   UNL     1       7.781  -3.214  23.775  0.00  0.00    +0.000 C 
ATOM      6  O   UNL     1       8.933  -3.524  23.260  0.00  0.00    +0.000 OA
ATOM      7  C   UNL     1       5.400  -3.611  23.237  0.00  0.00    +0.000 C 
ATOM      8  C   UNL     1       4.463  -4.380  24.156  0.00  0.00    +0.000 C 
ENDROOT
BRANCH   1  13
ATOM      9  C   UNL     1       3.200  -6.014  27.460  0.00  0.00    +0.000 A 
ATOM     10  C   UNL     1       3.887  -4.766  28.005  0.00  0.00    +0.000 A 
ATOM     11  C   UNL     1       5.061  -4.069  27.521  0.00  0.00    +0.000 A 
ATOM     12  C   UNL     1       5.747  -5.044  26.530  0.00  0.00    +0.000 A 
ATOM     13  C   UNL     1       5.256  -6.149  25.747  0.00  0.00    +0.000 A 
ATOM     14  C   UNL     1       4.030  -6.696  26.437  0.00  0.00    +0.000 A 
BRANCH  12  15
ATOM     15  N   UNL     1       6.757  -5.282  27.142  0.00  0.00    +0.000 N 
ATOM     16  O   UNL     1       7.766  -4.805  26.600  0.00  0.00    +0.000 OA
ATOM     17  O   UNL     1       7.253  -6.075  28.111  0.00  0.00    +0.000 OA
ENDBRANCH  12  15
ENDBRANCH   1  13
BRANCH   5  18
ATOM     18  C   UNL     1       7.800  -1.855  24.342  0.00  0.00    +0.000 C 
BRANCH  18  19
ATOM     19  C   UNL     1       8.450  -0.781  23.544  0.00  0.00    +0.000 C 
BRANCH  19  20
ATOM     20  C   UNL     1       7.397  -0.100  22.628  0.00  0.00    +0.000 C 
ATOM     21  C   UNL     1       8.020   1.261  22.211  0.00  0.00    +0.000 C 
ATOM     22  N   UNL     1       8.482   1.201  20.864  0.00  0.00    +0.000 N 
ATOM     23  H   UNL     1       9.450   1.283  20.954  0.00  0.00    +0.000 HD
ATOM     24  C   UNL     1       8.275  -0.089  20.344  0.00  0.00    +0.000 A 
ATOM     25  C   UNL     1       7.554   0.354  19.090  0.00  0.00    +0.000 A 
ATOM     26  C   UNL     1       6.232  -0.054  18.649  0.00  0.00    +0.000 A 
ATOM     27  C   UNL     1       5.658  -1.175  19.517  0.00  0.00    +0.000 A 
ATOM     28  F   UNL     1       5.696  -2.196  18.540  0.00  0.00    +0.000 F 
ATOM     29  C   UNL     1       6.171  -1.620  20.831  0.00  0.00    +0.000 A 
ATOM     30  C   UNL     1       7.450  -0.892  21.281  0.00  0.00    +0.000 A 
ENDBRANCH  19  20
ENDBRANCH  18  19
ENDBRANCH   5  18
TORSDOF 5
ENDMDL
