MODEL 1
REMARK VINA RESULT:      -9.5      0.000      0.000
REMARK  Name = 
REMARK  4 active torsions:
REMARK  status: ('A' for Active; 'I' for Inactive)
REMARK    1  A    between atoms: C_3  and  C_4
REMARK    2  A    between atoms: C_20  and  C_22
REMARK    3  A    between atoms: C_34  and  C_36
REMARK    4  A    between atoms: C_51  and  C_53
REMARK                            x       y       z     vdW  Elec       q    Type
REMARK                         _______ _______ _______ _____ _____    ______ ____
ROOT
ATOM      1  C   UNL     1       6.126  -3.654  21.350  0.00  0.00    +0.000 C 
ATOM      2  C   UNL     1       7.246  -3.864  22.351  0.00  0.00    +0.000 C 
ATOM      3  C   UNL     1       8.204  -2.727  22.251  0.00  0.00    +0.000 C 
ATOM      4  C   UNL     1       7.185  -1.586  21.753  0.00  0.00    +0.000 C 
ATOM      5  C   UNL     1       5.943  -2.084  21.398  0.00  0.00    +0.000 C 
ATOM      6  C   UNL     1       7.781  -0.259  21.668  0.00  0.00    +0.000 C 
ATOM      7  C   UNL     1       9.228  -0.227  22.126  0.00  0.00    +0.000 C 
ATOM      8  N   UNL     1       9.255  -0.883  23.425  0.00  0.00    +0.000 N 
ATOM      9  C   UNL     1       9.730  -0.226  24.492  0.00  0.00    +0.000 C 
ATOM     10  O   UNL     1      10.795   0.401  24.361  0.00  0.00    +0.000 OA
ATOM     11  C   UNL     1       8.790  -2.257  23.522  0.00  0.00    +0.000 C 
ENDROOT
BRANCH   2  12
ATOM     12  C   UNL     1       7.202  -5.109  23.145  0.00  0.00    +0.000 C 
ATOM     13  C   UNL     1       7.262  -4.632  24.433  0.00  0.00    +0.000 A 
ATOM     14  C   UNL     1       8.362  -5.322  25.224  0.00  0.00    +0.000 A 
ATOM     15  C   UNL     1       8.583  -4.932  26.569  0.00  0.00    +0.000 A 
ATOM     16  C   UNL     1       7.297  -4.307  27.133  0.00  0.00    +0.000 A 
ATOM     17  C   UNL     1       6.007  -4.181  26.480  0.00  0.00    +0.000 A 
ATOM     18  C   UNL     1       5.957  -4.839  25.247  0.00  0.00    +0.000 A 
ATOM     19  C   UNL     1       4.923  -5.947  24.967  0.00  0.00    +0.000 C 
ATOM     20  N   UNL     1       5.046  -6.334  23.703  0.00  0.00    +0.000 N 
ATOM     21  C   UNL     1       3.781  -6.164  22.904  0.00  0.00    +0.000 C 
ATOM     22  O   UNL     1       3.719  -4.780  22.981  0.00  0.00    +0.000 OA
ATOM     23  C   UNL     1       5.915  -5.887  22.872  0.00  0.00    +0.000 C 
BRANCH  21  24
ATOM     24  C   UNL     1       2.695  -6.769  23.643  0.00  0.00    +0.000 C 
ATOM     25 CL   UNL     1       1.499  -7.664  22.651  0.00  0.00    +0.000 Cl
ENDBRANCH  21  24
ENDBRANCH   2  12
BRANCH   6  26
ATOM     26  C   UNL     1       7.474   0.748  20.692  0.00  0.00    +0.000 A 
ATOM     27  C   UNL     1       7.688   0.087  19.343  0.00  0.00    +0.000 A 
ATOM     28  C   UNL     1       6.780   0.077  18.189  0.00  0.00    +0.000 A 
ATOM     29  C   UNL     1       5.633   0.993  18.576  0.00  0.00    +0.000 A 
ATOM     30  C   UNL     1       5.163   1.687  19.692  0.00  0.00    +0.000 A 
ATOM     31  C   UNL     1       6.379   1.706  20.701  0.00  0.00    +0.000 A 
ENDBRANCH   6  26
BRANCH   9  32
ATOM     32  C   UNL     1       8.768   0.192  25.567  0.00  0.00    +0.000 C 
ATOM     33 CL   UNL     1       8.785  -0.989  26.896  0.00  0.00    +0.000 Cl
ENDBRANCH   9  32
TORSDOF 4
ENDMDL
MODEL 2
REMARK VINA RESULT:      -8.4      2.626      8.259
REMARK  Name = 
REMARK  4 active torsions:
REMARK  status: ('A' for Active; 'I' for Inactive)
REMARK    1  A    between atoms: C_3  and  C_4
REMARK    2  A    between atoms: C_20  and  C_22
REMARK    3  A    between atoms: C_34  and  C_36
REMARK    4  A    between atoms: C_51  and  C_53
REMARK                            x       y       z     vdW  Elec       q    Type
REMARK                         _______ _______ _______ _____ _____    ______ ____
ROOT
ATOM      1  C   UNL     1       8.796  -0.001  25.141  0.00  0.00    +0.000 C 
ATOM      2  C   UNL     1       9.124  -0.673  23.822  0.00  0.00    +0.000 C 
ATOM      3  C   UNL     1       8.971  -2.146  23.977  0.00  0.00    +0.000 C 
ATOM      4  C   UNL     1       7.847  -2.160  25.129  0.00  0.00    +0.000 C 
ATOM      5  C   UNL     1       7.620  -0.911  25.681  0.00  0.00    +0.000 C 
ATOM      6  C   UNL     1       7.350  -3.491  25.452  0.00  0.00    +0.000 C 
ATOM      7  C   UNL     1       7.959  -4.579  24.587  0.00  0.00    +0.000 C 
ATOM      8  N   UNL     1       7.809  -4.133  23.210  0.00  0.00    +0.000 N 
ATOM      9  C   UNL     1       7.152  -4.901  22.329  0.00  0.00    +0.000 C 
ATOM     10  O   UNL     1       7.416  -6.115  22.308  0.00  0.00    +0.000 OA
ATOM     11  C   UNL     1       8.409  -2.868  22.818  0.00  0.00    +0.000 C 
ENDROOT
BRANCH   2  12
ATOM     12  C   UNL     1       9.559   0.208  22.719  0.00  0.00    +0.000 C 
ATOM     13  C   UNL     1       8.413   0.318  21.967  0.00  0.00    +0.000 A 
ATOM     14  C   UNL     1       8.681  -0.009  20.507  0.00  0.00    +0.000 A 
ATOM     15  C   UNL     1       7.600   0.027  19.590  0.00  0.00    +0.000 A 
ATOM     16  C   UNL     1       6.500   0.950  20.141  0.00  0.00    +0.000 A 
ATOM     17  C   UNL     1       6.532   1.749  21.352  0.00  0.00    +0.000 A 
ATOM     18  C   UNL     1       7.782   1.736  21.978  0.00  0.00    +0.000 A 
ATOM     19  C   UNL     1       8.566   3.037  22.237  0.00  0.00    +0.000 C 
ATOM     20  N   UNL     1       9.669   2.741  22.914  0.00  0.00    +0.000 N 
ATOM     21  C   UNL     1       9.763   3.453  24.238  0.00  0.00    +0.000 C 
ATOM     22  O   UNL     1       8.659   2.856  24.829  0.00  0.00    +0.000 OA
ATOM     23  C   UNL     1      10.036   1.559  23.252  0.00  0.00    +0.000 C 
BRANCH  21  24
ATOM     24  C   UNL     1       9.525   4.861  24.010  0.00  0.00    +0.000 C 
ATOM     25 CL   UNL     1      10.981   5.829  23.610  0.00  0.00    +0.000 Cl
ENDBRANCH  21  24
ENDBRANCH   2  12
BRANCH   6  26
ATOM     26  C   UNL     1       6.953  -3.956  26.750  0.00  0.00    +0.000 A 
ATOM     27  C   UNL     1       5.656  -3.233  27.063  0.00  0.00    +0.000 A 
ATOM     28  C   UNL     1       4.394  -3.811  27.545  0.00  0.00    +0.000 A 
ATOM     29  C   UNL     1       4.701  -5.274  27.805  0.00  0.00    +0.000 A 
ATOM     30  C   UNL     1       5.731  -6.193  27.603  0.00  0.00    +0.000 A 
ATOM     31  C   UNL     1       7.002  -5.312  27.275  0.00  0.00    +0.000 A 
ENDBRANCH   6  26
BRANCH   9  32
ATOM     32  C   UNL     1       5.814  -4.439  21.829  0.00  0.00    +0.000 C 
ATOM     33 CL   UNL     1       4.746  -4.060  23.199  0.00  0.00    +0.000 Cl
ENDBRANCH   9  32
TORSDOF 4
ENDMDL
MODEL 3
REMARK VINA RESULT:      -7.7      3.063      4.781
REMARK  Name = 
REMARK  4 active torsions:
REMARK  status: ('A' for Active; 'I' for Inactive)
REMARK    1  A    between atoms: C_3  and  C_4
REMARK    2  A    between atoms: C_20  and  C_22
REMARK    3  A    between atoms: C_34  and  C_36
REMARK    4  A    between atoms: C_51  and  C_53
REMARK                            x       y       z     vdW  Elec       q    Type
REMARK                         _______ _______ _______ _____ _____    ______ ____
ROOT
ATOM      1  C   UNL     1       6.749  -1.559  26.368  0.00  0.00    +0.000 C 
ATOM      2  C   UNL     1       6.030  -1.739  25.044  0.00  0.00    +0.000 C 
ATOM      3  C   UNL     1       6.198  -0.503  24.230  0.00  0.00    +0.000 C 
ATOM      4  C   UNL     1       7.613  -0.009  24.814  0.00  0.00    +0.000 C 
ATOM      5  C   UNL     1       8.016  -0.719  25.933  0.00  0.00    +0.000 C 
ATOM      6  C   UNL     1       8.161   1.153  24.129  0.00  0.00    +0.000 C 
ATOM      7  C   UNL     1       7.304   1.617  22.965  0.00  0.00    +0.000 C 
ATOM      8  N   UNL     1       7.043   0.434  22.159  0.00  0.00    +0.000 N 
ATOM      9  C   UNL     1       7.394   0.420  20.865  0.00  0.00    +0.000 C 
ATOM     10  O   UNL     1       7.115   1.418  20.178  0.00  0.00    +0.000 OA
ATOM     11  C   UNL     1       6.376  -0.700  22.778  0.00  0.00    +0.000 C 
ENDROOT
BRANCH   2  12
ATOM     12  C   UNL     1       5.301  -3.009  24.853  0.00  0.00    +0.000 C 
ATOM     13  C   UNL     1       6.097  -3.665  23.944  0.00  0.00    +0.000 A 
ATOM     14  C   UNL     1       5.284  -4.152  22.754  0.00  0.00    +0.000 A 
ATOM     15  C   UNL     1       5.953  -4.828  21.702  0.00  0.00    +0.000 A 
ATOM     16  C   UNL     1       7.255  -5.442  22.241  0.00  0.00    +0.000 A 
ATOM     17  C   UNL     1       7.740  -5.440  23.609  0.00  0.00    +0.000 A 
ATOM     18  C   UNL     1       6.811  -4.919  24.514  0.00  0.00    +0.000 A 
ATOM     19  C   UNL     1       6.294  -5.749  25.706  0.00  0.00    +0.000 C 
ATOM     20  N   UNL     1       5.495  -4.985  26.442  0.00  0.00    +0.000 N 
ATOM     21  C   UNL     1       5.957  -4.841  27.868  0.00  0.00    +0.000 C 
ATOM     22  O   UNL     1       7.143  -4.176  27.595  0.00  0.00    +0.000 OA
ATOM     23  C   UNL     1       5.174  -3.772  26.172  0.00  0.00    +0.000 C 
BRANCH  21  24
ATOM     24  C   UNL     1       6.218  -6.164  28.392  0.00  0.00    +0.000 C 
ATOM     25 CL   UNL     1       4.763  -7.158  28.723  0.00  0.00    +0.000 Cl
ENDBRANCH  21  24
ENDBRANCH   2  12
BRANCH   6  26
ATOM     26  C   UNL     1       8.920   2.213  24.730  0.00  0.00    +0.000 A 
ATOM     27  C   UNL     1      10.256   2.217  24.012  0.00  0.00    +0.000 A 
ATOM     28  C   UNL     1      10.962   3.362  23.422  0.00  0.00    +0.000 A 
ATOM     29  C   UNL     1      10.139   4.578  23.809  0.00  0.00    +0.000 A 
ATOM     30  C   UNL     1       8.916   4.882  24.408  0.00  0.00    +0.000 A 
ATOM     31  C   UNL     1       8.465   3.541  25.113  0.00  0.00    +0.000 A 
ENDBRANCH   6  26
BRANCH   9  32
ATOM     32  C   UNL     1       8.530  -0.463  20.437  0.00  0.00    +0.000 C 
ATOM     33 CL   UNL     1       9.838  -0.405  21.639  0.00  0.00    +0.000 Cl
ENDBRANCH   9  32
TORSDOF 4
ENDMDL
MODEL 4
REMARK VINA RESULT:      -7.6      3.167      4.403
REMARK  Name = 
REMARK  4 active torsions:
REMARK  status: ('A' for Active; 'I' for Inactive)
REMARK    1  A    between atoms: C_3  and  C_4
REMARK    2  A    between atoms: C_20  and  C_22
REMARK    3  A    between atoms: C_34  and  C_36
REMARK    4  A    between atoms: C_51  and  C_53
REMARK                            x       y       z     vdW  Elec       q    Type
REMARK                         _______ _______ _______ _____ _____    ______ ____
ROOT
ATOM      1  C   UNL     1       9.581  -1.155  24.192  0.00  0.00    +0.000 C 
ATOM      2  C   UNL     1       8.405  -1.705  23.409  0.00  0.00    +0.000 C 
ATOM      3  C   UNL     1       7.550  -0.572  22.959  0.00  0.00    +0.000 C 
ATOM      4  C   UNL     1       8.679   0.569  22.859  0.00  0.00    +0.000 C 
ATOM      5  C   UNL     1       9.890   0.184  23.408  0.00  0.00    +0.000 C 
ATOM      6  C   UNL     1       8.198   1.829  22.308  0.00  0.00    +0.000 C 
ATOM      7  C   UNL     1       6.740   1.776  21.887  0.00  0.00    +0.000 C 
ATOM      8  N   UNL     1       6.603   0.592  21.053  0.00  0.00    +0.000 N 
ATOM      9  C   UNL     1       6.138   0.710  19.801  0.00  0.00    +0.000 C 
ATOM     10  O   UNL     1       5.134   1.420  19.620  0.00  0.00    +0.000 OA
ATOM     11  C   UNL     1       6.949  -0.703  21.616  0.00  0.00    +0.000 C 
ENDROOT
BRANCH   2  12
ATOM     12  C   UNL     1       8.313  -3.176  23.297  0.00  0.00    +0.000 C 
ATOM     13  C   UNL     1       8.558  -3.579  24.588  0.00  0.00    +0.000 A 
ATOM     14  C   UNL     1       9.656  -4.630  24.636  0.00  0.00    +0.000 A 
ATOM     15  C   UNL     1      10.057  -5.141  25.896  0.00  0.00    +0.000 A 
ATOM     16  C   UNL     1       8.911  -4.960  26.904  0.00  0.00    +0.000 A 
ATOM     17  C   UNL     1       7.580  -4.437  26.655  0.00  0.00    +0.000 A 
ATOM     18  C   UNL     1       7.331  -4.211  25.298  0.00  0.00    +0.000 A 
ATOM     19  C   UNL     1       6.162  -4.900  24.568  0.00  0.00    +0.000 C 
ATOM     20  N   UNL     1       6.109  -4.443  23.322  0.00  0.00    +0.000 N 
ATOM     21  C   UNL     1       4.793  -3.796  22.981  0.00  0.00    +0.000 C 
ATOM     22  O   UNL     1       4.886  -2.742  23.879  0.00  0.00    +0.000 OA
ATOM     23  C   UNL     1       6.929  -3.602  22.807  0.00  0.00    +0.000 C 
BRANCH  21  24
ATOM     24  C   UNL     1       3.733  -4.703  23.362  0.00  0.00    +0.000 C 
ATOM     25 CL   UNL     1       2.663  -4.122  24.679  0.00  0.00    +0.000 Cl
ENDBRANCH  21  24
ENDBRANCH   2  12
BRANCH   6  26
ATOM     26  C   UNL     1       8.628   3.143  22.692  0.00  0.00    +0.000 A 
ATOM     27  C   UNL     1       7.500   4.075  22.292  0.00  0.00    +0.000 A 
ATOM     28  C   UNL     1       6.852   5.110  23.108  0.00  0.00    +0.000 A 
ATOM     29  C   UNL     1       7.647   5.154  24.400  0.00  0.00    +0.000 A 
ATOM     30  C   UNL     1       8.664   4.446  25.043  0.00  0.00    +0.000 A 
ATOM     31  C   UNL     1       9.307   3.546  23.914  0.00  0.00    +0.000 A 
ENDBRANCH   6  26
BRANCH   9  32
ATOM     32  C   UNL     1       7.083   0.482  18.657  0.00  0.00    +0.000 C 
ATOM     33 CL   UNL     1       6.565   1.420  17.239  0.00  0.00    +0.000 Cl
ENDBRANCH   9  32
TORSDOF 4
ENDMDL
MODEL 5
REMARK VINA RESULT:      -7.3      3.435      4.827
REMARK  Name = 
REMARK  4 active torsions:
REMARK  status: ('A' for Active; 'I' for Inactive)
REMARK    1  A    between atoms: C_3  and  C_4
REMARK    2  A    between atoms: C_20  and  C_22
REMARK    3  A    between atoms: C_34  and  C_36
REMARK    4  A    between atoms: C_51  and  C_53
REMARK                            x       y       z     vdW  Elec       q    Type
REMARK                         _______ _______ _______ _____ _____    ______ ____
ROOT
ATOM      1  C   UNL     1       7.408  -1.590  21.946  0.00  0.00    +0.000 C 
ATOM      2  C   UNL     1       6.580  -1.600  23.217  0.00  0.00    +0.000 C 
ATOM      3  C   UNL     1       6.924  -0.400  24.029  0.00  0.00    +0.000 C 
ATOM      4  C   UNL     1       7.351   0.593  22.837  0.00  0.00    +0.000 C 
ATOM      5  C   UNL     1       7.465  -0.045  21.613  0.00  0.00    +0.000 C 
ATOM      6  C   UNL     1       7.640   1.952  23.276  0.00  0.00    +0.000 C 
ATOM      7  C   UNL     1       7.417   2.156  24.763  0.00  0.00    +0.000 C 
ATOM      8  N   UNL     1       6.088   1.637  25.048  0.00  0.00    +0.000 N 
ATOM      9  C   UNL     1       5.167   2.435  25.605  0.00  0.00    +0.000 C 
ATOM     10  O   UNL     1       5.515   3.137  26.570  0.00  0.00    +0.000 OA
ATOM     11  C   UNL     1       5.804   0.243  24.745  0.00  0.00    +0.000 C 
ENDROOT
BRANCH   2  12
ATOM     12  C   UNL     1       5.687  -2.760  23.417  0.00  0.00    +0.000 C 
ATOM     13  C   UNL     1       6.405  -3.781  22.841  0.00  0.00    +0.000 A 
ATOM     14  C   UNL     1       5.561  -4.545  21.833  0.00  0.00    +0.000 A 
ATOM     15  C   UNL     1       6.154  -5.618  21.121  0.00  0.00    +0.000 A 
ATOM     16  C   UNL     1       7.346  -6.163  21.925  0.00  0.00    +0.000 A 
ATOM     17  C   UNL     1       7.795  -5.749  23.242  0.00  0.00    +0.000 A 
ATOM     18  C   UNL     1       6.926  -4.838  23.850  0.00  0.00    +0.000 A 
ATOM     19  C   UNL     1       6.272  -5.136  25.214  0.00  0.00    +0.000 C 
ATOM     20  N   UNL     1       5.570  -4.075  25.590  0.00  0.00    +0.000 N 
ATOM     21  C   UNL     1       6.013  -3.506  26.912  0.00  0.00    +0.000 C 
ATOM     22  O   UNL     1       7.286  -3.125  26.512  0.00  0.00    +0.000 OA
ATOM     23  C   UNL     1       5.426  -3.000  24.904  0.00  0.00    +0.000 C 
BRANCH  21  24
ATOM     24  C   UNL     1       6.077  -4.588  27.870  0.00  0.00    +0.000 C 
ATOM     25 CL   UNL     1       4.492  -5.190  28.453  0.00  0.00    +0.000 Cl
ENDBRANCH  21  24
ENDBRANCH   2  12
BRANCH   6  26
ATOM     26  C   UNL     1       8.637   2.826  22.727  0.00  0.00    +0.000 A 
ATOM     27  C   UNL     1       8.244   4.223  23.172  0.00  0.00    +0.000 A 
ATOM     28  C   UNL     1       9.094   5.243  23.800  0.00  0.00    +0.000 A 
ATOM     29  C   UNL     1      10.494   4.659  23.783  0.00  0.00    +0.000 A 
ATOM     30  C   UNL     1      11.138   3.458  23.483  0.00  0.00    +0.000 A 
ATOM     31  C   UNL     1      10.076   2.623  22.663  0.00  0.00    +0.000 A 
ENDBRANCH   6  26
BRANCH   9  32
ATOM     32  C   UNL     1       3.994   2.871  24.775  0.00  0.00    +0.000 C 
ATOM     33 CL   UNL     1       4.558   3.735  23.327  0.00  0.00    +0.000 Cl
ENDBRANCH   9  32
TORSDOF 4
ENDMDL
MODEL 6
REMARK VINA RESULT:      -7.3      2.279      3.440
REMARK  Name = 
REMARK  4 active torsions:
REMARK  status: ('A' for Active; 'I' for Inactive)
REMARK    1  A    between atoms: C_3  and  C_4
REMARK    2  A    between atoms: C_20  and  C_22
REMARK    3  A    between atoms: C_34  and  C_36
REMARK    4  A    between atoms: C_51  and  C_53
REMARK                            x       y       z     vdW  Elec       q    Type
REMARK                         _______ _______ _______ _____ _____    ______ ____
ROOT
ATOM      1  C   UNL     1       7.821  -4.987  23.777  0.00  0.00    +0.000 C 
ATOM      2  C   UNL     1       7.267  -4.696  25.159  0.00  0.00    +0.000 C 
ATOM      3  C   UNL     1       7.915  -3.466  25.692  0.00  0.00    +0.000 C 
ATOM      4  C   UNL     1       8.221  -2.722  24.298  0.00  0.00    +0.000 C 
ATOM      5  C   UNL     1       8.007  -3.528  23.194  0.00  0.00    +0.000 C 
ATOM      6  C   UNL     1       8.762  -1.378  24.453  0.00  0.00    +0.000 C 
ATOM      7  C   UNL     1       8.867  -0.943  25.903  0.00  0.00    +0.000 C 
ATOM      8  N   UNL     1       7.565  -1.205  26.499  0.00  0.00    +0.000 N 
ATOM      9  C   UNL     1       6.883  -0.205  27.074  0.00  0.00    +0.000 C 
ATOM     10  O   UNL     1       7.502   0.558  27.835  0.00  0.00    +0.000 OA
ATOM     11  C   UNL     1       7.051  -2.565  26.481  0.00  0.00    +0.000 C 
ENDROOT
BRANCH   2  12
ATOM     12  C   UNL     1       6.290  -5.664  25.699  0.00  0.00    +0.000 C 
ATOM     13  C   UNL     1       5.708  -4.949  26.718  0.00  0.00    +0.000 A 
ATOM     14  C   UNL     1       5.731  -5.732  28.022  0.00  0.00    +0.000 A 
ATOM     15  C   UNL     1       5.195  -5.131  29.188  0.00  0.00    +0.000 A 
ATOM     16  C   UNL     1       4.179  -4.051  28.781  0.00  0.00    +0.000 A 
ATOM     17  C   UNL     1       3.733  -3.709  27.443  0.00  0.00    +0.000 A 
ATOM     18  C   UNL     1       4.221  -4.583  26.467  0.00  0.00    +0.000 A 
ATOM     19  C   UNL     1       3.271  -5.378  25.550  0.00  0.00    +0.000 C 
ATOM     20  N   UNL     1       3.998  -6.057  24.671  0.00  0.00    +0.000 N 
ATOM     21  C   UNL     1       3.676  -5.713  23.241  0.00  0.00    +0.000 C 
ATOM     22  O   UNL     1       4.090  -4.389  23.290  0.00  0.00    +0.000 OA
ATOM     23  C   UNL     1       5.280  -6.078  24.629  0.00  0.00    +0.000 C 
BRANCH  21  24
ATOM     24  C   UNL     1       2.243  -5.797  23.069  0.00  0.00    +0.000 C 
ATOM     25 CL   UNL     1       1.604  -7.444  22.762  0.00  0.00    +0.000 Cl
ENDBRANCH  21  24
ENDBRANCH   2  12
BRANCH   6  26
ATOM     26  C   UNL     1       9.735  -0.752  23.603  0.00  0.00    +0.000 A 
ATOM     27  C   UNL     1       9.070  -0.629  22.245  0.00  0.00    +0.000 A 
ATOM     28  C   UNL     1       8.988   0.558  21.384  0.00  0.00    +0.000 A 
ATOM     29  C   UNL     1       9.836   1.610  22.075  0.00  0.00    +0.000 A 
ATOM     30  C   UNL     1      10.516   1.799  23.279  0.00  0.00    +0.000 A 
ATOM     31  C   UNL     1      10.623   0.356  23.916  0.00  0.00    +0.000 A 
ENDBRANCH   6  26
BRANCH   9  32
ATOM     32  C   UNL     1       5.634   0.293  26.404  0.00  0.00    +0.000 C 
ATOM     33 CL   UNL     1       6.011   0.887  24.771  0.00  0.00    +0.000 Cl
ENDBRANCH   9  32
TORSDOF 4
ENDMDL
MODEL 7
REMARK VINA RESULT:      -7.3      2.399      3.392
REMARK  Name = 
REMARK  4 active torsions:
REMARK  status: ('A' for Active; 'I' for Inactive)
REMARK    1  A    between atoms: C_3  and  C_4
REMARK    2  A    between atoms: C_20  and  C_22
REMARK    3  A    between atoms: C_34  and  C_36
REMARK    4  A    between atoms: C_51  and  C_53
REMARK                            x       y       z     vdW  Elec       q    Type
REMARK                         _______ _______ _______ _____ _____    ______ ____
ROOT
ATOM      1  C   UNL     1       5.180  -2.002  24.706  0.00  0.00    +0.000 C 
ATOM      2  C   UNL     1       6.221  -2.258  23.633  0.00  0.00    +0.000 C 
ATOM      3  C   UNL     1       6.686  -0.952  23.089  0.00  0.00    +0.000 C 
ATOM      4  C   UNL     1       6.449  -0.039  24.392  0.00  0.00    +0.000 C 
ATOM      5  C   UNL     1       5.738  -0.688  25.387  0.00  0.00    +0.000 C 
ATOM      6  C   UNL     1       6.932   1.327  24.251  0.00  0.00    +0.000 C 
ATOM      7  C   UNL     1       7.613   1.583  22.918  0.00  0.00    +0.000 C 
ATOM      8  N   UNL     1       8.587   0.516  22.750  0.00  0.00    +0.000 N 
ATOM      9  C   UNL     1       9.880   0.818  22.570  0.00  0.00    +0.000 C 
ATOM     10  O   UNL     1      10.158   1.717  21.758  0.00  0.00    +0.000 OA
ATOM     11  C   UNL     1       8.121  -0.862  22.753  0.00  0.00    +0.000 C 
ENDROOT
BRANCH   2  12
ATOM     12  C   UNL     1       6.514  -3.671  23.317  0.00  0.00    +0.000 C 
ATOM     13  C   UNL     1       7.055  -4.125  24.496  0.00  0.00    +0.000 A 
ATOM     14  C   UNL     1       8.390  -4.813  24.258  0.00  0.00    +0.000 A 
ATOM     15  C   UNL     1       9.105  -5.319  25.372  0.00  0.00    +0.000 A 
ATOM     16  C   UNL     1       8.124  -5.588  26.525  0.00  0.00    +0.000 A 
ATOM     17  C   UNL     1       6.679  -5.447  26.514  0.00  0.00    +0.000 A 
ATOM     18  C   UNL     1       6.171  -5.157  25.245  0.00  0.00    +0.000 A 
ATOM     19  C   UNL     1       5.133  -6.071  24.564  0.00  0.00    +0.000 C 
ATOM     20  N   UNL     1       4.767  -5.516  23.415  0.00  0.00    +0.000 N 
ATOM     21  C   UNL     1       3.288  -5.243  23.331  0.00  0.00    +0.000 C 
ATOM     22  O   UNL     1       3.230  -4.311  24.357  0.00  0.00    +0.000 OA
ATOM     23  C   UNL     1       5.238  -4.423  22.936  0.00  0.00    +0.000 C 
BRANCH  21  24
ATOM     24  C   UNL     1       2.586  -6.454  23.696  0.00  0.00    +0.000 C 
ATOM     25 CL   UNL     1       1.578  -7.175  22.400  0.00  0.00    +0.000 Cl
ENDBRANCH  21  24
ENDBRANCH   2  12
BRANCH   6  26
ATOM     26  C   UNL     1       6.330   2.503  24.813  0.00  0.00    +0.000 A 
ATOM     27  C   UNL     1       7.356   3.066  25.777  0.00  0.00    +0.000 A 
ATOM     28  C   UNL     1       7.835   4.451  25.879  0.00  0.00    +0.000 A 
ATOM     29  C   UNL     1       6.979   5.240  24.905  0.00  0.00    +0.000 A 
ATOM     30  C   UNL     1       6.024   5.017  23.913  0.00  0.00    +0.000 A 
ATOM     31  C   UNL     1       5.548   3.526  24.136  0.00  0.00    +0.000 A 
ENDBRANCH   6  26
BRANCH   9  32
ATOM     32  C   UNL     1      10.853   0.507  23.671  0.00  0.00    +0.000 C 
ATOM     33 CL   UNL     1      10.022   0.519  25.243  0.00  0.00    +0.000 Cl
ENDBRANCH   9  32
TORSDOF 4
ENDMDL
MODEL 8
REMARK VINA RESULT:      -7.1      2.958      7.499
REMARK  Name = 
REMARK  4 active torsions:
REMARK  status: ('A' for Active; 'I' for Inactive)
REMARK    1  A    between atoms: C_3  and  C_4
REMARK    2  A    between atoms: C_20  and  C_22
REMARK    3  A    between atoms: C_34  and  C_36
REMARK    4  A    between atoms: C_51  and  C_53
REMARK                            x       y       z     vdW  Elec       q    Type
REMARK                         _______ _______ _______ _____ _____    ______ ____
ROOT
ATOM      1  C   UNL     1       7.691  -3.362  22.455  0.00  0.00    +0.000 C 
ATOM      2  C   UNL     1       7.341  -1.887  22.398  0.00  0.00    +0.000 C 
ATOM      3  C   UNL     1       6.300  -1.597  23.423  0.00  0.00    +0.000 C 
ATOM      4  C   UNL     1       6.673  -2.741  24.490  0.00  0.00    +0.000 C 
ATOM      5  C   UNL     1       7.594  -3.654  24.007  0.00  0.00    +0.000 C 
ATOM      6  C   UNL     1       5.904  -2.669  25.725  0.00  0.00    +0.000 C 
ATOM      7  C   UNL     1       4.952  -1.488  25.765  0.00  0.00    +0.000 C 
ATOM      8  N   UNL     1       5.741  -0.319  25.408  0.00  0.00    +0.000 N 
ATOM      9  C   UNL     1       5.809   0.721  26.250  0.00  0.00    +0.000 C 
ATOM     10  O   UNL     1       4.750   1.121  26.764  0.00  0.00    +0.000 OA
ATOM     11  C   UNL     1       6.417  -0.300  24.120  0.00  0.00    +0.000 C 
ENDROOT
BRANCH   2  12
ATOM     12  C   UNL     1       8.022  -1.084  21.362  0.00  0.00    +0.000 C 
ATOM     13  C   UNL     1       7.009  -0.264  20.921  0.00  0.00    +0.000 A 
ATOM     14  C   UNL     1       6.880  -0.318  19.407  0.00  0.00    +0.000 A 
ATOM     15  C   UNL     1       5.864   0.448  18.782  0.00  0.00    +0.000 A 
ATOM     16  C   UNL     1       5.476   1.620  19.698  0.00  0.00    +0.000 A 
ATOM     17  C   UNL     1       6.069   1.989  20.970  0.00  0.00    +0.000 A 
ATOM     18  C   UNL     1       7.204   1.233  21.280  0.00  0.00    +0.000 A 
ATOM     19  C   UNL     1       8.571   1.897  21.533  0.00  0.00    +0.000 C 
ATOM     20  N   UNL     1       9.441   0.959  21.886  0.00  0.00    +0.000 N 
ATOM     21  C   UNL     1      10.057   1.198  23.239  0.00  0.00    +0.000 C 
ATOM     22  O   UNL     1       8.890   1.077  23.979  0.00  0.00    +0.000 OA
ATOM     23  C   UNL     1       9.189  -0.297  21.958  0.00  0.00    +0.000 C 
BRANCH  21  24
ATOM     24  C   UNL     1      10.550   2.558  23.277  0.00  0.00    +0.000 C 
ATOM     25 CL   UNL     1       9.551   3.709  24.223  0.00  0.00    +0.000 Cl
ENDBRANCH  21  24
ENDBRANCH   2  12
BRANCH   6  26
ATOM     26  C   UNL     1       5.458  -3.783  26.513  0.00  0.00    +0.000 A 
ATOM     27  C   UNL     1       3.944  -3.771  26.415  0.00  0.00    +0.000 A 
ATOM     28  C   UNL     1       3.051  -4.892  26.094  0.00  0.00    +0.000 A 
ATOM     29  C   UNL     1       3.953  -6.110  26.020  0.00  0.00    +0.000 A 
ATOM     30  C   UNL     1       5.313  -6.424  26.036  0.00  0.00    +0.000 A 
ATOM     31  C   UNL     1       6.023  -5.121  26.581  0.00  0.00    +0.000 A 
ENDBRANCH   6  26
BRANCH   9  32
ATOM     32  C   UNL     1       7.107   0.996  26.952  0.00  0.00    +0.000 C 
ATOM     33 CL   UNL     1       8.034  -0.510  27.135  0.00  0.00    +0.000 Cl
ENDBRANCH   9  32
TORSDOF 4
ENDMDL
MODEL 9
REMARK VINA RESULT:      -7.1      2.528      3.373
REMARK  Name = 
REMARK  4 active torsions:
REMARK  status: ('A' for Active; 'I' for Inactive)
REMARK    1  A    between atoms: C_3  and  C_4
REMARK    2  A    between atoms: C_20  and  C_22
REMARK    3  A    between atoms: C_34  and  C_36
REMARK    4  A    between atoms: C_51  and  C_53
REMARK                            x       y       z     vdW  Elec       q    Type
REMARK                         _______ _______ _______ _____ _____    ______ ____
ROOT
ATOM      1  C   UNL     1       5.144  -2.032  24.616  0.00  0.00    +0.000 C 
ATOM      2  C   UNL     1       6.214  -2.297  23.574  0.00  0.00    +0.000 C 
ATOM      3  C   UNL     1       6.674  -0.997  23.012  0.00  0.00    +0.000 C 
ATOM      4  C   UNL     1       6.395  -0.059  24.289  0.00  0.00    +0.000 C 
ATOM      5  C   UNL     1       5.669  -0.696  25.281  0.00  0.00    +0.000 C 
ATOM      6  C   UNL     1       6.863   1.311  24.129  0.00  0.00    +0.000 C 
ATOM      7  C   UNL     1       7.572   1.546  22.807  0.00  0.00    +0.000 C 
ATOM      8  N   UNL     1       8.564   0.489  22.686  0.00  0.00    +0.000 N 
ATOM      9  C   UNL     1       9.857   0.805  22.529  0.00  0.00    +0.000 C 
ATOM     10  O   UNL     1      10.142   1.690  21.704  0.00  0.00    +0.000 OA
ATOM     11  C   UNL     1       8.116  -0.894  22.708  0.00  0.00    +0.000 C 
ENDROOT
BRANCH   2  12
ATOM     12  C   UNL     1       6.532  -3.712  23.296  0.00  0.00    +0.000 C 
ATOM     13  C   UNL     1       7.043  -4.135  24.501  0.00  0.00    +0.000 A 
ATOM     14  C   UNL     1       8.393  -4.812  24.317  0.00  0.00    +0.000 A 
ATOM     15  C   UNL     1       9.079  -5.287  25.464  0.00  0.00    +0.000 A 
ATOM     16  C   UNL     1       8.065  -5.544  26.591  0.00  0.00    +0.000 A 
ATOM     17  C   UNL     1       6.620  -5.421  26.533  0.00  0.00    +0.000 A 
ATOM     18  C   UNL     1       6.148  -5.163  25.243  0.00  0.00    +0.000 A 
ATOM     19  C   UNL     1       5.143  -6.103  24.550  0.00  0.00    +0.000 C 
ATOM     20  N   UNL     1       4.805  -5.576  23.379  0.00  0.00    +0.000 N 
ATOM     21  C   UNL     1       3.327  -5.323  23.244  0.00  0.00    +0.000 C 
ATOM     22  O   UNL     1       3.227  -4.372  24.249  0.00  0.00    +0.000 OA
ATOM     23  C   UNL     1       5.278  -4.487  22.892  0.00  0.00    +0.000 C 
BRANCH  21  24
ATOM     24  C   UNL     1       2.627  -6.535  23.613  0.00  0.00    +0.000 C 
ATOM     25 CL   UNL     1       1.501  -6.377  24.999  0.00  0.00    +0.000 Cl
ENDBRANCH  21  24
ENDBRANCH   2  12
BRANCH   6  26
ATOM     26  C   UNL     1       6.232   2.489  24.650  0.00  0.00    +0.000 A 
ATOM     27  C   UNL     1       5.005   2.712  23.786  0.00  0.00    +0.000 A 
ATOM     28  C   UNL     1       3.626   2.963  24.223  0.00  0.00    +0.000 A 
ATOM     29  C   UNL     1       3.705   3.098  25.732  0.00  0.00    +0.000 A 
ATOM     30  C   UNL     1       4.630   2.929  26.764  0.00  0.00    +0.000 A 
ATOM     31  C   UNL     1       6.035   2.864  26.042  0.00  0.00    +0.000 A 
ENDBRANCH   6  26
BRANCH   9  32
ATOM     32  C   UNL     1      10.807   0.531  23.659  0.00  0.00    +0.000 C 
ATOM     33 CL   UNL     1       9.954   0.638  25.215  0.00  0.00    +0.000 Cl
ENDBRANCH   9  32
TORSDOF 4
ENDMDL
