MODEL 1
REMARK VINA RESULT:      -9.2      0.000      0.000
REMARK  Name = 
REMARK  5 active torsions:
REMARK  status: ('A' for Active; 'I' for Inactive)
REMARK    1  A    between atoms: C_7  and  C_8
REMARK    2  A    between atoms: C_24  and  C_26
REMARK    3  A    between atoms: C_26  and  N_29
REMARK    4  A    between atoms: C_33  and  S_34
REMARK    5  A    between atoms: S_34  and  N_37
REMARK                            x       y       z     vdW  Elec       q    Type
REMARK                         _______ _______ _______ _____ _____    ______ ____
ROOT
ATOM      1  C   UNL     1       8.967   2.129  22.090  0.00  0.00    +0.000 C 
ATOM      2  C   UNL     1       8.105   1.614  21.034  0.00  0.00    +0.000 A 
ATOM      3  C   UNL     1       6.744   1.834  21.115  0.00  0.00    +0.000 A 
ATOM      4  C   UNL     1       5.831   1.293  20.115  0.00  0.00    +0.000 A 
ATOM      5  C   UNL     1       6.614   0.313  19.266  0.00  0.00    +0.000 A 
ATOM      6  C   UNL     1       7.968  -0.259  19.340  0.00  0.00    +0.000 A 
ATOM      7  C   UNL     1       8.532   0.177  20.653  0.00  0.00    +0.000 A 
ATOM      8  C   UNL     1       8.801  -0.925  21.706  0.00  0.00    +0.000 C 
ATOM      9  N   UNL     1       9.507  -0.330  22.653  0.00  0.00    +0.000 N 
ATOM     10  C   UNL     1       9.206  -0.682  24.052  0.00  0.00    +0.000 C 
ATOM     11  O   UNL     1       8.100  -0.123  24.240  0.00  0.00    +0.000 OA
ATOM     12  C   UNL     1       9.714   1.019  22.689  0.00  0.00    +0.000 C 
ENDROOT
BRANCH   1  16
ATOM     13  C   UNL     1       8.960   5.823  23.584  0.00  0.00    +0.000 A 
ATOM     14  C   UNL     1       9.447   4.617  24.339  0.00  0.00    +0.000 A 
ATOM     15  C   UNL     1       8.982   3.247  24.232  0.00  0.00    +0.000 A 
ATOM     16  C   UNL     1       8.241   3.079  22.813  0.00  0.00    +0.000 A 
ATOM     17  C   UNL     1       7.365   4.132  22.301  0.00  0.00    +0.000 A 
ATOM     18  C   UNL     1       7.783   5.562  22.733  0.00  0.00    +0.000 A 
ENDBRANCH   1  16
BRANCH  10  19
ATOM     19  C   UNL     1       9.058  -2.240  23.870  0.00  0.00    +0.000 C 
BRANCH  19  20
ATOM     20  N   UNL     1       8.525  -2.872  24.832  0.00  0.00    +0.000 N 
ATOM     21  C   UNL     1       7.615  -3.692  24.428  0.00  0.00    +0.000 A 
ATOM     22  C   UNL     1       7.736  -4.396  23.249  0.00  0.00    +0.000 A 
ATOM     23  C   UNL     1       6.797  -5.393  22.821  0.00  0.00    +0.000 A 
ATOM     24  C   UNL     1       5.975  -5.798  24.015  0.00  0.00    +0.000 A 
ATOM     25  C   UNL     1       5.935  -5.383  25.372  0.00  0.00    +0.000 A 
ATOM     26  C   UNL     1       7.098  -4.512  25.655  0.00  0.00    +0.000 A 
ATOM     27  C   UNL     1       8.181  -5.256  26.588  0.00  0.00    +0.000 C 
ATOM     28  C   UNL     1       9.225  -4.260  26.787  0.00  0.00    +0.000 C 
ATOM     29  C   UNL     1       8.886  -2.922  26.122  0.00  0.00    +0.000 C 
BRANCH  23  30
ATOM     30  S   UNL     1       5.717  -4.835  21.684  0.00  0.00    +0.000 S 
ATOM     31  O   UNL     1       4.350  -5.167  22.204  0.00  0.00    +0.000 OA
ATOM     32  O   UNL     1       5.918  -5.709  20.459  0.00  0.00    +0.000 OA
BRANCH  30  33
ATOM     33  N   UNL     1       5.687  -3.319  21.158  0.00  0.00    +0.000 NA
ATOM     34  H   UNL     1       5.038  -2.747  21.772  0.00  0.00    +0.000 HD
ATOM     35  H   UNL     1       5.102  -3.236  20.285  0.00  0.00    +0.000 HD
ENDBRANCH  30  33
ENDBRANCH  23  30
ENDBRANCH  19  20
ENDBRANCH  10  19
TORSDOF 5
ENDMDL
MODEL 2
REMARK VINA RESULT:      -8.8      2.443      8.542
REMARK  Name = 
REMARK  5 active torsions:
REMARK  status: ('A' for Active; 'I' for Inactive)
REMARK    1  A    between atoms: C_7  and  C_8
REMARK    2  A    between atoms: C_24  and  C_26
REMARK    3  A    between atoms: C_26  and  N_29
REMARK    4  A    between atoms: C_33  and  S_34
REMARK    5  A    between atoms: S_34  and  N_37
REMARK                            x       y       z     vdW  Elec       q    Type
REMARK                         _______ _______ _______ _____ _____    ______ ____
ROOT
ATOM      1  C   UNL     1       5.373  -6.140  24.087  0.00  0.00    +0.000 C 
ATOM      2  C   UNL     1       6.271  -5.783  25.177  0.00  0.00    +0.000 A 
ATOM      3  C   UNL     1       5.768  -5.077  26.254  0.00  0.00    +0.000 A 
ATOM      4  C   UNL     1       6.635  -4.646  27.344  0.00  0.00    +0.000 A 
ATOM      5  C   UNL     1       8.067  -4.868  26.903  0.00  0.00    +0.000 A 
ATOM      6  C   UNL     1       8.704  -5.266  25.638  0.00  0.00    +0.000 A 
ATOM      7  C   UNL     1       7.618  -5.275  24.612  0.00  0.00    +0.000 A 
ATOM      8  C   UNL     1       7.709  -4.224  23.479  0.00  0.00    +0.000 C 
ATOM      9  N   UNL     1       6.798  -4.592  22.595  0.00  0.00    +0.000 N 
ATOM     10  C   UNL     1       6.010  -3.529  21.945  0.00  0.00    +0.000 C 
ATOM     11  O   UNL     1       5.255  -3.148  22.870  0.00  0.00    +0.000 OA
ATOM     12  C   UNL     1       5.887  -5.580  22.834  0.00  0.00    +0.000 C 
ENDROOT
BRANCH   1  16
ATOM     13  C   UNL     1       1.639  -7.516  23.869  0.00  0.00    +0.000 A 
ATOM     14  C   UNL     1       2.182  -6.427  22.985  0.00  0.00    +0.000 A 
ATOM     15  C   UNL     1       3.197  -5.440  23.302  0.00  0.00    +0.000 A 
ATOM     16  C   UNL     1       4.060  -5.991  24.543  0.00  0.00    +0.000 A 
ATOM     17  C   UNL     1       3.408  -6.672  25.661  0.00  0.00    +0.000 A 
ATOM     18  C   UNL     1       2.136  -7.463  25.258  0.00  0.00    +0.000 A 
ENDBRANCH   1  16
BRANCH  10  19
ATOM     19  C   UNL     1       7.178  -2.507  21.676  0.00  0.00    +0.000 C 
BRANCH  19  20
ATOM     20  N   UNL     1       6.844  -1.383  21.196  0.00  0.00    +0.000 N 
ATOM     21  C   UNL     1       7.540  -0.417  21.694  0.00  0.00    +0.000 A 
ATOM     22  C   UNL     1       8.876  -0.560  21.998  0.00  0.00    +0.000 A 
ATOM     23  C   UNL     1       9.706   0.519  22.453  0.00  0.00    +0.000 A 
ATOM     24  C   UNL     1       9.003   1.810  22.131  0.00  0.00    +0.000 A 
ATOM     25  C   UNL     1       7.753   2.133  21.542  0.00  0.00    +0.000 A 
ATOM     26  C   UNL     1       7.151   0.911  20.965  0.00  0.00    +0.000 A 
ATOM     27  C   UNL     1       7.187   0.936  19.354  0.00  0.00    +0.000 C 
ATOM     28  C   UNL     1       6.537  -0.308  18.962  0.00  0.00    +0.000 C 
ATOM     29  C   UNL     1       6.028  -1.103  20.169  0.00  0.00    +0.000 C 
BRANCH  23  30
ATOM     30  S   UNL     1       9.943   0.518  24.100  0.00  0.00    +0.000 S 
ATOM     31  O   UNL     1      11.375   0.908  24.319  0.00  0.00    +0.000 OA
ATOM     32  O   UNL     1       9.838  -0.932  24.533  0.00  0.00    +0.000 OA
BRANCH  30  33
ATOM     33  N   UNL     1       9.042   1.363  25.126  0.00  0.00    +0.000 NA
ATOM     34  H   UNL     1       8.329   0.720  25.579  0.00  0.00    +0.000 HD
ATOM     35  H   UNL     1       8.338   1.952  24.610  0.00  0.00    +0.000 HD
ENDBRANCH  30  33
ENDBRANCH  23  30
ENDBRANCH  19  20
ENDBRANCH  10  19
TORSDOF 5
ENDMDL
MODEL 3
REMARK VINA RESULT:      -8.2      1.899      2.904
REMARK  Name = 
REMARK  5 active torsions:
REMARK  status: ('A' for Active; 'I' for Inactive)
REMARK    1  A    between atoms: C_7  and  C_8
REMARK    2  A    between atoms: C_24  and  C_26
REMARK    3  A    between atoms: C_26  and  N_29
REMARK    4  A    between atoms: C_33  and  S_34
REMARK    5  A    between atoms: S_34  and  N_37
REMARK                            x       y       z     vdW  Elec       q    Type
REMARK                         _______ _______ _______ _____ _____    ______ ____
ROOT
ATOM      1  C   UNL     1       8.901   0.952  24.978  0.00  0.00    +0.000 C 
ATOM      2  C   UNL     1       9.105   0.435  23.631  0.00  0.00    +0.000 A 
ATOM      3  C   UNL     1       8.127   0.651  22.678  0.00  0.00    +0.000 A 
ATOM      4  C   UNL     1       8.255   0.108  21.331  0.00  0.00    +0.000 A 
ATOM      5  C   UNL     1       9.412  -0.869  21.341  0.00  0.00    +0.000 A 
ATOM      6  C   UNL     1      10.271  -1.437  22.392  0.00  0.00    +0.000 A 
ATOM      7  C   UNL     1       9.678  -1.000  23.693  0.00  0.00    +0.000 A 
ATOM      8  C   UNL     1       9.084  -2.102  24.603  0.00  0.00    +0.000 C 
ATOM      9  N   UNL     1       8.857  -1.505  25.761  0.00  0.00    +0.000 N 
ATOM     10  C   UNL     1       7.621  -1.861  26.480  0.00  0.00    +0.000 C 
ATOM     11  O   UNL     1       6.735  -1.306  25.788  0.00  0.00    +0.000 OA
ATOM     12  C   UNL     1       8.965  -0.156  25.936  0.00  0.00    +0.000 C 
ENDROOT
BRANCH   1  16
ATOM     13  C   UNL     1       7.501   4.369  26.475  0.00  0.00    +0.000 A 
ATOM     14  C   UNL     1       7.152   3.013  27.020  0.00  0.00    +0.000 A 
ATOM     15  C   UNL     1       7.045   1.759  26.299  0.00  0.00    +0.000 A 
ATOM     16  C   UNL     1       7.875   1.899  24.927  0.00  0.00    +0.000 A 
ATOM     17  C   UNL     1       7.821   3.134  24.146  0.00  0.00    +0.000 A 
ATOM     18  C   UNL     1       7.623   4.411  25.004  0.00  0.00    +0.000 A 
ENDBRANCH   1  16
BRANCH  10  19
ATOM     19  C   UNL     1       7.660  -3.419  26.251  0.00  0.00    +0.000 C 
BRANCH  19  20
ATOM     20  N   UNL     1       6.606  -4.059  26.546  0.00  0.00    +0.000 N 
ATOM     21  C   UNL     1       6.057  -4.593  25.508  0.00  0.00    +0.000 A 
ATOM     22  C   UNL     1       6.804  -5.119  24.475  0.00  0.00    +0.000 A 
ATOM     23  C   UNL     1       6.232  -5.814  23.357  0.00  0.00    +0.000 A 
ATOM     24  C   UNL     1       4.827  -6.208  23.727  0.00  0.00    +0.000 A 
ATOM     25  C   UNL     1       4.014  -6.005  24.872  0.00  0.00    +0.000 A 
ATOM     26  C   UNL     1       4.841  -5.459  25.972  0.00  0.00    +0.000 A 
ATOM     27  C   UNL     1       5.079  -6.551  27.132  0.00  0.00    +0.000 C 
ATOM     28  C   UNL     1       5.872  -5.846  28.130  0.00  0.00    +0.000 C 
ATOM     29  C   UNL     1       6.113  -4.380  27.751  0.00  0.00    +0.000 C 
BRANCH  23  30
ATOM     30  S   UNL     1       6.103  -4.871  21.992  0.00  0.00    +0.000 S 
ATOM     31  O   UNL     1       7.267  -3.924  22.023  0.00  0.00    +0.000 OA
ATOM     32  O   UNL     1       4.867  -4.015  22.195  0.00  0.00    +0.000 OA
BRANCH  30  33
ATOM     33  N   UNL     1       5.999  -5.471  20.507  0.00  0.00    +0.000 NA
ATOM     34  H   UNL     1       6.830  -6.106  20.325  0.00  0.00    +0.000 HD
ATOM     35  H   UNL     1       6.264  -4.746  19.789  0.00  0.00    +0.000 HD
ENDBRANCH  30  33
ENDBRANCH  23  30
ENDBRANCH  19  20
ENDBRANCH  10  19
TORSDOF 5
ENDMDL
MODEL 4
REMARK VINA RESULT:      -7.9      3.222      5.130
REMARK  Name = 
REMARK  5 active torsions:
REMARK  status: ('A' for Active; 'I' for Inactive)
REMARK    1  A    between atoms: C_7  and  C_8
REMARK    2  A    between atoms: C_24  and  C_26
REMARK    3  A    between atoms: C_26  and  N_29
REMARK    4  A    between atoms: C_33  and  S_34
REMARK    5  A    between atoms: S_34  and  N_37
REMARK                            x       y       z     vdW  Elec       q    Type
REMARK                         _______ _______ _______ _____ _____    ______ ____
ROOT
ATOM      1  C   UNL     1       8.811  -2.773  23.846  0.00  0.00    +0.000 C 
ATOM      2  C   UNL     1       7.945  -3.409  22.861  0.00  0.00    +0.000 A 
ATOM      3  C   UNL     1       6.969  -2.651  22.243  0.00  0.00    +0.000 A 
ATOM      4  C   UNL     1       6.040  -3.250  21.292  0.00  0.00    +0.000 A 
ATOM      5  C   UNL     1       6.199  -4.753  21.383  0.00  0.00    +0.000 A 
ATOM      6  C   UNL     1       6.945  -5.657  22.274  0.00  0.00    +0.000 A 
ATOM      7  C   UNL     1       7.496  -4.800  23.367  0.00  0.00    +0.000 A 
ATOM      8  C   UNL     1       6.944  -5.036  24.794  0.00  0.00    +0.000 C 
ATOM      9  N   UNL     1       7.745  -4.347  25.590  0.00  0.00    +0.000 N 
ATOM     10  C   UNL     1       7.131  -3.628  26.719  0.00  0.00    +0.000 C 
ATOM     11  O   UNL     1       6.545  -2.678  26.149  0.00  0.00    +0.000 OA
ATOM     12  C   UNL     1       8.693  -3.483  25.123  0.00  0.00    +0.000 C 
ENDROOT
BRANCH   1  16
ATOM     13  C   UNL     1      10.720   0.721  23.982  0.00  0.00    +0.000 A 
ATOM     14  C   UNL     1      10.023   0.104  25.161  0.00  0.00    +0.000 A 
ATOM     15  C   UNL     1       8.847  -0.746  25.161  0.00  0.00    +0.000 A 
ATOM     16  C   UNL     1       8.695  -1.389  23.694  0.00  0.00    +0.000 A 
ATOM     17  C   UNL     1       8.948  -0.586  22.498  0.00  0.00    +0.000 A 
ATOM     18  C   UNL     1      10.023   0.514  22.697  0.00  0.00    +0.000 A 
ENDBRANCH   1  16
BRANCH  10  19
ATOM     19  C   UNL     1       6.126  -4.747  27.187  0.00  0.00    +0.000 C 
BRANCH  19  20
ATOM     20  N   UNL     1       5.009  -4.349  27.637  0.00  0.00    +0.000 N 
ATOM     21  C   UNL     1       4.022  -5.018  27.143  0.00  0.00    +0.000 A 
ATOM     22  C   UNL     1       4.111  -6.369  26.883  0.00  0.00    +0.000 A 
ATOM     23  C   UNL     1       3.005  -7.165  26.434  0.00  0.00    +0.000 A 
ATOM     24  C   UNL     1       1.740  -6.397  26.712  0.00  0.00    +0.000 A 
ATOM     25  C   UNL     1       1.463  -5.116  27.257  0.00  0.00    +0.000 A 
ATOM     26  C   UNL     1       2.701  -4.550  27.837  0.00  0.00    +0.000 A 
ATOM     27  C   UNL     1       2.648  -4.535  29.447  0.00  0.00    +0.000 C 
ATOM     28  C   UNL     1       3.912  -3.928  29.842  0.00  0.00    +0.000 C 
ATOM     29  C   UNL     1       4.748  -3.491  28.633  0.00  0.00    +0.000 C 
BRANCH  23  30
ATOM     30  S   UNL     1       3.021  -7.452  24.795  0.00  0.00    +0.000 S 
ATOM     31  O   UNL     1       2.047  -6.486  24.189  0.00  0.00    +0.000 OA
ATOM     32  O   UNL     1       2.409  -8.828  24.610  0.00  0.00    +0.000 OA
BRANCH  30  33
ATOM     33  N   UNL     1       4.355  -7.428  23.904  0.00  0.00    +0.000 NA
ATOM     34  H   UNL     1       5.166  -7.809  24.474  0.00  0.00    +0.000 HD
ATOM     35  H   UNL     1       4.736  -6.449  23.824  0.00  0.00    +0.000 HD
ENDBRANCH  30  33
ENDBRANCH  23  30
ENDBRANCH  19  20
ENDBRANCH  10  19
TORSDOF 5
ENDMDL
MODEL 5
REMARK VINA RESULT:      -7.8      3.387      5.884
REMARK  Name = 
REMARK  5 active torsions:
REMARK  status: ('A' for Active; 'I' for Inactive)
REMARK    1  A    between atoms: C_7  and  C_8
REMARK    2  A    between atoms: C_24  and  C_26
REMARK    3  A    between atoms: C_26  and  N_29
REMARK    4  A    between atoms: C_33  and  S_34
REMARK    5  A    between atoms: S_34  and  N_37
REMARK                            x       y       z     vdW  Elec       q    Type
REMARK                         _______ _______ _______ _____ _____    ______ ____
ROOT
ATOM      1  C   UNL     1       6.786  -1.119  22.074  0.00  0.00    +0.000 C 
ATOM      2  C   UNL     1       7.996  -1.258  22.873  0.00  0.00    +0.000 A 
ATOM      3  C   UNL     1       9.170  -1.635  22.249  0.00  0.00    +0.000 A 
ATOM      4  C   UNL     1      10.396  -1.843  23.011  0.00  0.00    +0.000 A 
ATOM      5  C   UNL     1      10.026  -1.842  24.480  0.00  0.00    +0.000 A 
ATOM      6  C   UNL     1       8.755  -1.818  25.221  0.00  0.00    +0.000 A 
ATOM      7  C   UNL     1       7.676  -1.986  24.200  0.00  0.00    +0.000 A 
ATOM      8  C   UNL     1       6.844  -3.289  24.262  0.00  0.00    +0.000 C 
ATOM      9  N   UNL     1       5.829  -3.088  23.438  0.00  0.00    +0.000 N 
ATOM     10  C   UNL     1       5.398  -4.219  22.597  0.00  0.00    +0.000 C 
ATOM     11  O   UNL     1       6.327  -4.303  21.760  0.00  0.00    +0.000 OA
ATOM     12  C   UNL     1       5.750  -2.009  22.607  0.00  0.00    +0.000 C 
ENDROOT
BRANCH   1  16
ATOM     13  C   UNL     1       6.024   0.515  18.521  0.00  0.00    +0.000 A 
ATOM     14  C   UNL     1       5.412  -0.773  18.997  0.00  0.00    +0.000 A 
ATOM     15  C   UNL     1       5.990  -1.763  19.885  0.00  0.00    +0.000 A 
ATOM     16  C   UNL     1       7.162  -1.055  20.730  0.00  0.00    +0.000 A 
ATOM     17  C   UNL     1       8.074  -0.108  20.089  0.00  0.00    +0.000 A 
ATOM     18  C   UNL     1       7.431   0.698  18.930  0.00  0.00    +0.000 A 
ENDBRANCH   1  16
BRANCH  10  19
ATOM     19  C   UNL     1       5.477  -5.357  23.683  0.00  0.00    +0.000 C 
BRANCH  19  20
ATOM     20  N   UNL     1       4.379  -5.899  24.013  0.00  0.00    +0.000 N 
ATOM     21  C   UNL     1       4.307  -6.115  25.283  0.00  0.00    +0.000 A 
ATOM     22  C   UNL     1       4.838  -5.238  26.204  0.00  0.00    +0.000 A 
ATOM     23  C   UNL     1       4.685  -5.391  27.623  0.00  0.00    +0.000 A 
ATOM     24  C   UNL     1       3.557  -6.358  27.865  0.00  0.00    +0.000 A 
ATOM     25  C   UNL     1       2.707  -7.115  27.018  0.00  0.00    +0.000 A 
ATOM     26  C   UNL     1       2.884  -6.669  25.618  0.00  0.00    +0.000 A 
ATOM     27  C   UNL     1       1.601  -5.847  25.092  0.00  0.00    +0.000 C 
ATOM     28  C   UNL     1       1.928  -5.517  23.712  0.00  0.00    +0.000 C 
ATOM     29  C   UNL     1       3.276  -6.105  23.279  0.00  0.00    +0.000 C 
BRANCH  23  30
ATOM     30  S   UNL     1       6.023  -6.047  28.363  0.00  0.00    +0.000 S 
ATOM     31  O   UNL     1       5.712  -7.497  28.588  0.00  0.00    +0.000 OA
ATOM     32  O   UNL     1       6.084  -5.418  29.743  0.00  0.00    +0.000 OA
BRANCH  30  33
ATOM     33  N   UNL     1       7.507  -5.952  27.758  0.00  0.00    +0.000 NA
ATOM     34  H   UNL     1       8.089  -6.761  28.125  0.00  0.00    +0.000 HD
ATOM     35  H   UNL     1       8.062  -5.198  28.241  0.00  0.00    +0.000 HD
ENDBRANCH  30  33
ENDBRANCH  23  30
ENDBRANCH  19  20
ENDBRANCH  10  19
TORSDOF 5
ENDMDL
MODEL 6
REMARK VINA RESULT:      -7.8      2.594      8.409
REMARK  Name = 
REMARK  5 active torsions:
REMARK  status: ('A' for Active; 'I' for Inactive)
REMARK    1  A    between atoms: C_7  and  C_8
REMARK    2  A    between atoms: C_24  and  C_26
REMARK    3  A    between atoms: C_26  and  N_29
REMARK    4  A    between atoms: C_33  and  S_34
REMARK    5  A    between atoms: S_34  and  N_37
REMARK                            x       y       z     vdW  Elec       q    Type
REMARK                         _______ _______ _______ _____ _____    ______ ____
ROOT
ATOM      1  C   UNL     1       5.150  -6.145  24.162  0.00  0.00    +0.000 C 
ATOM      2  C   UNL     1       5.933  -5.853  25.356  0.00  0.00    +0.000 A 
ATOM      3  C   UNL     1       5.332  -5.179  26.401  0.00  0.00    +0.000 A 
ATOM      4  C   UNL     1       6.085  -4.812  27.595  0.00  0.00    +0.000 A 
ATOM      5  C   UNL     1       7.551  -5.051  27.299  0.00  0.00    +0.000 A 
ATOM      6  C   UNL     1       8.313  -5.414  26.094  0.00  0.00    +0.000 A 
ATOM      7  C   UNL     1       7.343  -5.356  24.958  0.00  0.00    +0.000 A 
ATOM      8  C   UNL     1       7.576  -4.264  23.887  0.00  0.00    +0.000 C 
ATOM      9  N   UNL     1       6.758  -4.575  22.895  0.00  0.00    +0.000 N 
ATOM     10  C   UNL     1       6.065  -3.469  22.210  0.00  0.00    +0.000 C 
ATOM     11  O   UNL     1       5.223  -3.106  23.065  0.00  0.00    +0.000 OA
ATOM     12  C   UNL     1       5.807  -5.549  22.995  0.00  0.00    +0.000 C 
ENDROOT
BRANCH   1  16
ATOM     13  C   UNL     1       1.455  -7.539  23.634  0.00  0.00    +0.000 A 
ATOM     14  C   UNL     1       2.082  -6.484  22.766  0.00  0.00    +0.000 A 
ATOM     15  C   UNL     1       3.062  -5.483  23.142  0.00  0.00    +0.000 A 
ATOM     16  C   UNL     1       3.800  -5.983  24.482  0.00  0.00    +0.000 A 
ATOM     17  C   UNL     1       3.041  -6.622  25.556  0.00  0.00    +0.000 A 
ATOM     18  C   UNL     1       1.814  -7.432  25.062  0.00  0.00    +0.000 A 
ENDBRANCH   1  16
BRANCH  10  19
ATOM     19  C   UNL     1       7.275  -2.466  22.110  0.00  0.00    +0.000 C 
BRANCH  19  20
ATOM     20  N   UNL     1       6.988  -1.259  21.849  0.00  0.00    +0.000 N 
ATOM     21  C   UNL     1       7.127  -0.494  22.878  0.00  0.00    +0.000 A 
ATOM     22  C   UNL     1       8.140  -0.678  23.795  0.00  0.00    +0.000 A 
ATOM     23  C   UNL     1       8.389   0.214  24.891  0.00  0.00    +0.000 A 
ATOM     24  C   UNL     1       7.676   1.508  24.606  0.00  0.00    +0.000 A 
ATOM     25  C   UNL     1       6.838   1.962  23.554  0.00  0.00    +0.000 A 
ATOM     26  C   UNL     1       6.871   0.986  22.442  0.00  0.00    +0.000 A 
ATOM     27  C   UNL     1       7.683   1.560  21.175  0.00  0.00    +0.000 C 
ATOM     28  C   UNL     1       7.591   0.499  20.180  0.00  0.00    +0.000 C 
ATOM     29  C   UNL     1       6.740  -0.679  20.666  0.00  0.00    +0.000 C 
BRANCH  23  30
ATOM     30  S   UNL     1       7.785  -0.338  26.340  0.00  0.00    +0.000 S 
ATOM     31  O   UNL     1       7.377   0.879  27.117  0.00  0.00    +0.000 OA
ATOM     32  O   UNL     1       8.968  -0.928  27.085  0.00  0.00    +0.000 OA
BRANCH  30  33
ATOM     33  N   UNL     1       6.598  -1.412  26.454  0.00  0.00    +0.000 NA
ATOM     34  H   UNL     1       5.676  -0.905  26.592  0.00  0.00    +0.000 HD
ATOM     35  H   UNL     1       6.601  -1.877  27.399  0.00  0.00    +0.000 HD
ENDBRANCH  30  33
ENDBRANCH  23  30
ENDBRANCH  19  20
ENDBRANCH  10  19
TORSDOF 5
ENDMDL
MODEL 7
REMARK VINA RESULT:      -7.5      2.095      3.178
REMARK  Name = 
REMARK  5 active torsions:
REMARK  status: ('A' for Active; 'I' for Inactive)
REMARK    1  A    between atoms: C_7  and  C_8
REMARK    2  A    between atoms: C_24  and  C_26
REMARK    3  A    between atoms: C_26  and  N_29
REMARK    4  A    between atoms: C_33  and  S_34
REMARK    5  A    between atoms: S_34  and  N_37
REMARK                            x       y       z     vdW  Elec       q    Type
REMARK                         _______ _______ _______ _____ _____    ______ ____
ROOT
ATOM      1  C   UNL     1       9.196   1.270  24.814  0.00  0.00    +0.000 C 
ATOM      2  C   UNL     1       9.533   0.475  23.640  0.00  0.00    +0.000 A 
ATOM      3  C   UNL     1       8.889   0.738  22.447  0.00  0.00    +0.000 A 
ATOM      4  C   UNL     1       9.148  -0.064  21.257  0.00  0.00    +0.000 A 
ATOM      5  C   UNL     1       9.949  -1.275  21.689  0.00  0.00    +0.000 A 
ATOM      6  C   UNL     1      10.360  -1.826  22.990  0.00  0.00    +0.000 A 
ATOM      7  C   UNL     1       9.647  -1.019  24.026  0.00  0.00    +0.000 A 
ATOM      8  C   UNL     1       8.581  -1.749  24.878  0.00  0.00    +0.000 C 
ATOM      9  N   UNL     1       8.285  -0.907  25.854  0.00  0.00    +0.000 N 
ATOM     10  C   UNL     1       6.874  -0.806  26.264  0.00  0.00    +0.000 C 
ATOM     11  O   UNL     1       6.355  -0.193  25.302  0.00  0.00    +0.000 OA
ATOM     12  C   UNL     1       8.731   0.383  25.883  0.00  0.00    +0.000 C 
ENDROOT
BRANCH   1  16
ATOM     13  C   UNL     1       8.614   5.169  25.394  0.00  0.00    +0.000 A 
ATOM     14  C   UNL     1       7.792   4.095  26.050  0.00  0.00    +0.000 A 
ATOM     15  C   UNL     1       7.453   2.785  25.528  0.00  0.00    +0.000 A 
ATOM     16  C   UNL     1       8.517   2.412  24.380  0.00  0.00    +0.000 A 
ATOM     17  C   UNL     1       8.967   3.424  23.424  0.00  0.00    +0.000 A 
ATOM     18  C   UNL     1       9.002   4.862  24.003  0.00  0.00    +0.000 A 
ENDBRANCH   1  16
BRANCH  10  19
ATOM     19  C   UNL     1       6.518  -2.341  26.247  0.00  0.00    +0.000 C 
BRANCH  19  20
ATOM     20  N   UNL     1       5.294  -2.634  26.098  0.00  0.00    +0.000 N 
ATOM     21  C   UNL     1       5.105  -3.441  25.109  0.00  0.00    +0.000 A 
ATOM     22  C   UNL     1       5.999  -4.445  24.805  0.00  0.00    +0.000 A 
ATOM     23  C   UNL     1       5.772  -5.425  23.781  0.00  0.00    +0.000 A 
ATOM     24  C   UNL     1       4.305  -5.410  23.444  0.00  0.00    +0.000 A 
ATOM     25  C   UNL     1       3.198  -4.642  23.889  0.00  0.00    +0.000 A 
ATOM     26  C   UNL     1       3.595  -3.845  25.071  0.00  0.00    +0.000 A 
ATOM     27  C   UNL     1       2.922  -4.410  26.421  0.00  0.00    +0.000 C 
ATOM     28  C   UNL     1       3.389  -3.504  27.461  0.00  0.00    +0.000 C 
ATOM     29  C   UNL     1       4.250  -2.368  26.898  0.00  0.00    +0.000 C 
BRANCH  23  30
ATOM     30  S   UNL     1       6.576  -5.093  22.362  0.00  0.00    +0.000 S 
ATOM     31  O   UNL     1       5.561  -5.217  21.264  0.00  0.00    +0.000 OA
ATOM     32  O   UNL     1       7.548  -6.240  22.159  0.00  0.00    +0.000 OA
BRANCH  30  33
ATOM     33  N   UNL     1       7.409  -3.745  22.109  0.00  0.00    +0.000 NA
ATOM     34  H   UNL     1       7.096  -3.003  22.800  0.00  0.00    +0.000 HD
ATOM     35  H   UNL     1       7.058  -3.241  21.252  0.00  0.00    +0.000 HD
ENDBRANCH  30  33
ENDBRANCH  23  30
ENDBRANCH  19  20
ENDBRANCH  10  19
TORSDOF 5
ENDMDL
MODEL 8
REMARK VINA RESULT:      -7.3      2.831      4.754
REMARK  Name = 
REMARK  5 active torsions:
REMARK  status: ('A' for Active; 'I' for Inactive)
REMARK    1  A    between atoms: C_7  and  C_8
REMARK    2  A    between atoms: C_24  and  C_26
REMARK    3  A    between atoms: C_26  and  N_29
REMARK    4  A    between atoms: C_33  and  S_34
REMARK    5  A    between atoms: S_34  and  N_37
REMARK                            x       y       z     vdW  Elec       q    Type
REMARK                         _______ _______ _______ _____ _____    ______ ____
ROOT
ATOM      1  C   UNL     1       7.075  -0.742  22.666  0.00  0.00    +0.000 C 
ATOM      2  C   UNL     1       8.283  -0.341  23.377  0.00  0.00    +0.000 A 
ATOM      3  C   UNL     1       9.511  -0.562  22.785  0.00  0.00    +0.000 A 
ATOM      4  C   UNL     1      10.752  -0.231  23.476  0.00  0.00    +0.000 A 
ATOM      5  C   UNL     1      10.402   0.078  24.917  0.00  0.00    +0.000 A 
ATOM      6  C   UNL     1       9.174  -0.020  25.722  0.00  0.00    +0.000 A 
ATOM      7  C   UNL     1       8.175  -0.733  24.869  0.00  0.00    +0.000 A 
ATOM      8  C   UNL     1       7.722  -2.137  25.337  0.00  0.00    +0.000 C 
ATOM      9  N   UNL     1       6.686  -2.437  24.571  0.00  0.00    +0.000 N 
ATOM     10  C   UNL     1       6.570  -3.826  24.094  0.00  0.00    +0.000 C 
ATOM     11  O   UNL     1       7.483  -3.896  23.239  0.00  0.00    +0.000 OA
ATOM     12  C   UNL     1       6.317  -1.685  23.493  0.00  0.00    +0.000 C 
ENDROOT
BRANCH   1  16
ATOM     13  C   UNL     1       6.018  -0.146  18.871  0.00  0.00    +0.000 A 
ATOM     14  C   UNL     1       5.611  -1.352  19.672  0.00  0.00    +0.000 A 
ATOM     15  C   UNL     1       6.346  -2.005  20.739  0.00  0.00    +0.000 A 
ATOM     16  C   UNL     1       7.415  -0.955  21.327  0.00  0.00    +0.000 A 
ATOM     17  C   UNL     1       8.164  -0.075  20.432  0.00  0.00    +0.000 A 
ATOM     18  C   UNL     1       7.388   0.325  19.150  0.00  0.00    +0.000 A 
ENDBRANCH   1  16
BRANCH  10  19
ATOM     19  C   UNL     1       6.955  -4.562  25.432  0.00  0.00    +0.000 C 
BRANCH  19  20
ATOM     20  N   UNL     1       6.080  -4.559  26.350  0.00  0.00    +0.000 N 
ATOM     21  C   UNL     1       4.960  -5.062  25.953  0.00  0.00    +0.000 A 
ATOM     22  C   UNL     1       4.905  -6.129  25.083  0.00  0.00    +0.000 A 
ATOM     23  C   UNL     1       3.684  -6.781  24.704  0.00  0.00    +0.000 A 
ATOM     24  C   UNL     1       2.624  -6.392  25.699  0.00  0.00    +0.000 A 
ATOM     25  C   UNL     1       2.599  -5.538  26.832  0.00  0.00    +0.000 A 
ATOM     26  C   UNL     1       3.981  -5.131  27.171  0.00  0.00    +0.000 A 
ATOM     27  C   UNL     1       4.494  -5.842  28.523  0.00  0.00    +0.000 C 
ATOM     28  C   UNL     1       5.837  -5.313  28.719  0.00  0.00    +0.000 C 
ATOM     29  C   UNL     1       6.214  -4.278  27.654  0.00  0.00    +0.000 C 
BRANCH  23  30
ATOM     30  S   UNL     1       3.118  -6.303  23.213  0.00  0.00    +0.000 S 
ATOM     31  O   UNL     1       4.322  -5.895  22.417  0.00  0.00    +0.000 OA
ATOM     32  O   UNL     1       2.332  -5.028  23.458  0.00  0.00    +0.000 OA
BRANCH  30  33
ATOM     33  N   UNL     1       2.200  -7.227  22.276  0.00  0.00    +0.000 NA
ATOM     34  H   UNL     1       2.294  -8.240  22.579  0.00  0.00    +0.000 HD
ATOM     35  H   UNL     1       2.644  -7.361  21.330  0.00  0.00    +0.000 HD
ENDBRANCH  30  33
ENDBRANCH  23  30
ENDBRANCH  19  20
ENDBRANCH  10  19
TORSDOF 5
ENDMDL
MODEL 9
REMARK VINA RESULT:      -7.2      2.702      3.975
REMARK  Name = 
REMARK  5 active torsions:
REMARK  status: ('A' for Active; 'I' for Inactive)
REMARK    1  A    between atoms: C_7  and  C_8
REMARK    2  A    between atoms: C_24  and  C_26
REMARK    3  A    between atoms: C_26  and  N_29
REMARK    4  A    between atoms: C_33  and  S_34
REMARK    5  A    between atoms: S_34  and  N_37
REMARK                            x       y       z     vdW  Elec       q    Type
REMARK                         _______ _______ _______ _____ _____    ______ ____
ROOT
ATOM      1  C   UNL     1       7.757   2.716  24.521  0.00  0.00    +0.000 C 
ATOM      2  C   UNL     1       8.791   1.863  23.948  0.00  0.00    +0.000 A 
ATOM      3  C   UNL     1       8.652   1.430  22.643  0.00  0.00    +0.000 A 
ATOM      4  C   UNL     1       9.628   0.530  22.040  0.00  0.00    +0.000 A 
ATOM      5  C   UNL     1      10.527   0.023  23.148  0.00  0.00    +0.000 A 
ATOM      6  C   UNL     1      10.518   0.140  24.615  0.00  0.00    +0.000 A 
ATOM      7  C   UNL     1       9.218   0.786  24.972  0.00  0.00    +0.000 A 
ATOM      8  C   UNL     1       8.200  -0.069  25.765  0.00  0.00    +0.000 C 
ATOM      9  N   UNL     1       7.269   0.784  26.158  0.00  0.00    +0.000 N 
ATOM     10  C   UNL     1       5.867   0.330  26.115  0.00  0.00    +0.000 C 
ATOM     11  O   UNL     1       5.624   0.316  24.886  0.00  0.00    +0.000 OA
ATOM     12  C   UNL     1       7.212   2.076  25.721  0.00  0.00    +0.000 C 
ENDROOT
BRANCH   1  16
ATOM     13  C   UNL     1       5.693   5.846  23.171  0.00  0.00    +0.000 A 
ATOM     14  C   UNL     1       5.090   4.736  23.986  0.00  0.00    +0.000 A 
ATOM     15  C   UNL     1       5.477   3.338  24.018  0.00  0.00    +0.000 A 
ATOM     16  C   UNL     1       6.986   3.223  23.471  0.00  0.00    +0.000 A 
ATOM     17  C   UNL     1       7.427   4.020  22.327  0.00  0.00    +0.000 A 
ATOM     18  C   UNL     1       6.718   5.395  22.209  0.00  0.00    +0.000 A 
ENDBRANCH   1  16
BRANCH  10  19
ATOM     19  C   UNL     1       6.076  -1.120  26.694  0.00  0.00    +0.000 C 
BRANCH  19  20
ATOM     20  N   UNL     1       5.184  -1.974  26.410  0.00  0.00    +0.000 N 
ATOM     21  C   UNL     1       5.692  -3.095  26.022  0.00  0.00    +0.000 A 
ATOM     22  C   UNL     1       6.848  -3.603  26.574  0.00  0.00    +0.000 A 
ATOM     23  C   UNL     1       7.384  -4.893  26.244  0.00  0.00    +0.000 A 
ATOM     24  C   UNL     1       6.294  -5.689  25.576  0.00  0.00    +0.000 A 
ATOM     25  C   UNL     1       4.953  -5.411  25.208  0.00  0.00    +0.000 A 
ATOM     26  C   UNL     1       4.534  -4.125  25.810  0.00  0.00    +0.000 A 
ATOM     27  C   UNL     1       3.480  -4.346  27.007  0.00  0.00    +0.000 C 
ATOM     28  C   UNL     1       3.159  -2.998  27.456  0.00  0.00    +0.000 C 
ATOM     29  C   UNL     1       3.860  -1.924  26.615  0.00  0.00    +0.000 C 
BRANCH  23  30
ATOM     30  S   UNL     1       8.641  -4.825  25.155  0.00  0.00    +0.000 S 
ATOM     31  O   UNL     1       9.039  -3.382  25.061  0.00  0.00    +0.000 OA
ATOM     32  O   UNL     1       8.041  -5.178  23.807  0.00  0.00    +0.000 OA
BRANCH  30  33
ATOM     33  N   UNL     1       9.982  -5.695  25.295  0.00  0.00    +0.000 NA
ATOM     34  H   UNL     1      10.137  -6.248  24.401  0.00  0.00    +0.000 HD
ATOM     35  H   UNL     1       9.823  -6.536  25.909  0.00  0.00    +0.000 HD
ENDBRANCH  30  33
ENDBRANCH  23  30
ENDBRANCH  19  20
ENDBRANCH  10  19
TORSDOF 5
ENDMDL
