MODEL 1
REMARK VINA RESULT:      -8.8      0.000      0.000
REMARK  Name = 
REMARK  7 active torsions:
REMARK  status: ('A' for Active; 'I' for Inactive)
REMARK    1  A    between atoms: C_5  and  N_6
REMARK    2  A    between atoms: C_8  and  C_10
REMARK    3  A    between atoms: C_10  and  C_13
REMARK    4  A    between atoms: N_22  and  C_23
REMARK    5  A    between atoms: C_28  and  O_29
REMARK    6  A    between atoms: O_29  and  C_30
REMARK    7  A    between atoms: C_46  and  N_47
REMARK                            x       y       z     vdW  Elec       q    Type
REMARK                         _______ _______ _______ _____ _____    ______ ____
ROOT
ATOM      1  C   UNL     1       9.050  -1.421  24.769  0.00  0.00    +0.000 C 
ENDROOT
BRANCH   1   2
ATOM      2  C   UNL     1       7.887  -2.279  25.173  0.00  0.00    +0.000 C 
ATOM      3  O   UNL     1       6.838  -2.176  24.493  0.00  0.00    +0.000 OA
ATOM      4  N   UNL     1       7.873  -2.913  26.359  0.00  0.00    +0.000 N 
ATOM      5  C   UNL     1       6.540  -3.032  27.032  0.00  0.00    +0.000 C 
ATOM      6  C   UNL     1       5.851  -4.270  26.525  0.00  0.00    +0.000 C 
ATOM      7  N   UNL     1       6.822  -5.047  25.674  0.00  0.00    +0.000 N 
ATOM      8  C   UNL     1       8.086  -5.341  26.394  0.00  0.00    +0.000 C 
ATOM      9  C   UNL     1       8.776  -4.011  26.677  0.00  0.00    +0.000 C 
BRANCH   7  10
ATOM     10  C   UNL     1       6.925  -4.645  24.414  0.00  0.00    +0.000 A 
ATOM     11  C   UNL     1       5.491  -4.541  24.012  0.00  0.00    +0.000 A 
ATOM     12  C   UNL     1       4.899  -4.932  22.730  0.00  0.00    +0.000 A 
ATOM     13  C   UNL     1       5.967  -5.466  21.752  0.00  0.00    +0.000 A 
ATOM     14  C   UNL     1       7.311  -5.903  22.125  0.00  0.00    +0.000 A 
ATOM     15  C   UNL     1       7.843  -5.151  23.427  0.00  0.00    +0.000 A 
BRANCH  13  16
ATOM     16  O   UNL     1       5.836  -4.849  20.413  0.00  0.00    +0.000 OA
ATOM     17  C   UNL     1       5.853  -3.453  20.502  0.00  0.00    +0.000 C 
ENDBRANCH  13  16
ENDBRANCH   7  10
ENDBRANCH   1   2
BRANCH   1  20
ATOM     18  N   UNL     1      10.046  -1.535  22.457  0.00  0.00    +0.000 N 
ATOM     19  H   UNL     1      11.094  -1.561  22.401  0.00  0.00    +0.000 HD
ATOM     20  C   UNL     1       9.815  -2.017  23.645  0.00  0.00    +0.000 C 
ATOM     21  O   UNL     1      10.276  -3.207  23.784  0.00  0.00    +0.000 OA
BRANCH  18  24
ATOM     22  C   UNL     1       8.238   1.231  23.325  0.00  0.00    +0.000 A 
ATOM     23  C   UNL     1       9.528   0.591  22.917  0.00  0.00    +0.000 A 
ATOM     24  C   UNL     1       9.748  -0.455  21.907  0.00  0.00    +0.000 A 
ATOM     25  C   UNL     1       8.410  -0.702  21.285  0.00  0.00    +0.000 A 
ATOM     26  C   UNL     1       7.114  -0.203  21.347  0.00  0.00    +0.000 A 
ATOM     27  C   UNL     1       7.053   0.642  22.661  0.00  0.00    +0.000 A 
BRANCH  26  28
ATOM     28  N   UNL     1       7.001   0.678  20.273  0.00  0.00    +0.000 N 
ATOM     29  C   UNL     1       6.918  -0.111  19.107  0.00  0.00    +0.000 C 
ATOM     30  O   UNL     1       7.969  -0.335  18.534  0.00  0.00    +0.000 OA
ATOM     31  C   UNL     1       5.681   0.301  18.305  0.00  0.00    +0.000 C 
ATOM     32  C   UNL     1       5.145   1.544  19.020  0.00  0.00    +0.000 C 
ATOM     33  C   UNL     1       5.969   1.702  20.310  0.00  0.00    +0.000 C 
ENDBRANCH  26  28
ENDBRANCH  18  24
ENDBRANCH   1  20
TORSDOF 6
ENDMDL
MODEL 2
REMARK VINA RESULT:      -8.4      2.014      6.292
REMARK  Name = 
REMARK  7 active torsions:
REMARK  status: ('A' for Active; 'I' for Inactive)
REMARK    1  A    between atoms: C_5  and  N_6
REMARK    2  A    between atoms: C_8  and  C_10
REMARK    3  A    between atoms: C_10  and  C_13
REMARK    4  A    between atoms: N_22  and  C_23
REMARK    5  A    between atoms: C_28  and  O_29
REMARK    6  A    between atoms: O_29  and  C_30
REMARK    7  A    between atoms: C_46  and  N_47
REMARK                            x       y       z     vdW  Elec       q    Type
REMARK                         _______ _______ _______ _____ _____    ______ ____
ROOT
ATOM      1  C   UNL     1       7.407   0.324  25.798  0.00  0.00    +0.000 C 
ENDROOT
BRANCH   1   2
ATOM      2  C   UNL     1       8.357   0.708  24.702  0.00  0.00    +0.000 C 
ATOM      3  O   UNL     1       8.561  -0.138  23.799  0.00  0.00    +0.000 OA
ATOM      4  N   UNL     1       9.156   1.783  24.824  0.00  0.00    +0.000 N 
ATOM      5  C   UNL     1      10.517   1.671  24.208  0.00  0.00    +0.000 C 
ATOM      6  C   UNL     1      10.429   2.080  22.762  0.00  0.00    +0.000 C 
ATOM      7  N   UNL     1       9.053   2.639  22.503  0.00  0.00    +0.000 N 
ATOM      8  C   UNL     1       8.711   3.738  23.438  0.00  0.00    +0.000 C 
ATOM      9  C   UNL     1       8.646   3.147  24.842  0.00  0.00    +0.000 C 
BRANCH   7  10
ATOM     10  C   UNL     1       8.110   1.739  22.258  0.00  0.00    +0.000 A 
ATOM     11  C   UNL     1       8.791   0.847  21.275  0.00  0.00    +0.000 A 
ATOM     12  C   UNL     1       8.205   0.234  20.079  0.00  0.00    +0.000 A 
ATOM     13  C   UNL     1       6.711   0.589  19.935  0.00  0.00    +0.000 A 
ATOM     14  C   UNL     1       6.029   1.678  20.632  0.00  0.00    +0.000 A 
ATOM     15  C   UNL     1       6.712   2.006  22.036  0.00  0.00    +0.000 A 
BRANCH  13  16
ATOM     16  O   UNL     1       5.891  -0.611  19.652  0.00  0.00    +0.000 OA
ATOM     17  C   UNL     1       5.955  -0.952  18.298  0.00  0.00    +0.000 C 
ENDBRANCH  13  16
ENDBRANCH   7  10
ENDBRANCH   1   2
BRANCH   1  20
ATOM     18  N   UNL     1       7.573  -1.980  26.808  0.00  0.00    +0.000 N 
ATOM     19  H   UNL     1       8.449  -2.519  26.596  0.00  0.00    +0.000 HD
ATOM     20  C   UNL     1       7.963  -0.744  26.666  0.00  0.00    +0.000 C 
ATOM     21  O   UNL     1       8.921  -0.443  27.467  0.00  0.00    +0.000 OA
BRANCH  18  24
ATOM     22  C   UNL     1       6.749  -5.292  26.663  0.00  0.00    +0.000 A 
ATOM     23  C   UNL     1       6.416  -3.880  27.031  0.00  0.00    +0.000 A 
ATOM     24  C   UNL     1       6.674  -2.652  26.264  0.00  0.00    +0.000 A 
ATOM     25  C   UNL     1       7.270  -3.105  24.969  0.00  0.00    +0.000 A 
ATOM     26  C   UNL     1       7.566  -4.290  24.306  0.00  0.00    +0.000 A 
ATOM     27  C   UNL     1       7.510  -5.407  25.399  0.00  0.00    +0.000 A 
BRANCH  26  28
ATOM     28  N   UNL     1       6.506  -4.504  23.427  0.00  0.00    +0.000 N 
ATOM     29  C   UNL     1       6.982  -4.204  22.134  0.00  0.00    +0.000 C 
ATOM     30  O   UNL     1       6.795  -3.066  21.744  0.00  0.00    +0.000 OA
ATOM     31  C   UNL     1       6.702  -5.388  21.206  0.00  0.00    +0.000 C 
ATOM     32  C   UNL     1       5.842  -6.344  22.036  0.00  0.00    +0.000 C 
ATOM     33  C   UNL     1       5.806  -5.779  23.467  0.00  0.00    +0.000 C 
ENDBRANCH  26  28
ENDBRANCH  18  24
ENDBRANCH   1  20
TORSDOF 6
ENDMDL
MODEL 3
REMARK VINA RESULT:      -8.4      2.375      6.878
REMARK  Name = 
REMARK  7 active torsions:
REMARK  status: ('A' for Active; 'I' for Inactive)
REMARK    1  A    between atoms: C_5  and  N_6
REMARK    2  A    between atoms: C_8  and  C_10
REMARK    3  A    between atoms: C_10  and  C_13
REMARK    4  A    between atoms: N_22  and  C_23
REMARK    5  A    between atoms: C_28  and  O_29
REMARK    6  A    between atoms: O_29  and  C_30
REMARK    7  A    between atoms: C_46  and  N_47
REMARK                            x       y       z     vdW  Elec       q    Type
REMARK                         _______ _______ _______ _____ _____    ______ ____
ROOT
ATOM      1  C   UNL     1       7.966  -0.406  20.969  0.00  0.00    +0.000 C 
ENDROOT
BRANCH   1   2
ATOM      2  C   UNL     1       7.840   0.724  21.949  0.00  0.00    +0.000 C 
ATOM      3  O   UNL     1       6.819   0.737  22.678  0.00  0.00    +0.000 OA
ATOM      4  N   UNL     1       8.632   1.807  21.862  0.00  0.00    +0.000 N 
ATOM      5  C   UNL     1       8.008   3.116  22.237  0.00  0.00    +0.000 C 
ATOM      6  C   UNL     1       8.149   3.311  23.723  0.00  0.00    +0.000 C 
ATOM      7  N   UNL     1       9.034   2.220  24.269  0.00  0.00    +0.000 N 
ATOM      8  C   UNL     1      10.339   2.154  23.567  0.00  0.00    +0.000 C 
ATOM      9  C   UNL     1      10.064   1.760  22.120  0.00  0.00    +0.000 C 
BRANCH   7  10
ATOM     10  C   UNL     1       8.426   1.069  24.525  0.00  0.00    +0.000 A 
ATOM     11  C   UNL     1       7.301   1.509  25.401  0.00  0.00    +0.000 A 
ATOM     12  C   UNL     1       6.790   0.830  26.595  0.00  0.00    +0.000 A 
ATOM     13  C   UNL     1       7.546  -0.487  26.866  0.00  0.00    +0.000 A 
ATOM     14  C   UNL     1       8.836  -0.856  26.286  0.00  0.00    +0.000 A 
ATOM     15  C   UNL     1       9.064  -0.178  24.860  0.00  0.00    +0.000 A 
BRANCH  13  16
ATOM     16  O   UNL     1       6.614  -1.606  27.132  0.00  0.00    +0.000 OA
ATOM     17  C   UNL     1       7.063  -2.785  26.530  0.00  0.00    +0.000 C 
ENDBRANCH  13  16
ENDBRANCH   7  10
ENDBRANCH   1   2
BRANCH   1  20
ATOM     18  N   UNL     1       6.107  -2.051  21.406  0.00  0.00    +0.000 N 
ATOM     19  H   UNL     1       5.172  -1.642  21.653  0.00  0.00    +0.000 HD
ATOM     20  C   UNL     1       6.667  -1.085  20.734  0.00  0.00    +0.000 C 
ATOM     21  O   UNL     1       5.990  -0.764  19.692  0.00  0.00    +0.000 OA
BRANCH  18  24
ATOM     22  C   UNL     1       7.072  -5.247  22.133  0.00  0.00    +0.000 A 
ATOM     23  C   UNL     1       7.348  -3.776  22.102  0.00  0.00    +0.000 A 
ATOM     24  C   UNL     1       6.439  -2.670  22.437  0.00  0.00    +0.000 A 
ATOM     25  C   UNL     1       5.178  -3.316  22.914  0.00  0.00    +0.000 A 
ATOM     26  C   UNL     1       4.682  -4.589  23.175  0.00  0.00    +0.000 A 
ATOM     27  C   UNL     1       5.667  -5.575  22.466  0.00  0.00    +0.000 A 
BRANCH  26  28
ATOM     28  N   UNL     1       4.817  -4.770  24.550  0.00  0.00    +0.000 N 
ATOM     29  C   UNL     1       3.524  -4.670  25.102  0.00  0.00    +0.000 C 
ATOM     30  O   UNL     1       3.193  -3.567  25.497  0.00  0.00    +0.000 OA
ATOM     31  C   UNL     1       3.244  -5.906  25.959  0.00  0.00    +0.000 C 
ATOM     32  C   UNL     1       4.575  -6.659  26.011  0.00  0.00    +0.000 C 
ATOM     33  C   UNL     1       5.528  -5.942  25.037  0.00  0.00    +0.000 C 
ENDBRANCH  26  28
ENDBRANCH  18  24
ENDBRANCH   1  20
TORSDOF 6
ENDMDL
MODEL 4
REMARK VINA RESULT:      -8.2      2.573      3.919
REMARK  Name = 
REMARK  7 active torsions:
REMARK  status: ('A' for Active; 'I' for Inactive)
REMARK    1  A    between atoms: C_5  and  N_6
REMARK    2  A    between atoms: C_8  and  C_10
REMARK    3  A    between atoms: C_10  and  C_13
REMARK    4  A    between atoms: N_22  and  C_23
REMARK    5  A    between atoms: C_28  and  O_29
REMARK    6  A    between atoms: O_29  and  C_30
REMARK    7  A    between atoms: C_46  and  N_47
REMARK                            x       y       z     vdW  Elec       q    Type
REMARK                         _______ _______ _______ _____ _____    ______ ____
ROOT
ATOM      1  C   UNL     1       8.258  -1.796  22.752  0.00  0.00    +0.000 C 
ENDROOT
BRANCH   1   2
ATOM      2  C   UNL     1       7.799  -2.426  24.033  0.00  0.00    +0.000 C 
ATOM      3  O   UNL     1       6.595  -2.270  24.348  0.00  0.00    +0.000 OA
ATOM      4  N   UNL     1       8.685  -2.895  24.931  0.00  0.00    +0.000 N 
ATOM      5  C   UNL     1       8.310  -2.743  26.373  0.00  0.00    +0.000 C 
ATOM      6  C   UNL     1       7.482  -3.929  26.786  0.00  0.00    +0.000 C 
ATOM      7  N   UNL     1       7.490  -4.935  25.664  0.00  0.00    +0.000 N 
ATOM      8  C   UNL     1       8.866  -5.304  25.252  0.00  0.00    +0.000 C 
ATOM      9  C   UNL     1       9.526  -4.056  24.677  0.00  0.00    +0.000 C 
BRANCH   7  10
ATOM     10  C   UNL     1       6.609  -4.716  24.696  0.00  0.00    +0.000 A 
ATOM     11  C   UNL     1       5.327  -4.673  25.459  0.00  0.00    +0.000 A 
ATOM     12  C   UNL     1       4.037  -5.243  25.059  0.00  0.00    +0.000 A 
ATOM     13  C   UNL     1       4.119  -5.910  23.670  0.00  0.00    +0.000 A 
ATOM     14  C   UNL     1       5.354  -6.288  22.984  0.00  0.00    +0.000 A 
ATOM     15  C   UNL     1       6.578  -5.357  23.407  0.00  0.00    +0.000 A 
BRANCH  13  16
ATOM     16  O   UNL     1       2.998  -5.490  22.798  0.00  0.00    +0.000 OA
ATOM     17  C   UNL     1       1.918  -6.369  22.915  0.00  0.00    +0.000 C 
ENDBRANCH  13  16
ENDBRANCH   7  10
ENDBRANCH   1   2
BRANCH   1  20
ATOM     18  N   UNL     1       6.711   0.165  22.414  0.00  0.00    +0.000 N 
ATOM     19  H   UNL     1       6.826   0.700  21.519  0.00  0.00    +0.000 HD
ATOM     20  C   UNL     1       7.180  -1.010  22.101  0.00  0.00    +0.000 C 
ATOM     21  O   UNL     1       6.533  -1.548  21.131  0.00  0.00    +0.000 OA
BRANCH  18  24
ATOM     22  C   UNL     1       6.010   3.452  23.028  0.00  0.00    +0.000 A 
ATOM     23  C   UNL     1       5.966   2.011  23.432  0.00  0.00    +0.000 A 
ATOM     24  C   UNL     1       7.018   0.993  23.295  0.00  0.00    +0.000 A 
ATOM     25  C   UNL     1       8.205   1.714  22.740  0.00  0.00    +0.000 A 
ATOM     26  C   UNL     1       8.587   3.007  22.402  0.00  0.00    +0.000 A 
ATOM     27  C   UNL     1       7.258   3.829  22.328  0.00  0.00    +0.000 A 
BRANCH  26  28
ATOM     28  N   UNL     1       9.317   3.479  23.491  0.00  0.00    +0.000 N 
ATOM     29  C   UNL     1      10.639   3.018  23.325  0.00  0.00    +0.000 C 
ATOM     30  O   UNL     1      10.912   1.965  23.872  0.00  0.00    +0.000 OA
ATOM     31  C   UNL     1      11.603   4.202  23.418  0.00  0.00    +0.000 C 
ATOM     32  C   UNL     1      10.732   5.386  23.845  0.00  0.00    +0.000 C 
ATOM     33  C   UNL     1       9.272   4.899  23.804  0.00  0.00    +0.000 C 
ENDBRANCH  26  28
ENDBRANCH  18  24
ENDBRANCH   1  20
TORSDOF 6
ENDMDL
MODEL 5
REMARK VINA RESULT:      -8.0      2.514      6.912
REMARK  Name = 
REMARK  7 active torsions:
REMARK  status: ('A' for Active; 'I' for Inactive)
REMARK    1  A    between atoms: C_5  and  N_6
REMARK    2  A    between atoms: C_8  and  C_10
REMARK    3  A    between atoms: C_10  and  C_13
REMARK    4  A    between atoms: N_22  and  C_23
REMARK    5  A    between atoms: C_28  and  O_29
REMARK    6  A    between atoms: O_29  and  C_30
REMARK    7  A    between atoms: C_46  and  N_47
REMARK                            x       y       z     vdW  Elec       q    Type
REMARK                         _______ _______ _______ _____ _____    ______ ____
ROOT
ATOM      1  C   UNL     1       8.464  -0.290  20.773  0.00  0.00    +0.000 C 
ENDROOT
BRANCH   1   2
ATOM      2  C   UNL     1       8.736   0.903  21.641  0.00  0.00    +0.000 C 
ATOM      3  O   UNL     1       7.990   1.900  21.493  0.00  0.00    +0.000 OA
ATOM      4  N   UNL     1       9.882   1.003  22.340  0.00  0.00    +0.000 N 
ATOM      5  C   UNL     1      10.451   2.382  22.485  0.00  0.00    +0.000 C 
ATOM      6  C   UNL     1       9.828   3.039  23.687  0.00  0.00    +0.000 C 
ATOM      7  N   UNL     1       9.006   2.012  24.424  0.00  0.00    +0.000 N 
ATOM      8  C   UNL     1       9.797   0.805  24.768  0.00  0.00    +0.000 C 
ATOM      9  C   UNL     1      10.201   0.131  23.461  0.00  0.00    +0.000 C 
BRANCH   7  10
ATOM     10  C   UNL     1       7.781   1.818  23.954  0.00  0.00    +0.000 A 
ATOM     11  C   UNL     1       7.266   3.216  23.866  0.00  0.00    +0.000 A 
ATOM     12  C   UNL     1       5.921   3.688  24.205  0.00  0.00    +0.000 A 
ATOM     13  C   UNL     1       5.011   2.528  24.659  0.00  0.00    +0.000 A 
ATOM     14  C   UNL     1       5.472   1.206  25.081  0.00  0.00    +0.000 A 
ATOM     15  C   UNL     1       6.851   0.807  24.384  0.00  0.00    +0.000 A 
BRANCH  13  16
ATOM     16  O   UNL     1       3.698   2.567  23.977  0.00  0.00    +0.000 OA
ATOM     17  C   UNL     1       3.691   3.526  22.960  0.00  0.00    +0.000 C 
ENDBRANCH  13  16
ENDBRANCH   7  10
ENDBRANCH   1   2
BRANCH   1  20
ATOM     18  N   UNL     1       6.559  -1.583  21.798  0.00  0.00    +0.000 N 
ATOM     19  H   UNL     1       5.774  -1.015  22.201  0.00  0.00    +0.000 HD
ATOM     20  C   UNL     1       7.068  -0.773  20.914  0.00  0.00    +0.000 C 
ATOM     21  O   UNL     1       6.211  -0.431  20.020  0.00  0.00    +0.000 OA
BRANCH  18  24
ATOM     22  C   UNL     1       7.318  -4.815  22.606  0.00  0.00    +0.000 A 
ATOM     23  C   UNL     1       7.734  -3.395  22.379  0.00  0.00    +0.000 A 
ATOM     24  C   UNL     1       7.041  -2.165  22.791  0.00  0.00    +0.000 A 
ATOM     25  C   UNL     1       5.853  -2.617  23.580  0.00  0.00    +0.000 A 
ATOM     26  C   UNL     1       5.295  -3.797  24.057  0.00  0.00    +0.000 A 
ATOM     27  C   UNL     1       5.994  -4.944  23.255  0.00  0.00    +0.000 A 
BRANCH  26  28
ATOM     28  N   UNL     1       5.707  -3.897  25.384  0.00  0.00    +0.000 N 
ATOM     29  C   UNL     1       6.028  -5.252  25.610  0.00  0.00    +0.000 C 
ATOM     30  O   UNL     1       5.135  -5.947  26.059  0.00  0.00    +0.000 OA
ATOM     31  C   UNL     1       7.440  -5.346  26.192  0.00  0.00    +0.000 C 
ATOM     32  C   UNL     1       7.850  -3.897  26.467  0.00  0.00    +0.000 C 
ATOM     33  C   UNL     1       6.750  -3.004  25.865  0.00  0.00    +0.000 C 
ENDBRANCH  26  28
ENDBRANCH  18  24
ENDBRANCH   1  20
TORSDOF 6
ENDMDL
MODEL 6
REMARK VINA RESULT:      -8.0      2.860      7.184
REMARK  Name = 
REMARK  7 active torsions:
REMARK  status: ('A' for Active; 'I' for Inactive)
REMARK    1  A    between atoms: C_5  and  N_6
REMARK    2  A    between atoms: C_8  and  C_10
REMARK    3  A    between atoms: C_10  and  C_13
REMARK    4  A    between atoms: N_22  and  C_23
REMARK    5  A    between atoms: C_28  and  O_29
REMARK    6  A    between atoms: O_29  and  C_30
REMARK    7  A    between atoms: C_46  and  N_47
REMARK                            x       y       z     vdW  Elec       q    Type
REMARK                         _______ _______ _______ _____ _____    ______ ____
ROOT
ATOM      1  C   UNL     1       6.317   1.708  26.291  0.00  0.00    +0.000 C 
ENDROOT
BRANCH   1   2
ATOM      2  C   UNL     1       7.337   2.457  25.484  0.00  0.00    +0.000 C 
ATOM      3  O   UNL     1       8.407   1.859  25.219  0.00  0.00    +0.000 OA
ATOM      4  N   UNL     1       7.229   3.784  25.292  0.00  0.00    +0.000 N 
ATOM      5  C   UNL     1       8.515   4.552  25.244  0.00  0.00    +0.000 C 
ATOM      6  C   UNL     1       9.035   4.536  23.832  0.00  0.00    +0.000 C 
ATOM      7  N   UNL     1       7.986   3.923  22.939  0.00  0.00    +0.000 N 
ATOM      8  C   UNL     1       6.676   4.607  23.066  0.00  0.00    +0.000 C 
ATOM      9  C   UNL     1       6.173   4.382  24.488  0.00  0.00    +0.000 C 
BRANCH   7  10
ATOM     10  C   UNL     1       7.974   2.597  22.901  0.00  0.00    +0.000 A 
ATOM     11  C   UNL     1       9.419   2.288  22.692  0.00  0.00    +0.000 A 
ATOM     12  C   UNL     1       9.988   1.254  21.822  0.00  0.00    +0.000 A 
ATOM     13  C   UNL     1       8.885   0.435  21.120  0.00  0.00    +0.000 A 
ATOM     14  C   UNL     1       7.484   0.834  20.997  0.00  0.00    +0.000 A 
ATOM     15  C   UNL     1       7.023   1.771  22.203  0.00  0.00    +0.000 A 
BRANCH  13  16
ATOM     16  O   UNL     1       9.136  -1.020  21.227  0.00  0.00    +0.000 OA
ATOM     17  C   UNL     1       9.985  -1.303  22.301  0.00  0.00    +0.000 C 
ENDBRANCH  13  16
ENDBRANCH   7  10
ENDBRANCH   1   2
BRANCH   1  20
ATOM     18  N   UNL     1       5.551  -0.141  24.760  0.00  0.00    +0.000 N 
ATOM     19  H   UNL     1       4.782  -0.757  25.122  0.00  0.00    +0.000 HD
ATOM     20  C   UNL     1       5.367   0.961  25.430  0.00  0.00    +0.000 C 
ATOM     21  O   UNL     1       4.205   1.466  25.223  0.00  0.00    +0.000 OA
BRANCH  18  24
ATOM     22  C   UNL     1       6.099  -3.191  23.320  0.00  0.00    +0.000 A 
ATOM     23  C   UNL     1       6.400  -1.729  23.433  0.00  0.00    +0.000 A 
ATOM     24  C   UNL     1       6.523  -0.915  24.652  0.00  0.00    +0.000 A 
ATOM     25  C   UNL     1       6.375  -1.872  25.792  0.00  0.00    +0.000 A 
ATOM     26  C   UNL     1       6.228  -3.238  26.005  0.00  0.00    +0.000 A 
ATOM     27  C   UNL     1       5.813  -3.835  24.621  0.00  0.00    +0.000 A 
BRANCH  26  28
ATOM     28  N   UNL     1       7.505  -3.710  26.304  0.00  0.00    +0.000 N 
ATOM     29  C   UNL     1       7.505  -5.091  26.021  0.00  0.00    +0.000 C 
ATOM     30  O   UNL     1       7.247  -5.830  26.953  0.00  0.00    +0.000 OA
ATOM     31  C   UNL     1       8.673  -5.415  25.086  0.00  0.00    +0.000 C 
ATOM     32  C   UNL     1       9.477  -4.116  24.998  0.00  0.00    +0.000 C 
ATOM     33  C   UNL     1       8.657  -3.036  25.725  0.00  0.00    +0.000 C 
ENDBRANCH  26  28
ENDBRANCH  18  24
ENDBRANCH   1  20
TORSDOF 6
ENDMDL
MODEL 7
REMARK VINA RESULT:      -7.9      2.822      4.663
REMARK  Name = 
REMARK  7 active torsions:
REMARK  status: ('A' for Active; 'I' for Inactive)
REMARK    1  A    between atoms: C_5  and  N_6
REMARK    2  A    between atoms: C_8  and  C_10
REMARK    3  A    between atoms: C_10  and  C_13
REMARK    4  A    between atoms: N_22  and  C_23
REMARK    5  A    between atoms: C_28  and  O_29
REMARK    6  A    between atoms: O_29  and  C_30
REMARK    7  A    between atoms: C_46  and  N_47
REMARK                            x       y       z     vdW  Elec       q    Type
REMARK                         _______ _______ _______ _____ _____    ______ ____
ROOT
ATOM      1  C   UNL     1       8.449  -2.987  25.167  0.00  0.00    +0.000 C 
ENDROOT
BRANCH   1   2
ATOM      2  C   UNL     1       7.656  -4.092  24.535  0.00  0.00    +0.000 C 
ATOM      3  O   UNL     1       7.559  -5.165  25.178  0.00  0.00    +0.000 OA
ATOM      4  N   UNL     1       7.303  -4.038  23.238  0.00  0.00    +0.000 N 
ATOM      5  C   UNL     1       7.281  -5.342  22.502  0.00  0.00    +0.000 C 
ATOM      6  C   UNL     1       5.933  -5.983  22.693  0.00  0.00    +0.000 C 
ATOM      7  N   UNL     1       5.027  -5.000  23.389  0.00  0.00    +0.000 N 
ATOM      8  C   UNL     1       4.956  -3.702  22.674  0.00  0.00    +0.000 C 
ATOM      9  C   UNL     1       6.343  -3.072  22.722  0.00  0.00    +0.000 C 
BRANCH   7  10
ATOM     10  C   UNL     1       5.141  -4.956  24.710  0.00  0.00    +0.000 A 
ATOM     11  C   UNL     1       4.934  -6.387  25.079  0.00  0.00    +0.000 A 
ATOM     12  C   UNL     1       4.176  -6.908  26.219  0.00  0.00    +0.000 A 
ATOM     13  C   UNL     1       3.599  -5.768  27.084  0.00  0.00    +0.000 A 
ATOM     14  C   UNL     1       3.465  -4.374  26.666  0.00  0.00    +0.000 A 
ATOM     15  C   UNL     1       4.566  -3.968  25.585  0.00  0.00    +0.000 A 
BRANCH  13  16
ATOM     16  O   UNL     1       3.867  -5.988  28.524  0.00  0.00    +0.000 OA
ATOM     17  C   UNL     1       4.863  -6.952  28.705  0.00  0.00    +0.000 C 
ENDBRANCH  13  16
ENDBRANCH   7  10
ENDBRANCH   1   2
BRANCH   1  20
ATOM     18  N   UNL     1       9.608  -1.320  23.672  0.00  0.00    +0.000 N 
ATOM     19  H   UNL     1      10.547  -0.980  23.994  0.00  0.00    +0.000 HD
ATOM     20  C   UNL     1       9.511  -2.478  24.262  0.00  0.00    +0.000 C 
ATOM     21  O   UNL     1      10.456  -3.277  23.921  0.00  0.00    +0.000 OA
BRANCH  18  24
ATOM     22  C   UNL     1       9.039   1.309  21.565  0.00  0.00    +0.000 A 
ATOM     23  C   UNL     1       8.547   0.121  22.331  0.00  0.00    +0.000 A 
ATOM     24  C   UNL     1       8.898  -0.294  23.697  0.00  0.00    +0.000 A 
ATOM     25  C   UNL     1       9.800   0.777  24.223  0.00  0.00    +0.000 A 
ATOM     26  C   UNL     1      10.311   2.009  23.829  0.00  0.00    +0.000 A 
ATOM     27  C   UNL     1      10.074   2.085  22.285  0.00  0.00    +0.000 A 
BRANCH  26  28
ATOM     28  N   UNL     1       9.493   2.964  24.430  0.00  0.00    +0.000 N 
ATOM     29  C   UNL     1       9.532   4.109  23.608  0.00  0.00    +0.000 C 
ATOM     30  O   UNL     1      10.364   4.949  23.899  0.00  0.00    +0.000 OA
ATOM     31  C   UNL     1       8.103   4.532  23.262  0.00  0.00    +0.000 C 
ATOM     32  C   UNL     1       7.209   3.633  24.119  0.00  0.00    +0.000 C 
ATOM     33  C   UNL     1       8.131   2.598  24.788  0.00  0.00    +0.000 C 
ENDBRANCH  26  28
ENDBRANCH  18  24
ENDBRANCH   1  20
TORSDOF 6
ENDMDL
MODEL 8
REMARK VINA RESULT:      -7.9      2.442      6.679
REMARK  Name = 
REMARK  7 active torsions:
REMARK  status: ('A' for Active; 'I' for Inactive)
REMARK    1  A    between atoms: C_5  and  N_6
REMARK    2  A    between atoms: C_8  and  C_10
REMARK    3  A    between atoms: C_10  and  C_13
REMARK    4  A    between atoms: N_22  and  C_23
REMARK    5  A    between atoms: C_28  and  O_29
REMARK    6  A    between atoms: O_29  and  C_30
REMARK    7  A    between atoms: C_46  and  N_47
REMARK                            x       y       z     vdW  Elec       q    Type
REMARK                         _______ _______ _______ _____ _____    ______ ____
ROOT
ATOM      1  C   UNL     1       7.925  -0.797  21.282  0.00  0.00    +0.000 C 
ENDROOT
BRANCH   1   2
ATOM      2  C   UNL     1       7.840   0.455  22.105  0.00  0.00    +0.000 C 
ATOM      3  O   UNL     1       6.841   0.581  22.852  0.00  0.00    +0.000 OA
ATOM      4  N   UNL     1       8.641   1.505  21.852  0.00  0.00    +0.000 N 
ATOM      5  C   UNL     1       8.043   2.862  22.065  0.00  0.00    +0.000 C 
ATOM      6  C   UNL     1       8.228   3.251  23.507  0.00  0.00    +0.000 C 
ATOM      7  N   UNL     1       9.116   2.230  24.171  0.00  0.00    +0.000 N 
ATOM      8  C   UNL     1      10.400   2.051  23.449  0.00  0.00    +0.000 C 
ATOM      9  C   UNL     1      10.080   1.472  22.075  0.00  0.00    +0.000 C 
BRANCH   7  10
ATOM     10  C   UNL     1       8.504   1.132  24.595  0.00  0.00    +0.000 A 
ATOM     11  C   UNL     1       7.382   1.703  25.398  0.00  0.00    +0.000 A 
ATOM     12  C   UNL     1       6.870   1.211  26.679  0.00  0.00    +0.000 A 
ATOM     13  C   UNL     1       7.621  -0.056  27.141  0.00  0.00    +0.000 A 
ATOM     14  C   UNL     1       8.908  -0.513  26.620  0.00  0.00    +0.000 A 
ATOM     15  C   UNL     1       9.136  -0.055  25.109  0.00  0.00    +0.000 A 
BRANCH  13  16
ATOM     16  O   UNL     1       6.683  -1.118  27.570  0.00  0.00    +0.000 OA
ATOM     17  C   UNL     1       5.367  -0.647  27.585  0.00  0.00    +0.000 C 
ENDBRANCH  13  16
ENDBRANCH   7  10
ENDBRANCH   1   2
BRANCH   1  20
ATOM     18  N   UNL     1       8.050  -2.784  22.827  0.00  0.00    +0.000 N 
ATOM     19  H   UNL     1       8.345  -3.694  22.393  0.00  0.00    +0.000 HD
ATOM     20  C   UNL     1       8.578  -1.905  22.022  0.00  0.00    +0.000 C 
ATOM     21  O   UNL     1       9.855  -2.016  21.955  0.00  0.00    +0.000 OA
BRANCH  18  24
ATOM     22  C   UNL     1       6.553  -3.887  25.694  0.00  0.00    +0.000 A 
ATOM     23  C   UNL     1       6.758  -2.832  24.651  0.00  0.00    +0.000 A 
ATOM     24  C   UNL     1       6.878  -3.000  23.195  0.00  0.00    +0.000 A 
ATOM     25  C   UNL     1       6.661  -4.457  22.939  0.00  0.00    +0.000 A 
ATOM     26  C   UNL     1       6.334  -5.611  23.642  0.00  0.00    +0.000 A 
ATOM     27  C   UNL     1       6.566  -5.263  25.148  0.00  0.00    +0.000 A 
BRANCH  26  28
ATOM     28  N   UNL     1       4.965  -5.788  23.455  0.00  0.00    +0.000 N 
ATOM     29  C   UNL     1       4.475  -6.425  24.613  0.00  0.00    +0.000 C 
ATOM     30  O   UNL     1       4.420  -7.641  24.575  0.00  0.00    +0.000 OA
ATOM     31  C   UNL     1       3.298  -5.622  25.172  0.00  0.00    +0.000 C 
ATOM     32  C   UNL     1       3.020  -4.548  24.118  0.00  0.00    +0.000 C 
ATOM     33  C   UNL     1       4.152  -4.641  23.080  0.00  0.00    +0.000 C 
ENDBRANCH  26  28
ENDBRANCH  18  24
ENDBRANCH   1  20
TORSDOF 6
ENDMDL
MODEL 9
REMARK VINA RESULT:      -7.8      2.422      6.948
REMARK  Name = 
REMARK  7 active torsions:
REMARK  status: ('A' for Active; 'I' for Inactive)
REMARK    1  A    between atoms: C_5  and  N_6
REMARK    2  A    between atoms: C_8  and  C_10
REMARK    3  A    between atoms: C_10  and  C_13
REMARK    4  A    between atoms: N_22  and  C_23
REMARK    5  A    between atoms: C_28  and  O_29
REMARK    6  A    between atoms: O_29  and  C_30
REMARK    7  A    between atoms: C_46  and  N_47
REMARK                            x       y       z     vdW  Elec       q    Type
REMARK                         _______ _______ _______ _____ _____    ______ ____
ROOT
ATOM      1  C   UNL     1       8.966  -2.386  25.066  0.00  0.00    +0.000 C 
ENDROOT
BRANCH   1   2
ATOM      2  C   UNL     1       8.193  -1.594  24.051  0.00  0.00    +0.000 C 
ATOM      3  O   UNL     1       7.245  -0.892  24.476  0.00  0.00    +0.000 OA
ATOM      4  N   UNL     1       8.330  -1.837  22.735  0.00  0.00    +0.000 N 
ATOM      5  C   UNL     1       7.095  -1.678  21.901  0.00  0.00    +0.000 C 
ATOM      6  C   UNL     1       6.979  -0.238  21.478  0.00  0.00    +0.000 C 
ATOM      7  N   UNL     1       8.241   0.484  21.877  0.00  0.00    +0.000 N 
ATOM      8  C   UNL     1       9.457  -0.180  21.348  0.00  0.00    +0.000 C 
ATOM      9  C   UNL     1       9.556  -1.553  22.004  0.00  0.00    +0.000 C 
BRANCH   7  10
ATOM     10  C   UNL     1       8.282   0.906  23.134  0.00  0.00    +0.000 A 
ATOM     11  C   UNL     1       7.037   1.724  23.219  0.00  0.00    +0.000 A 
ATOM     12  C   UNL     1       6.864   3.007  23.906  0.00  0.00    +0.000 A 
ATOM     13  C   UNL     1       8.163   3.452  24.610  0.00  0.00    +0.000 A 
ATOM     14  C   UNL     1       9.496   2.915  24.343  0.00  0.00    +0.000 A 
ATOM     15  C   UNL     1       9.439   1.406  23.830  0.00  0.00    +0.000 A 
BRANCH  13  16
ATOM     16  O   UNL     1       7.907   3.883  26.003  0.00  0.00    +0.000 OA
ATOM     17  C   UNL     1       7.008   3.019  26.636  0.00  0.00    +0.000 C 
ENDBRANCH  13  16
ENDBRANCH   7  10
ENDBRANCH   1   2
BRANCH   1  20
ATOM     18  N   UNL     1       7.792  -4.614  24.968  0.00  0.00    +0.000 N 
ATOM     19  H   UNL     1       7.730  -5.066  24.023  0.00  0.00    +0.000 HD
ATOM     20  C   UNL     1       8.839  -3.847  24.844  0.00  0.00    +0.000 C 
ATOM     21  O   UNL     1       9.897  -4.515  24.556  0.00  0.00    +0.000 OA
BRANCH  18  24
ATOM     22  C   UNL     1       5.147  -6.467  26.083  0.00  0.00    +0.000 A 
ATOM     23  C   UNL     1       6.125  -5.348  26.265  0.00  0.00    +0.000 A 
ATOM     24  C   UNL     1       6.603  -4.383  25.264  0.00  0.00    +0.000 A 
ATOM     25  C   UNL     1       5.836  -4.685  24.016  0.00  0.00    +0.000 A 
ATOM     26  C   UNL     1       4.816  -5.526  23.586  0.00  0.00    +0.000 A 
ATOM     27  C   UNL     1       4.699  -6.635  24.683  0.00  0.00    +0.000 A 
BRANCH  26  28
ATOM     28  N   UNL     1       3.653  -4.760  23.633  0.00  0.00    +0.000 N 
ATOM     29  C   UNL     1       2.570  -5.663  23.635  0.00  0.00    +0.000 C 
ATOM     30  O   UNL     1       2.094  -5.932  22.547  0.00  0.00    +0.000 OA
ATOM     31  C   UNL     1       1.652  -5.349  24.817  0.00  0.00    +0.000 C 
ATOM     32  C   UNL     1       2.200  -4.046  25.405  0.00  0.00    +0.000 C 
ATOM     33  C   UNL     1       3.519  -3.748  24.670  0.00  0.00    +0.000 C 
ENDBRANCH  26  28
ENDBRANCH  18  24
ENDBRANCH   1  20
TORSDOF 6
ENDMDL
