MODEL 1
REMARK VINA RESULT:      -8.6      0.000      0.000
REMARK  Name = 
REMARK  4 active torsions:
REMARK  status: ('A' for Active; 'I' for Inactive)
REMARK    1  A    between atoms: C_8  and  C_9
REMARK    2  A    between atoms: C_9  and  N_12
REMARK    3  A    between atoms: N_19  and  N_20
REMARK    4  A    between atoms: C_27  and  C_29
REMARK                            x       y       z     vdW  Elec       q    Type
REMARK                         _______ _______ _______ _____ _____    ______ ____
ROOT
ATOM      1  N   UNL     1       9.018   1.911  23.086  0.00  0.00    +0.000 NA
ATOM      2  C   UNL     1      10.176   1.332  23.566  0.00  0.00    +0.000 C 
ATOM      3  C   UNL     1       9.978   0.551  24.891  0.00  0.00    +0.000 C 
ATOM      4  N   UNL     1       8.661   0.420  25.332  0.00  0.00    +0.000 NA
ATOM      5  C   UNL     1       8.090   1.661  25.356  0.00  0.00    +0.000 C 
ATOM      6  C   UNL     1       8.306   2.534  24.108  0.00  0.00    +0.000 C 
ENDROOT
BRANCH   4   7
ATOM      7  N   UNL     1       8.105  -0.760  25.712  0.00  0.00    +0.000 NA
ATOM      8  C   UNL     1       8.479  -1.513  26.812  0.00  0.00    +0.000 C 
ATOM      9  C   UNL     1       8.542  -3.030  26.473  0.00  0.00    +0.000 C 
ATOM     10  C   UNL     1       7.109  -3.517  26.262  0.00  0.00    +0.000 C 
ATOM     11  C   UNL     1       6.236  -2.479  25.760  0.00  0.00    +0.000 C 
ATOM     12  C   UNL     1       6.761  -1.102  25.409  0.00  0.00    +0.000 C 
BRANCH  10  13
ATOM     13  C   UNL     1       7.123  -4.824  25.576  0.00  0.00    +0.000 C 
ATOM     14  O   UNL     1       7.855  -5.733  26.080  0.00  0.00    +0.000 OA
ATOM     15  N   UNL     1       6.668  -5.133  24.328  0.00  0.00    +0.000 N 
ATOM     16  C   UNL     1       5.453  -5.968  24.245  0.00  0.00    +0.000 C 
ATOM     17  C   UNL     1       4.755  -5.788  22.922  0.00  0.00    +0.000 C 
ATOM     18  C   UNL     1       5.653  -5.326  21.811  0.00  0.00    +0.000 C 
ATOM     19  C   UNL     1       7.070  -5.789  21.991  0.00  0.00    +0.000 C 
ATOM     20  C   UNL     1       7.683  -5.492  23.318  0.00  0.00    +0.000 C 
ENDBRANCH  10  13
ENDBRANCH   4   7
BRANCH   1  21
ATOM     21  C   UNL     1       8.755   2.025  21.646  0.00  0.00    +0.000 C 
BRANCH  21  26
ATOM     22  C   UNL     1       6.763  -2.044  21.755  0.00  0.00    +0.000 A 
ATOM     23  C   UNL     1       8.113  -1.416  21.987  0.00  0.00    +0.000 A 
ATOM     24  C   UNL     1       8.889  -0.646  20.962  0.00  0.00    +0.000 A 
ATOM     25  C   UNL     1       8.106   0.111  20.110  0.00  0.00    +0.000 A 
ATOM     26  C   UNL     1       7.739   1.444  21.227  0.00  0.00    +0.000 A 
ATOM     27  C   UNL     1       6.350   1.751  21.137  0.00  0.00    +0.000 A 
ATOM     28  C   UNL     1       5.802   1.610  19.887  0.00  0.00    +0.000 A 
ATOM     29  C   UNL     1       5.900   0.410  18.928  0.00  0.00    +0.000 A 
ATOM     30  C   UNL     1       6.760  -0.495  19.638  0.00  0.00    +0.000 A 
ATOM     31  C   UNL     1       6.028  -1.513  20.574  0.00  0.00    +0.000 A 
ENDBRANCH  21  26
ENDBRANCH   1  21
TORSDOF 4
ENDMDL
MODEL 2
REMARK VINA RESULT:      -7.3      2.337      4.005
REMARK  Name = 
REMARK  4 active torsions:
REMARK  status: ('A' for Active; 'I' for Inactive)
REMARK    1  A    between atoms: C_8  and  C_9
REMARK    2  A    between atoms: C_9  and  N_12
REMARK    3  A    between atoms: N_19  and  N_20
REMARK    4  A    between atoms: C_27  and  C_29
REMARK                            x       y       z     vdW  Elec       q    Type
REMARK                         _______ _______ _______ _____ _____    ______ ____
ROOT
ATOM      1  N   UNL     1       9.291  -0.301  24.714  0.00  0.00    +0.000 NA
ATOM      2  C   UNL     1      10.116  -1.100  23.946  0.00  0.00    +0.000 C 
ATOM      3  C   UNL     1       9.662  -2.581  23.878  0.00  0.00    +0.000 C 
ATOM      4  N   UNL     1       8.431  -2.869  24.467  0.00  0.00    +0.000 NA
ATOM      5  C   UNL     1       8.435  -2.372  25.740  0.00  0.00    +0.000 C 
ATOM      6  C   UNL     1       8.949  -0.932  25.907  0.00  0.00    +0.000 C 
ENDROOT
BRANCH   4   7
ATOM      7  N   UNL     1       7.445  -3.574  23.853  0.00  0.00    +0.000 NA
ATOM      8  C   UNL     1       6.558  -3.074  22.913  0.00  0.00    +0.000 C 
ATOM      9  C   UNL     1       5.108  -3.575  23.170  0.00  0.00    +0.000 C 
ATOM     10  C   UNL     1       5.070  -5.067  22.840  0.00  0.00    +0.000 C 
ATOM     11  C   UNL     1       6.341  -5.720  23.061  0.00  0.00    +0.000 C 
ATOM     12  C   UNL     1       7.523  -4.976  23.648  0.00  0.00    +0.000 C 
BRANCH  10  13
ATOM     13  C   UNL     1       3.853  -5.673  23.415  0.00  0.00    +0.000 C 
ATOM     14  O   UNL     1       2.947  -6.035  22.600  0.00  0.00    +0.000 OA
ATOM     15  N   UNL     1       3.437  -5.673  24.714  0.00  0.00    +0.000 N 
ATOM     16  C   UNL     1       3.489  -6.960  25.436  0.00  0.00    +0.000 C 
ATOM     17  C   UNL     1       3.544  -6.749  26.926  0.00  0.00    +0.000 C 
ATOM     18  C   UNL     1       2.968  -5.440  27.384  0.00  0.00    +0.000 C 
ATOM     19  C   UNL     1       1.880  -4.945  26.475  0.00  0.00    +0.000 C 
ATOM     20  C   UNL     1       2.226  -4.888  25.025  0.00  0.00    +0.000 C 
ENDBRANCH  10  13
ENDBRANCH   4   7
BRANCH   1  21
ATOM     21  C   UNL     1       9.044   1.104  24.368  0.00  0.00    +0.000 C 
BRANCH  21  26
ATOM     22  C   UNL     1       7.386   0.457  20.200  0.00  0.00    +0.000 A 
ATOM     23  C   UNL     1       8.707   0.467  20.926  0.00  0.00    +0.000 A 
ATOM     24  C   UNL     1       9.269   1.640  21.669  0.00  0.00    +0.000 A 
ATOM     25  C   UNL     1       8.318   2.410  22.315  0.00  0.00    +0.000 A 
ATOM     26  C   UNL     1       8.022   1.332  23.697  0.00  0.00    +0.000 A 
ATOM     27  C   UNL     1       6.616   1.232  23.909  0.00  0.00    +0.000 A 
ATOM     28  C   UNL     1       5.905   2.376  23.648  0.00  0.00    +0.000 A 
ATOM     29  C   UNL     1       5.950   3.265  22.393  0.00  0.00    +0.000 A 
ATOM     30  C   UNL     1       6.966   2.639  21.595  0.00  0.00    +0.000 A 
ATOM     31  C   UNL     1       6.452   1.545  20.600  0.00  0.00    +0.000 A 
ENDBRANCH  21  26
ENDBRANCH   1  21
TORSDOF 4
ENDMDL
MODEL 3
REMARK VINA RESULT:      -7.2      2.090      4.246
REMARK  Name = 
REMARK  4 active torsions:
REMARK  status: ('A' for Active; 'I' for Inactive)
REMARK    1  A    between atoms: C_8  and  C_9
REMARK    2  A    between atoms: C_9  and  N_12
REMARK    3  A    between atoms: N_19  and  N_20
REMARK    4  A    between atoms: C_27  and  C_29
REMARK                            x       y       z     vdW  Elec       q    Type
REMARK                         _______ _______ _______ _____ _____    ______ ____
ROOT
ATOM      1  N   UNL     1       8.443   0.357  21.693  0.00  0.00    +0.000 NA
ATOM      2  C   UNL     1       7.428  -0.523  21.370  0.00  0.00    +0.000 C 
ATOM      3  C   UNL     1       7.627  -1.944  21.957  0.00  0.00    +0.000 C 
ATOM      4  N   UNL     1       8.703  -2.099  22.831  0.00  0.00    +0.000 NA
ATOM      5  C   UNL     1       9.825  -1.613  22.223  0.00  0.00    +0.000 C 
ATOM      6  C   UNL     1       9.692  -0.239  21.544  0.00  0.00    +0.000 C 
ENDROOT
BRANCH   4   7
ATOM      7  N   UNL     1       8.607  -2.687  24.052  0.00  0.00    +0.000 NA
ATOM      8  C   UNL     1       9.414  -3.710  24.523  0.00  0.00    +0.000 C 
ATOM      9  C   UNL     1       8.586  -4.798  25.264  0.00  0.00    +0.000 C 
ATOM     10  C   UNL     1       8.095  -4.190  26.577  0.00  0.00    +0.000 C 
ATOM     11  C   UNL     1       7.900  -2.759  26.491  0.00  0.00    +0.000 C 
ATOM     12  C   UNL     1       8.087  -2.011  25.187  0.00  0.00    +0.000 C 
BRANCH  10  13
ATOM     13  C   UNL     1       7.009  -5.020  27.135  0.00  0.00    +0.000 C 
ATOM     14  O   UNL     1       7.345  -5.949  27.936  0.00  0.00    +0.000 OA
ATOM     15  N   UNL     1       5.712  -5.110  26.724  0.00  0.00    +0.000 N 
ATOM     16  C   UNL     1       4.684  -4.532  27.613  0.00  0.00    +0.000 C 
ATOM     17  C   UNL     1       3.428  -4.198  26.852  0.00  0.00    +0.000 C 
ATOM     18  C   UNL     1       3.238  -4.999  25.596  0.00  0.00    +0.000 C 
ATOM     19  C   UNL     1       3.864  -6.361  25.687  0.00  0.00    +0.000 C 
ATOM     20  C   UNL     1       5.293  -6.388  26.115  0.00  0.00    +0.000 C 
ENDBRANCH  10  13
ENDBRANCH   4   7
BRANCH   1  21
ATOM     21  C   UNL     1       8.179   1.783  21.921  0.00  0.00    +0.000 C 
BRANCH  21  26
ATOM     22  C   UNL     1       8.374   4.800  25.298  0.00  0.00    +0.000 A 
ATOM     23  C   UNL     1       9.236   4.258  24.187  0.00  0.00    +0.000 A 
ATOM     24  C   UNL     1       9.629   2.820  24.029  0.00  0.00    +0.000 A 
ATOM     25  C   UNL     1       8.651   1.921  24.412  0.00  0.00    +0.000 A 
ATOM     26  C   UNL     1       7.602   2.070  22.984  0.00  0.00    +0.000 A 
ATOM     27  C   UNL     1       6.248   2.174  23.417  0.00  0.00    +0.000 A 
ATOM     28  C   UNL     1       5.938   1.446  24.538  0.00  0.00    +0.000 A 
ATOM     29  C   UNL     1       6.675   1.406  25.888  0.00  0.00    +0.000 A 
ATOM     30  C   UNL     1       7.802   2.266  25.661  0.00  0.00    +0.000 A 
ATOM     31  C   UNL     1       7.573   3.773  26.018  0.00  0.00    +0.000 A 
ENDBRANCH  21  26
ENDBRANCH   1  21
TORSDOF 4
ENDMDL
MODEL 4
REMARK VINA RESULT:      -7.2      1.390      1.922
REMARK  Name = 
REMARK  4 active torsions:
REMARK  status: ('A' for Active; 'I' for Inactive)
REMARK    1  A    between atoms: C_8  and  C_9
REMARK    2  A    between atoms: C_9  and  N_12
REMARK    3  A    between atoms: N_19  and  N_20
REMARK    4  A    between atoms: C_27  and  C_29
REMARK                            x       y       z     vdW  Elec       q    Type
REMARK                         _______ _______ _______ _____ _____    ______ ____
ROOT
ATOM      1  N   UNL     1       6.664   2.409  24.177  0.00  0.00    +0.000 NA
ATOM      2  C   UNL     1       7.460   2.638  25.283  0.00  0.00    +0.000 C 
ATOM      3  C   UNL     1       7.166   1.683  26.469  0.00  0.00    +0.000 C 
ATOM      4  N   UNL     1       6.261   0.653  26.214  0.00  0.00    +0.000 NA
ATOM      5  C   UNL     1       5.129   1.198  25.678  0.00  0.00    +0.000 C 
ATOM      6  C   UNL     1       5.335   2.218  24.545  0.00  0.00    +0.000 C 
ENDROOT
BRANCH   4   7
ATOM      7  N   UNL     1       6.495  -0.651  26.516  0.00  0.00    +0.000 NA
ATOM      8  C   UNL     1       7.692  -1.173  26.976  0.00  0.00    +0.000 C 
ATOM      9  C   UNL     1       8.038  -2.518  26.277  0.00  0.00    +0.000 C 
ATOM     10  C   UNL     1       7.051  -3.569  26.784  0.00  0.00    +0.000 C 
ATOM     11  C   UNL     1       5.771  -3.003  27.147  0.00  0.00    +0.000 C 
ATOM     12  C   UNL     1       5.466  -1.533  26.938  0.00  0.00    +0.000 C 
BRANCH  10  13
ATOM     13  C   UNL     1       7.077  -4.747  25.894  0.00  0.00    +0.000 C 
ATOM     14  O   UNL     1       7.734  -5.759  26.294  0.00  0.00    +0.000 OA
ATOM     15  N   UNL     1       6.713  -4.828  24.582  0.00  0.00    +0.000 N 
ATOM     16  C   UNL     1       5.482  -5.582  24.272  0.00  0.00    +0.000 C 
ATOM     17  C   UNL     1       4.900  -5.158  22.949  0.00  0.00    +0.000 C 
ATOM     18  C   UNL     1       5.900  -4.563  21.999  0.00  0.00    +0.000 C 
ATOM     19  C   UNL     1       7.282  -5.114  22.205  0.00  0.00    +0.000 C 
ATOM     20  C   UNL     1       7.794  -5.065  23.605  0.00  0.00    +0.000 C 
ENDBRANCH  10  13
ENDBRANCH   4   7
BRANCH   1  21
ATOM     21  C   UNL     1       7.172   2.595  22.812  0.00  0.00    +0.000 C 
BRANCH  21  26
ATOM     22  C   UNL     1       8.915  -1.589  22.771  0.00  0.00    +0.000 A 
ATOM     23  C   UNL     1       9.113  -0.266  23.465  0.00  0.00    +0.000 A 
ATOM     24  C   UNL     1       9.442   1.024  22.775  0.00  0.00    +0.000 A 
ATOM     25  C   UNL     1       8.844   1.172  21.537  0.00  0.00    +0.000 A 
ATOM     26  C   UNL     1       7.207   1.578  22.097  0.00  0.00    +0.000 A 
ATOM     27  C   UNL     1       6.261   0.831  21.337  0.00  0.00    +0.000 A 
ATOM     28  C   UNL     1       6.605   0.622  20.024  0.00  0.00    +0.000 A 
ATOM     29  C   UNL     1       7.930   0.084  19.456  0.00  0.00    +0.000 A 
ATOM     30  C   UNL     1       8.737  -0.081  20.632  0.00  0.00    +0.000 A 
ATOM     31  C   UNL     1       8.647  -1.489  21.310  0.00  0.00    +0.000 A 
ENDBRANCH  21  26
ENDBRANCH   1  21
TORSDOF 4
ENDMDL
MODEL 5
REMARK VINA RESULT:      -7.0      2.581      7.013
REMARK  Name = 
REMARK  4 active torsions:
REMARK  status: ('A' for Active; 'I' for Inactive)
REMARK    1  A    between atoms: C_8  and  C_9
REMARK    2  A    between atoms: C_9  and  N_12
REMARK    3  A    between atoms: N_19  and  N_20
REMARK    4  A    between atoms: C_27  and  C_29
REMARK                            x       y       z     vdW  Elec       q    Type
REMARK                         _______ _______ _______ _____ _____    ______ ____
ROOT
ATOM      1  N   UNL     1       5.361  -3.801  27.121  0.00  0.00    +0.000 NA
ATOM      2  C   UNL     1       5.490  -2.436  27.288  0.00  0.00    +0.000 C 
ATOM      3  C   UNL     1       6.780  -1.851  26.656  0.00  0.00    +0.000 C 
ATOM      4  N   UNL     1       7.544  -2.738  25.897  0.00  0.00    +0.000 NA
ATOM      5  C   UNL     1       7.779  -3.854  26.648  0.00  0.00    +0.000 C 
ATOM      6  C   UNL     1       6.564  -4.455  27.376  0.00  0.00    +0.000 C 
ENDROOT
BRANCH   4   7
ATOM      7  N   UNL     1       7.997  -2.466  24.645  0.00  0.00    +0.000 NA
ATOM      8  C   UNL     1       9.326  -2.322  24.280  0.00  0.00    +0.000 C 
ATOM      9  C   UNL     1       9.527  -1.118  23.316  0.00  0.00    +0.000 C 
ATOM     10  C   UNL     1       8.896  -1.489  21.974  0.00  0.00    +0.000 C 
ATOM     11  C   UNL     1       7.783  -2.402  22.115  0.00  0.00    +0.000 C 
ATOM     12  C   UNL     1       7.281  -2.835  23.478  0.00  0.00    +0.000 C 
BRANCH  10  13
ATOM     13  C   UNL     1       8.716  -0.274  21.156  0.00  0.00    +0.000 C 
ATOM     14  O   UNL     1       9.575   0.652  21.299  0.00  0.00    +0.000 OA
ATOM     15  N   UNL     1       7.618   0.119  20.449  0.00  0.00    +0.000 N 
ATOM     16  C   UNL     1       7.715   0.073  18.977  0.00  0.00    +0.000 C 
ATOM     17  C   UNL     1       6.352  -0.012  18.340  0.00  0.00    +0.000 C 
ATOM     18  C   UNL     1       5.242   0.536  19.190  0.00  0.00    +0.000 C 
ATOM     19  C   UNL     1       5.709   1.633  20.103  0.00  0.00    +0.000 C 
ATOM     20  C   UNL     1       6.901   1.312  20.941  0.00  0.00    +0.000 C 
ENDBRANCH  10  13
ENDBRANCH   4   7
BRANCH   1  21
ATOM     21  C   UNL     1       4.048  -4.432  26.937  0.00  0.00    +0.000 C 
BRANCH  21  26
ATOM     22  C   UNL     1       1.456  -7.369  24.656  0.00  0.00    +0.000 A 
ATOM     23  C   UNL     1       2.059  -7.187  26.026  0.00  0.00    +0.000 A 
ATOM     24  C   UNL     1       3.526  -7.070  26.309  0.00  0.00    +0.000 A 
ATOM     25  C   UNL     1       4.239  -6.393  25.335  0.00  0.00    +0.000 A 
ATOM     26  C   UNL     1       3.748  -4.740  25.770  0.00  0.00    +0.000 A 
ATOM     27  C   UNL     1       3.410  -4.033  24.580  0.00  0.00    +0.000 A 
ATOM     28  C   UNL     1       4.159  -4.357  23.477  0.00  0.00    +0.000 A 
ATOM     29  C   UNL     1       4.471  -5.753  22.909  0.00  0.00    +0.000 A 
ATOM     30  C   UNL     1       3.843  -6.630  23.856  0.00  0.00    +0.000 A 
ATOM     31  C   UNL     1       2.360  -7.010  23.529  0.00  0.00    +0.000 A 
ENDBRANCH  21  26
ENDBRANCH   1  21
TORSDOF 4
ENDMDL
MODEL 6
REMARK VINA RESULT:      -7.0      3.044      7.707
REMARK  Name = 
REMARK  4 active torsions:
REMARK  status: ('A' for Active; 'I' for Inactive)
REMARK    1  A    between atoms: C_8  and  C_9
REMARK    2  A    between atoms: C_9  and  N_12
REMARK    3  A    between atoms: N_19  and  N_20
REMARK    4  A    between atoms: C_27  and  C_29
REMARK                            x       y       z     vdW  Elec       q    Type
REMARK                         _______ _______ _______ _____ _____    ______ ____
ROOT
ATOM      1  N   UNL     1       7.452  -3.333  24.445  0.00  0.00    +0.000 NA
ATOM      2  C   UNL     1       8.767  -3.593  24.780  0.00  0.00    +0.000 C 
ATOM      3  C   UNL     1       9.792  -2.757  23.972  0.00  0.00    +0.000 C 
ATOM      4  N   UNL     1       9.257  -1.774  23.139  0.00  0.00    +0.000 NA
ATOM      5  C   UNL     1       8.302  -2.351  22.351  0.00  0.00    +0.000 C 
ATOM      6  C   UNL     1       7.289  -3.263  23.065  0.00  0.00    +0.000 C 
ENDROOT
BRANCH   4   7
ATOM      7  N   UNL     1       9.685  -0.485  23.119  0.00  0.00    +0.000 NA
ATOM      8  C   UNL     1      10.607   0.075  23.989  0.00  0.00    +0.000 C 
ATOM      9  C   UNL     1      10.164   1.490  24.459  0.00  0.00    +0.000 C 
ATOM     10  C   UNL     1      10.285   2.434  23.263  0.00  0.00    +0.000 C 
ATOM     11  C   UNL     1      10.084   1.760  21.999  0.00  0.00    +0.000 C 
ATOM     12  C   UNL     1       9.705   0.295  21.933  0.00  0.00    +0.000 C 
BRANCH  10  13
ATOM     13  C   UNL     1       9.532   3.676  23.530  0.00  0.00    +0.000 C 
ATOM     14  O   UNL     1      10.208   4.699  23.866  0.00  0.00    +0.000 OA
ATOM     15  N   UNL     1       8.191   3.832  23.722  0.00  0.00    +0.000 N 
ATOM     16  C   UNL     1       7.435   4.515  22.654  0.00  0.00    +0.000 C 
ATOM     17  C   UNL     1       5.974   4.154  22.701  0.00  0.00    +0.000 C 
ATOM     18  C   UNL     1       5.494   3.709  24.052  0.00  0.00    +0.000 C 
ATOM     19  C   UNL     1       6.270   4.342  25.171  0.00  0.00    +0.000 C 
ATOM     20  C   UNL     1       7.753   4.222  25.077  0.00  0.00    +0.000 C 
ENDBRANCH  10  13
ENDBRANCH   4   7
BRANCH   1  21
ATOM     21  C   UNL     1       6.381  -3.376  25.449  0.00  0.00    +0.000 C 
BRANCH  21  26
ATOM     22  C   UNL     1       3.472  -6.136  23.337  0.00  0.00    +0.000 A 
ATOM     23  C   UNL     1       3.915  -4.696  23.315  0.00  0.00    +0.000 A 
ATOM     24  C   UNL     1       3.825  -3.753  24.476  0.00  0.00    +0.000 A 
ATOM     25  C   UNL     1       4.048  -4.345  25.706  0.00  0.00    +0.000 A 
ATOM     26  C   UNL     1       5.818  -4.474  25.602  0.00  0.00    +0.000 A 
ATOM     27  C   UNL     1       6.211  -5.772  26.041  0.00  0.00    +0.000 A 
ATOM     28  C   UNL     1       5.450  -6.299  27.055  0.00  0.00    +0.000 A 
ATOM     29  C   UNL     1       3.918  -6.411  27.142  0.00  0.00    +0.000 A 
ATOM     30  C   UNL     1       3.483  -5.769  25.935  0.00  0.00    +0.000 A 
ATOM     31  C   UNL     1       3.316  -6.716  24.699  0.00  0.00    +0.000 A 
ENDBRANCH  21  26
ENDBRANCH   1  21
TORSDOF 4
ENDMDL
MODEL 7
REMARK VINA RESULT:      -6.8      2.387      4.768
REMARK  Name = 
REMARK  4 active torsions:
REMARK  status: ('A' for Active; 'I' for Inactive)
REMARK    1  A    between atoms: C_8  and  C_9
REMARK    2  A    between atoms: C_9  and  N_12
REMARK    3  A    between atoms: N_19  and  N_20
REMARK    4  A    between atoms: C_27  and  C_29
REMARK                            x       y       z     vdW  Elec       q    Type
REMARK                         _______ _______ _______ _____ _____    ______ ____
ROOT
ATOM      1  N   UNL     1      10.130   1.190  23.300  0.00  0.00    +0.000 NA
ATOM      2  C   UNL     1       9.943   1.001  21.944  0.00  0.00    +0.000 C 
ATOM      3  C   UNL     1       9.365  -0.392  21.584  0.00  0.00    +0.000 C 
ATOM      4  N   UNL     1       8.986  -1.193  22.661  0.00  0.00    +0.000 NA
ATOM      5  C   UNL     1      10.032  -1.262  23.536  0.00  0.00    +0.000 C 
ATOM      6  C   UNL     1      10.716   0.071  23.887  0.00  0.00    +0.000 C 
ENDROOT
BRANCH   4   7
ATOM      7  N   UNL     1       7.783  -1.819  22.751  0.00  0.00    +0.000 NA
ATOM      8  C   UNL     1       6.997  -1.900  23.889  0.00  0.00    +0.000 C 
ATOM      9  C   UNL     1       6.401  -3.325  24.073  0.00  0.00    +0.000 C 
ATOM     10  C   UNL     1       5.352  -3.532  22.980  0.00  0.00    +0.000 C 
ATOM     11  C   UNL     1       5.646  -2.786  21.776  0.00  0.00    +0.000 C 
ATOM     12  C   UNL     1       6.920  -1.978  21.636  0.00  0.00    +0.000 C 
BRANCH  10  13
ATOM     13  C   UNL     1       5.032  -4.968  22.863  0.00  0.00    +0.000 C 
ATOM     14  O   UNL     1       5.346  -5.542  21.773  0.00  0.00    +0.000 OA
ATOM     15  N   UNL     1       4.213  -5.723  23.650  0.00  0.00    +0.000 N 
ATOM     16  C   UNL     1       4.857  -6.725  24.521  0.00  0.00    +0.000 C 
ATOM     17  C   UNL     1       3.973  -7.086  25.687  0.00  0.00    +0.000 C 
ATOM     18  C   UNL     1       2.509  -6.858  25.442  0.00  0.00    +0.000 C 
ATOM     19  C   UNL     1       2.142  -7.007  23.993  0.00  0.00    +0.000 C 
ATOM     20  C   UNL     1       2.964  -6.213  23.035  0.00  0.00    +0.000 C 
ENDBRANCH  10  13
ENDBRANCH   4   7
BRANCH   1  21
ATOM     21  C   UNL     1       9.939   2.504  23.927  0.00  0.00    +0.000 C 
BRANCH  21  26
ATOM     22  C   UNL     1       6.184   4.932  23.187  0.00  0.00    +0.000 A 
ATOM     23  C   UNL     1       7.634   4.898  22.776  0.00  0.00    +0.000 A 
ATOM     24  C   UNL     1       8.795   5.008  23.717  0.00  0.00    +0.000 A 
ATOM     25  C   UNL     1       8.590   4.400  24.943  0.00  0.00    +0.000 A 
ATOM     26  C   UNL     1       8.820   2.714  24.426  0.00  0.00    +0.000 A 
ATOM     27  C   UNL     1       7.787   1.913  24.996  0.00  0.00    +0.000 A 
ATOM     28  C   UNL     1       7.380   2.295  26.250  0.00  0.00    +0.000 A 
ATOM     29  C   UNL     1       6.968   3.695  26.738  0.00  0.00    +0.000 A 
ATOM     30  C   UNL     1       7.181   4.512  25.577  0.00  0.00    +0.000 A 
ATOM     31  C   UNL     1       5.943   4.659  24.631  0.00  0.00    +0.000 A 
ENDBRANCH  21  26
ENDBRANCH   1  21
TORSDOF 4
ENDMDL
MODEL 8
REMARK VINA RESULT:      -6.7      2.564      6.890
REMARK  Name = 
REMARK  4 active torsions:
REMARK  status: ('A' for Active; 'I' for Inactive)
REMARK    1  A    between atoms: C_8  and  C_9
REMARK    2  A    between atoms: C_9  and  N_12
REMARK    3  A    between atoms: N_19  and  N_20
REMARK    4  A    between atoms: C_27  and  C_29
REMARK                            x       y       z     vdW  Elec       q    Type
REMARK                         _______ _______ _______ _____ _____    ______ ____
ROOT
ATOM      1  N   UNL     1       7.524  -5.076  25.600  0.00  0.00    +0.000 NA
ATOM      2  C   UNL     1       7.768  -4.408  26.784  0.00  0.00    +0.000 C 
ATOM      3  C   UNL     1       8.497  -3.053  26.595  0.00  0.00    +0.000 C 
ATOM      4  N   UNL     1       8.675  -2.634  25.276  0.00  0.00    +0.000 NA
ATOM      5  C   UNL     1       9.255  -3.653  24.575  0.00  0.00    +0.000 C 
ATOM      6  C   UNL     1       8.640  -5.049  24.768  0.00  0.00    +0.000 C 
ENDROOT
BRANCH   4   7
ATOM      7  N   UNL     1       8.354  -1.392  24.828  0.00  0.00    +0.000 NA
ATOM      8  C   UNL     1       7.096  -0.815  24.875  0.00  0.00    +0.000 C 
ATOM      9  C   UNL     1       6.756  -0.072  23.552  0.00  0.00    +0.000 C 
ATOM     10  C   UNL     1       7.642   1.171  23.478  0.00  0.00    +0.000 C 
ATOM     11  C   UNL     1       8.908   0.994  24.156  0.00  0.00    +0.000 C 
ATOM     12  C   UNL     1       9.297  -0.333  24.774  0.00  0.00    +0.000 C 
BRANCH  10  13
ATOM     13  C   UNL     1       7.646   1.699  22.100  0.00  0.00    +0.000 C 
ATOM     14  O   UNL     1       8.076   2.884  21.936  0.00  0.00    +0.000 OA
ATOM     15  N   UNL     1       7.015   1.202  20.998  0.00  0.00    +0.000 N 
ATOM     16  C   UNL     1       7.866   0.604  19.950  0.00  0.00    +0.000 C 
ATOM     17  C   UNL     1       7.086  -0.362  19.096  0.00  0.00    +0.000 C 
ATOM     18  C   UNL     1       5.607  -0.102  19.069  0.00  0.00    +0.000 C 
ATOM     19  C   UNL     1       5.278   1.350  19.261  0.00  0.00    +0.000 C 
ATOM     20  C   UNL     1       5.903   2.002  20.448  0.00  0.00    +0.000 C 
ENDBRANCH  10  13
ENDBRANCH   4   7
BRANCH   1  21
ATOM     21  C   UNL     1       6.315  -5.887  25.410  0.00  0.00    +0.000 C 
BRANCH  21  26
ATOM     22  C   UNL     1       3.054  -3.007  26.679  0.00  0.00    +0.000 A 
ATOM     23  C   UNL     1       4.054  -3.956  27.289  0.00  0.00    +0.000 A 
ATOM     24  C   UNL     1       4.116  -5.429  27.015  0.00  0.00    +0.000 A 
ATOM     25  C   UNL     1       3.797  -5.777  25.715  0.00  0.00    +0.000 A 
ATOM     26  C   UNL     1       5.325  -5.295  24.946  0.00  0.00    +0.000 A 
ATOM     27  C   UNL     1       5.032  -4.576  23.751  0.00  0.00    +0.000 A 
ATOM     28  C   UNL     1       3.920  -5.005  23.071  0.00  0.00    +0.000 A 
ATOM     29  C   UNL     1       2.503  -5.258  23.616  0.00  0.00    +0.000 A 
ATOM     30  C   UNL     1       2.651  -4.999  25.020  0.00  0.00    +0.000 A 
ATOM     31  C   UNL     1       2.377  -3.521  25.457  0.00  0.00    +0.000 A 
ENDBRANCH  21  26
ENDBRANCH   1  21
TORSDOF 4
ENDMDL
MODEL 9
REMARK VINA RESULT:      -6.7      2.436      3.602
REMARK  Name = 
REMARK  4 active torsions:
REMARK  status: ('A' for Active; 'I' for Inactive)
REMARK    1  A    between atoms: C_8  and  C_9
REMARK    2  A    between atoms: C_9  and  N_12
REMARK    3  A    between atoms: N_19  and  N_20
REMARK    4  A    between atoms: C_27  and  C_29
REMARK                            x       y       z     vdW  Elec       q    Type
REMARK                         _______ _______ _______ _____ _____    ______ ____
ROOT
ATOM      1  N   UNL     1       7.387   3.806  24.082  0.00  0.00    +0.000 NA
ATOM      2  C   UNL     1       8.074   3.918  25.275  0.00  0.00    +0.000 C 
ATOM      3  C   UNL     1       7.260   3.451  26.508  0.00  0.00    +0.000 C 
ATOM      4  N   UNL     1       6.027   2.858  26.237  0.00  0.00    +0.000 NA
ATOM      5  C   UNL     1       5.319   3.692  25.418  0.00  0.00    +0.000 C 
ATOM      6  C   UNL     1       6.079   4.265  24.209  0.00  0.00    +0.000 C 
ENDROOT
BRANCH   4   7
ATOM      7  N   UNL     1       5.624   1.673  26.766  0.00  0.00    +0.000 NA
ATOM      8  C   UNL     1       6.191   1.043  27.862  0.00  0.00    +0.000 C 
ATOM      9  C   UNL     1       6.347  -0.486  27.626  0.00  0.00    +0.000 C 
ATOM     10  C   UNL     1       4.947  -1.100  27.631  0.00  0.00    +0.000 C 
ATOM     11  C   UNL     1       3.933  -0.178  27.169  0.00  0.00    +0.000 C 
ATOM     12  C   UNL     1       4.290   1.203  26.659  0.00  0.00    +0.000 C 
BRANCH  10  13
ATOM     13  C   UNL     1       4.995  -2.453  27.043  0.00  0.00    +0.000 C 
ATOM     14  O   UNL     1       3.942  -3.160  27.135  0.00  0.00    +0.000 OA
ATOM     15  N   UNL     1       6.084  -3.165  26.636  0.00  0.00    +0.000 N 
ATOM     16  C   UNL     1       6.253  -3.363  25.183  0.00  0.00    +0.000 C 
ATOM     17  C   UNL     1       7.689  -3.650  24.832  0.00  0.00    +0.000 C 
ATOM     18  C   UNL     1       8.491  -4.238  25.958  0.00  0.00    +0.000 C 
ATOM     19  C   UNL     1       7.647  -5.047  26.900  0.00  0.00    +0.000 C 
ATOM     20  C   UNL     1       6.429  -4.364  27.424  0.00  0.00    +0.000 C 
ENDBRANCH  10  13
ENDBRANCH   4   7
BRANCH   1  21
ATOM     21  C   UNL     1       8.073   3.465  22.828  0.00  0.00    +0.000 C 
BRANCH  21  26
ATOM     22  C   UNL     1      10.144  -0.383  24.029  0.00  0.00    +0.000 A 
ATOM     23  C   UNL     1      10.317   1.108  24.163  0.00  0.00    +0.000 A 
ATOM     24  C   UNL     1      10.444   2.063  23.015  0.00  0.00    +0.000 A 
ATOM     25  C   UNL     1       9.681   1.727  21.911  0.00  0.00    +0.000 A 
ATOM     26  C   UNL     1       8.101   2.258  22.530  0.00  0.00    +0.000 A 
ATOM     27  C   UNL     1       7.132   1.254  22.241  0.00  0.00    +0.000 A 
ATOM     28  C   UNL     1       7.320   0.588  21.055  0.00  0.00    +0.000 A 
ATOM     29  C   UNL     1       8.601  -0.078  20.525  0.00  0.00    +0.000 A 
ATOM     30  C   UNL     1       9.565   0.227  21.544  0.00  0.00    +0.000 A 
ATOM     31  C   UNL     1       9.683  -0.836  22.688  0.00  0.00    +0.000 A 
ENDBRANCH  21  26
ENDBRANCH   1  21
TORSDOF 4
ENDMDL
