MODEL 1
REMARK VINA RESULT:      -8.6      0.000      0.000
REMARK  Name = 
REMARK  4 active torsions:
REMARK  status: ('A' for Active; 'I' for Inactive)
REMARK    1  A    between atoms: C_3  and  C_4
REMARK    2  A    between atoms: C_20  and  C_22
REMARK    3  A    between atoms: N_35  and  S_36
REMARK    4  A    between atoms: S_36  and  C_39
REMARK                            x       y       z     vdW  Elec       q    Type
REMARK                         _______ _______ _______ _____ _____    ______ ____
ROOT
ATOM      1  C   UNL     1       8.306  -1.173  25.784  0.00  0.00    +0.000 C 
ATOM      2  C   UNL     1       6.907  -1.466  25.063  0.00  0.00    +0.000 C 
ATOM      3  C   UNL     1       6.308  -0.017  24.963  0.00  0.00    +0.000 C 
ATOM      4  C   UNL     1       7.730   0.711  24.856  0.00  0.00    +0.000 C 
ATOM      5  N   UNL     1       8.706   0.257  24.407  0.00  0.00    +0.000 N 
ATOM      6  C   UNL     1       9.450  -0.747  24.855  0.00  0.00    +0.000 C 
ENDROOT
BRANCH   2   7
ATOM      7  C   UNL     1       6.520  -2.698  24.943  0.00  0.00    +0.000 C 
ATOM      8  C   UNL     1       5.450  -3.300  24.091  0.00  0.00    +0.000 A 
ATOM      9  C   UNL     1       5.432  -3.146  22.999  0.00  0.00    +0.000 A 
ATOM     10  C   UNL     1       5.955  -3.554  21.564  0.00  0.00    +0.000 A 
ATOM     11  C   UNL     1       6.072  -5.041  21.896  0.00  0.00    +0.000 A 
ATOM     12  C   UNL     1       6.065  -5.877  22.967  0.00  0.00    +0.000 A 
ATOM     13  C   UNL     1       5.562  -4.935  24.151  0.00  0.00    +0.000 A 
ATOM     14  C   UNL     1       5.598  -5.449  25.402  0.00  0.00    +0.000 C 
ATOM     15  N   UNL     1       6.510  -4.967  26.312  0.00  0.00    +0.000 N 
ATOM     16  C   UNL     1       7.752  -5.341  26.910  0.00  0.00    +0.000 C 
ATOM     17  O   UNL     1       7.455  -6.067  27.818  0.00  0.00    +0.000 OA
ATOM     18  C   UNL     1       6.544  -3.612  26.121  0.00  0.00    +0.000 C 
BRANCH  16  19
ATOM     19  C   UNL     1       8.604  -5.766  25.757  0.00  0.00    +0.000 C 
ATOM     20 CL   UNL     1       9.714  -4.448  25.347  0.00  0.00    +0.000 Cl
ENDBRANCH  16  19
ENDBRANCH   2   7
BRANCH   5  21
ATOM     21  S   UNL     1       9.579   1.425  23.817  0.00  0.00    +0.000 S 
ATOM     22  O   UNL     1       8.586   2.571  24.558  0.00  0.00    +0.000 OA
ATOM     23  O   UNL     1      10.755   1.885  24.205  0.00  0.00    +0.000 OA
BRANCH  21  24
ATOM     24  C   UNL     1       9.141   1.893  22.204  0.00  0.00    +0.000 A 
ATOM     25  C   UNL     1       9.417   0.609  21.501  0.00  0.00    +0.000 A 
ATOM     26  C   UNL     1       8.488  -0.168  20.686  0.00  0.00    +0.000 A 
ATOM     27  C   UNL     1       7.157   0.570  20.484  0.00  0.00    +0.000 A 
ATOM     28 CL   UNL     1       7.084   0.609  18.704  0.00  0.00    +0.000 Cl
ATOM     29  C   UNL     1       6.710   1.810  21.093  0.00  0.00    +0.000 A 
ATOM     30  C   UNL     1       7.894   2.531  21.918  0.00  0.00    +0.000 A 
ENDBRANCH  21  24
ENDBRANCH   5  21
TORSDOF 4
ENDMDL
MODEL 2
REMARK VINA RESULT:      -8.0      1.800      2.574
REMARK  Name = 
REMARK  4 active torsions:
REMARK  status: ('A' for Active; 'I' for Inactive)
REMARK    1  A    between atoms: C_3  and  C_4
REMARK    2  A    between atoms: C_20  and  C_22
REMARK    3  A    between atoms: N_35  and  S_36
REMARK    4  A    between atoms: S_36  and  C_39
REMARK                            x       y       z     vdW  Elec       q    Type
REMARK                         _______ _______ _______ _____ _____    ______ ____
ROOT
ATOM      1  C   UNL     1       8.497  -1.355  25.927  0.00  0.00    +0.000 C 
ATOM      2  C   UNL     1       7.042  -1.500  25.274  0.00  0.00    +0.000 C 
ATOM      3  C   UNL     1       6.594   0.004  25.196  0.00  0.00    +0.000 C 
ATOM      4  C   UNL     1       8.077   0.580  25.019  0.00  0.00    +0.000 C 
ATOM      5  N   UNL     1       8.978   0.027  24.526  0.00  0.00    +0.000 N 
ATOM      6  C   UNL     1       9.634  -1.049  24.943  0.00  0.00    +0.000 C 
ENDROOT
BRANCH   2   7
ATOM      7  C   UNL     1       6.524  -2.685  25.177  0.00  0.00    +0.000 C 
ATOM      8  C   UNL     1       5.629  -3.431  26.112  0.00  0.00    +0.000 A 
ATOM      9  C   UNL     1       4.676  -2.999  26.462  0.00  0.00    +0.000 A 
ATOM     10  C   UNL     1       3.144  -2.707  26.201  0.00  0.00    +0.000 A 
ATOM     11  C   UNL     1       2.899  -4.012  25.445  0.00  0.00    +0.000 A 
ATOM     12  C   UNL     1       3.587  -5.029  24.863  0.00  0.00    +0.000 A 
ATOM     13  C   UNL     1       5.078  -4.788  25.373  0.00  0.00    +0.000 A 
ATOM     14  C   UNL     1       6.047  -5.562  24.830  0.00  0.00    +0.000 C 
ATOM     15  N   UNL     1       6.967  -5.003  23.975  0.00  0.00    +0.000 N 
ATOM     16  C   UNL     1       7.255  -4.938  22.577  0.00  0.00    +0.000 C 
ATOM     17  O   UNL     1       7.863  -5.944  22.336  0.00  0.00    +0.000 OA
ATOM     18  C   UNL     1       7.279  -3.784  24.511  0.00  0.00    +0.000 C 
BRANCH  16  19
ATOM     19  C   UNL     1       5.944  -4.594  21.947  0.00  0.00    +0.000 C 
ATOM     20 CL   UNL     1       5.938  -2.870  21.538  0.00  0.00    +0.000 Cl
ENDBRANCH  16  19
ENDBRANCH   2   7
BRANCH   5  21
ATOM     21  S   UNL     1       9.939   1.099  23.891  0.00  0.00    +0.000 S 
ATOM     22  O   UNL     1       9.060   2.346  24.612  0.00  0.00    +0.000 OA
ATOM     23  O   UNL     1      11.156   1.465  24.249  0.00  0.00    +0.000 OA
BRANCH  21  24
ATOM     24  C   UNL     1       9.517   1.558  22.271  0.00  0.00    +0.000 A 
ATOM     25  C   UNL     1       9.665   0.235  21.603  0.00  0.00    +0.000 A 
ATOM     26  C   UNL     1       8.656  -0.478  20.824  0.00  0.00    +0.000 A 
ATOM     27  C   UNL     1       7.393   0.371  20.621  0.00  0.00    +0.000 A 
ATOM     28 CL   UNL     1       7.293   0.366  18.841  0.00  0.00    +0.000 Cl
ATOM     29  C   UNL     1       7.069   1.663  21.199  0.00  0.00    +0.000 A 
ATOM     30  C   UNL     1       8.327   2.297  21.985  0.00  0.00    +0.000 A 
ENDBRANCH  21  24
ENDBRANCH   5  21
TORSDOF 4
ENDMDL
MODEL 3
REMARK VINA RESULT:      -8.0      2.630      6.633
REMARK  Name = 
REMARK  4 active torsions:
REMARK  status: ('A' for Active; 'I' for Inactive)
REMARK    1  A    between atoms: C_3  and  C_4
REMARK    2  A    between atoms: C_20  and  C_22
REMARK    3  A    between atoms: N_35  and  S_36
REMARK    4  A    between atoms: S_36  and  C_39
REMARK                            x       y       z     vdW  Elec       q    Type
REMARK                         _______ _______ _______ _____ _____    ______ ____
ROOT
ATOM      1  C   UNL     1       9.451  -0.818  25.092  0.00  0.00    +0.000 C 
ATOM      2  C   UNL     1       9.230  -0.699  23.511  0.00  0.00    +0.000 C 
ATOM      3  C   UNL     1      10.076  -1.917  22.994  0.00  0.00    +0.000 C 
ATOM      4  C   UNL     1       9.844  -2.810  24.303  0.00  0.00    +0.000 C 
ATOM      5  N   UNL     1       8.917  -2.771  25.010  0.00  0.00    +0.000 N 
ATOM      6  C   UNL     1       8.516  -1.795  25.817  0.00  0.00    +0.000 C 
ENDROOT
BRANCH   2   7
ATOM      7  C   UNL     1       8.665   0.372  23.045  0.00  0.00    +0.000 C 
ATOM      8  C   UNL     1       8.684   0.959  21.671  0.00  0.00    +0.000 A 
ATOM      9  C   UNL     1       8.382   0.368  20.791  0.00  0.00    +0.000 A 
ATOM     10  C   UNL     1       7.228  -0.199  19.870  0.00  0.00    +0.000 A 
ATOM     11  C   UNL     1       6.332   1.030  20.029  0.00  0.00    +0.000 A 
ATOM     12  C   UNL     1       6.213   2.144  20.796  0.00  0.00    +0.000 A 
ATOM     13  C   UNL     1       7.596   2.183  21.587  0.00  0.00    +0.000 A 
ATOM     14  C   UNL     1       7.719   3.111  22.565  0.00  0.00    +0.000 C 
ATOM     15  N   UNL     1       7.752   2.714  23.881  0.00  0.00    +0.000 N 
ATOM     16  C   UNL     1       6.902   2.680  25.029  0.00  0.00    +0.000 C 
ATOM     17  O   UNL     1       6.986   3.775  25.512  0.00  0.00    +0.000 OA
ATOM     18  C   UNL     1       8.515   1.579  23.908  0.00  0.00    +0.000 C 
BRANCH  16  19
ATOM     19  C   UNL     1       5.622   2.096  24.524  0.00  0.00    +0.000 C 
ATOM     20 CL   UNL     1       5.522   0.403  25.036  0.00  0.00    +0.000 Cl
ENDBRANCH  16  19
ENDBRANCH   2   7
BRANCH   5  21
ATOM     21  S   UNL     1       8.714  -4.192  25.652  0.00  0.00    +0.000 S 
ATOM     22  O   UNL     1      10.081  -4.773  24.850  0.00  0.00    +0.000 OA
ATOM     23  O   UNL     1       8.988  -4.620  26.871  0.00  0.00    +0.000 OA
BRANCH  21  24
ATOM     24  C   UNL     1       7.608  -5.210  24.783  0.00  0.00    +0.000 A 
ATOM     25  C   UNL     1       6.377  -4.960  25.583  0.00  0.00    +0.000 A 
ATOM     26  C   UNL     1       5.089  -4.477  25.092  0.00  0.00    +0.000 A 
ATOM     27  C   UNL     1       5.067  -4.377  23.560  0.00  0.00    +0.000 A 
ATOM     28 CL   UNL     1       3.662  -5.411  23.197  0.00  0.00    +0.000 Cl
ATOM     29  C   UNL     1       6.163  -4.567  22.627  0.00  0.00    +0.000 A 
ATOM     30  C   UNL     1       7.481  -5.140  23.361  0.00  0.00    +0.000 A 
ENDBRANCH  21  24
ENDBRANCH   5  21
TORSDOF 4
ENDMDL
MODEL 4
REMARK VINA RESULT:      -7.9      2.773      6.746
REMARK  Name = 
REMARK  4 active torsions:
REMARK  status: ('A' for Active; 'I' for Inactive)
REMARK    1  A    between atoms: C_3  and  C_4
REMARK    2  A    between atoms: C_20  and  C_22
REMARK    3  A    between atoms: N_35  and  S_36
REMARK    4  A    between atoms: S_36  and  C_39
REMARK                            x       y       z     vdW  Elec       q    Type
REMARK                         _______ _______ _______ _____ _____    ______ ____
ROOT
ATOM      1  C   UNL     1       8.377  -2.117  26.256  0.00  0.00    +0.000 C 
ATOM      2  C   UNL     1       8.880  -2.683  24.845  0.00  0.00    +0.000 C 
ATOM      3  C   UNL     1       9.340  -4.131  25.247  0.00  0.00    +0.000 C 
ATOM      4  C   UNL     1       8.282  -4.285  26.439  0.00  0.00    +0.000 C 
ATOM      5  N   UNL     1       7.236  -3.773  26.504  0.00  0.00    +0.000 N 
ATOM      6  C   UNL     1       6.938  -2.486  26.639  0.00  0.00    +0.000 C 
ENDROOT
BRANCH   2   7
ATOM      7  C   UNL     1       8.998  -1.856  23.854  0.00  0.00    +0.000 C 
ATOM      8  C   UNL     1       8.809  -2.066  22.387  0.00  0.00    +0.000 A 
ATOM      9  C   UNL     1       7.870  -2.479  21.983  0.00  0.00    +0.000 A 
ATOM     10  C   UNL     1       6.375  -2.245  21.522  0.00  0.00    +0.000 A 
ATOM     11  C   UNL     1       6.639  -0.850  20.956  0.00  0.00    +0.000 A 
ATOM     12  C   UNL     1       7.590   0.120  20.968  0.00  0.00    +0.000 A 
ATOM     13  C   UNL     1       8.844  -0.617  21.620  0.00  0.00    +0.000 A 
ATOM     14  C   UNL     1       9.922   0.147  21.914  0.00  0.00    +0.000 C 
ATOM     15  N   UNL     1      10.241   0.398  23.228  0.00  0.00    +0.000 N 
ATOM     16  C   UNL     1      10.148   1.451  24.188  0.00  0.00    +0.000 C 
ATOM     17  O   UNL     1      11.100   2.151  23.978  0.00  0.00    +0.000 OA
ATOM     18  C   UNL     1      10.028  -0.778  23.893  0.00  0.00    +0.000 C 
BRANCH  16  19
ATOM     19  C   UNL     1       8.734   1.926  24.079  0.00  0.00    +0.000 C 
ATOM     20 CL   UNL     1       7.862   1.473  25.553  0.00  0.00    +0.000 Cl
ENDBRANCH  16  19
ENDBRANCH   2   7
BRANCH   5  21
ATOM     21  S   UNL     1       6.274  -4.696  27.339  0.00  0.00    +0.000 S 
ATOM     22  O   UNL     1       7.419  -5.936  27.326  0.00  0.00    +0.000 OA
ATOM     23  O   UNL     1       5.995  -4.682  28.630  0.00  0.00    +0.000 OA
BRANCH  21  24
ATOM     24  C   UNL     1       5.120  -5.568  26.380  0.00  0.00    +0.000 A 
ATOM     25  C   UNL     1       3.982  -4.611  26.449  0.00  0.00    +0.000 A 
ATOM     26  C   UNL     1       3.274  -4.000  25.328  0.00  0.00    +0.000 A 
ATOM     27  C   UNL     1       3.740  -4.575  23.982  0.00  0.00    +0.000 A 
ATOM     28 CL   UNL     1       2.184  -5.145  23.326  0.00  0.00    +0.000 Cl
ATOM     29  C   UNL     1       4.832  -5.496  23.723  0.00  0.00    +0.000 A 
ATOM     30  C   UNL     1       5.453  -6.086  25.090  0.00  0.00    +0.000 A 
ENDBRANCH  21  24
ENDBRANCH   5  21
TORSDOF 4
ENDMDL
MODEL 5
REMARK VINA RESULT:      -7.4      1.755      1.849
REMARK  Name = 
REMARK  4 active torsions:
REMARK  status: ('A' for Active; 'I' for Inactive)
REMARK    1  A    between atoms: C_3  and  C_4
REMARK    2  A    between atoms: C_20  and  C_22
REMARK    3  A    between atoms: N_35  and  S_36
REMARK    4  A    between atoms: S_36  and  C_39
REMARK                            x       y       z     vdW  Elec       q    Type
REMARK                         _______ _______ _______ _____ _____    ______ ____
ROOT
ATOM      1  C   UNL     1       7.898  -1.475  25.877  0.00  0.00    +0.000 C 
ATOM      2  C   UNL     1       6.492  -1.374  25.118  0.00  0.00    +0.000 C 
ATOM      3  C   UNL     1       6.314   0.184  25.017  0.00  0.00    +0.000 C 
ATOM      4  C   UNL     1       7.883   0.496  24.953  0.00  0.00    +0.000 C 
ATOM      5  N   UNL     1       8.710  -0.205  24.524  0.00  0.00    +0.000 N 
ATOM      6  C   UNL     1       9.140  -1.375  24.982  0.00  0.00    +0.000 C 
ENDROOT
BRANCH   2   7
ATOM      7  C   UNL     1       5.787  -2.453  24.976  0.00  0.00    +0.000 C 
ATOM      8  C   UNL     1       5.236  -3.097  23.745  0.00  0.00    +0.000 A 
ATOM      9  C   UNL     1       5.887  -3.362  22.896  0.00  0.00    +0.000 A 
ATOM     10  C   UNL     1       6.903  -4.376  22.232  0.00  0.00    +0.000 A 
ATOM     11  C   UNL     1       6.217  -5.621  22.795  0.00  0.00    +0.000 A 
ATOM     12  C   UNL     1       5.288  -5.974  23.721  0.00  0.00    +0.000 A 
ATOM     13  C   UNL     1       4.638  -4.576  24.125  0.00  0.00    +0.000 A 
ATOM     14  C   UNL     1       3.769  -4.579  25.163  0.00  0.00    +0.000 C 
ATOM     15  N   UNL     1       4.126  -3.990  26.353  0.00  0.00    +0.000 N 
ATOM     16  C   UNL     1       4.558  -4.359  27.664  0.00  0.00    +0.000 C 
ATOM     17  O   UNL     1       3.550  -4.615  28.264  0.00  0.00    +0.000 OA
ATOM     18  C   UNL     1       4.792  -2.844  26.015  0.00  0.00    +0.000 C 
BRANCH  16  19
ATOM     19  C   UNL     1       5.651  -5.351  27.427  0.00  0.00    +0.000 C 
ATOM     20 CL   UNL     1       4.983  -6.986  27.565  0.00  0.00    +0.000 Cl
ENDBRANCH  16  19
ENDBRANCH   2   7
BRANCH   5  21
ATOM     21  S   UNL     1       9.884   0.681  23.968  0.00  0.00    +0.000 S 
ATOM     22  O   UNL     1       9.189   2.063  24.643  0.00  0.00    +0.000 OA
ATOM     23  O   UNL     1      11.119   0.830  24.413  0.00  0.00    +0.000 OA
BRANCH  21  24
ATOM     24  C   UNL     1       9.661   1.206  22.329  0.00  0.00    +0.000 A 
ATOM     25  C   UNL     1       9.603  -0.122  21.660  0.00  0.00    +0.000 A 
ATOM     26  C   UNL     1       8.532  -0.638  20.811  0.00  0.00    +0.000 A 
ATOM     27  C   UNL     1       7.465   0.432  20.534  0.00  0.00    +0.000 A 
ATOM     28 CL   UNL     1       7.482   0.440  18.752  0.00  0.00    +0.000 Cl
ATOM     29  C   UNL     1       7.351   1.763  21.103  0.00  0.00    +0.000 A 
ATOM     30  C   UNL     1       8.651   2.154  21.974  0.00  0.00    +0.000 A 
ENDBRANCH  21  24
ENDBRANCH   5  21
TORSDOF 4
ENDMDL
MODEL 6
REMARK VINA RESULT:      -7.3      2.865      4.156
REMARK  Name = 
REMARK  4 active torsions:
REMARK  status: ('A' for Active; 'I' for Inactive)
REMARK    1  A    between atoms: C_3  and  C_4
REMARK    2  A    between atoms: C_20  and  C_22
REMARK    3  A    between atoms: N_35  and  S_36
REMARK    4  A    between atoms: S_36  and  C_39
REMARK                            x       y       z     vdW  Elec       q    Type
REMARK                         _______ _______ _______ _____ _____    ______ ____
ROOT
ATOM      1  C   UNL     1       7.447  -3.314  22.511  0.00  0.00    +0.000 C 
ATOM      2  C   UNL     1       7.871  -3.123  24.044  0.00  0.00    +0.000 C 
ATOM      3  C   UNL     1       9.326  -2.552  23.886  0.00  0.00    +0.000 C 
ATOM      4  C   UNL     1       9.037  -1.827  22.487  0.00  0.00    +0.000 C 
ATOM      5  N   UNL     1       8.011  -1.407  22.126  0.00  0.00    +0.000 N 
ATOM      6  C   UNL     1       6.897  -2.061  21.818  0.00  0.00    +0.000 C 
ENDROOT
BRANCH   2   7
ATOM      7  C   UNL     1       7.111  -3.630  24.963  0.00  0.00    +0.000 C 
ATOM      8  C   UNL     1       7.044  -3.351  26.430  0.00  0.00    +0.000 A 
ATOM      9  C   UNL     1       6.892  -2.327  26.812  0.00  0.00    +0.000 A 
ATOM     10  C   UNL     1       5.903  -1.144  27.161  0.00  0.00    +0.000 A 
ATOM     11  C   UNL     1       4.770  -2.064  27.617  0.00  0.00    +0.000 A 
ATOM     12  C   UNL     1       4.404  -3.371  27.576  0.00  0.00    +0.000 A 
ATOM     13  C   UNL     1       5.729  -4.097  27.067  0.00  0.00    +0.000 A 
ATOM     14  C   UNL     1       5.635  -5.414  26.771  0.00  0.00    +0.000 C 
ATOM     15  N   UNL     1       5.715  -5.826  25.461  0.00  0.00    +0.000 N 
ATOM     16  C   UNL     1       4.861  -6.276  24.408  0.00  0.00    +0.000 C 
ATOM     17  O   UNL     1       4.706  -7.449  24.611  0.00  0.00    +0.000 OA
ATOM     18  C   UNL     1       6.694  -5.060  24.890  0.00  0.00    +0.000 C 
BRANCH  16  19
ATOM     19  C   UNL     1       3.742  -5.286  24.391  0.00  0.00    +0.000 C 
ATOM     20 CL   UNL     1       4.038  -4.107  23.102  0.00  0.00    +0.000 Cl
ENDBRANCH  16  19
ENDBRANCH   2   7
BRANCH   5  21
ATOM     21  S   UNL     1       8.275  -0.195  21.159  0.00  0.00    +0.000 S 
ATOM     22  O   UNL     1       9.942  -0.407  21.314  0.00  0.00    +0.000 OA
ATOM     23  O   UNL     1       8.194  -0.128  19.842  0.00  0.00    +0.000 OA
BRANCH  21  24
ATOM     24  C   UNL     1       8.264   1.353  21.942  0.00  0.00    +0.000 A 
ATOM     25  C   UNL     1       7.143   1.129  22.897  0.00  0.00    +0.000 A 
ATOM     26  C   UNL     1       7.179   1.271  24.349  0.00  0.00    +0.000 A 
ATOM     27  C   UNL     1       8.519   1.848  24.829  0.00  0.00    +0.000 A 
ATOM     28 CL   UNL     1       7.945   3.275  25.728  0.00  0.00    +0.000 Cl
ATOM     29  C   UNL     1       9.717   2.115  24.054  0.00  0.00    +0.000 A 
ATOM     30  C   UNL     1       9.457   1.937  22.471  0.00  0.00    +0.000 A 
ENDBRANCH  21  24
ENDBRANCH   5  21
TORSDOF 4
ENDMDL
MODEL 7
REMARK VINA RESULT:      -7.1      3.062      7.214
REMARK  Name = 
REMARK  4 active torsions:
REMARK  status: ('A' for Active; 'I' for Inactive)
REMARK    1  A    between atoms: C_3  and  C_4
REMARK    2  A    between atoms: C_20  and  C_22
REMARK    3  A    between atoms: N_35  and  S_36
REMARK    4  A    between atoms: S_36  and  C_39
REMARK                            x       y       z     vdW  Elec       q    Type
REMARK                         _______ _______ _______ _____ _____    ______ ____
ROOT
ATOM      1  C   UNL     1       8.418  -1.943  26.132  0.00  0.00    +0.000 C 
ATOM      2  C   UNL     1       8.663  -1.921  24.549  0.00  0.00    +0.000 C 
ATOM      3  C   UNL     1       9.507  -3.231  24.355  0.00  0.00    +0.000 C 
ATOM      4  C   UNL     1       8.838  -4.009  25.585  0.00  0.00    +0.000 C 
ATOM      5  N   UNL     1       7.757  -3.853  25.994  0.00  0.00    +0.000 N 
ATOM      6  C   UNL     1       7.234  -2.796  26.604  0.00  0.00    +0.000 C 
ENDROOT
BRANCH   2   7
ATOM      7  C   UNL     1       8.350  -0.849  23.890  0.00  0.00    +0.000 C 
ATOM      8  C   UNL     1       8.468   0.591  24.270  0.00  0.00    +0.000 A 
ATOM      9  C   UNL     1       9.430   1.022  24.594  0.00  0.00    +0.000 A 
ATOM     10  C   UNL     1      10.836   1.639  24.213  0.00  0.00    +0.000 A 
ATOM     11  C   UNL     1      10.321   2.349  22.962  0.00  0.00    +0.000 A 
ATOM     12  C   UNL     1       9.235   2.375  22.146  0.00  0.00    +0.000 A 
ATOM     13  C   UNL     1       8.158   1.528  22.960  0.00  0.00    +0.000 A 
ATOM     14  C   UNL     1       6.997   1.237  22.326  0.00  0.00    +0.000 C 
ATOM     15  N   UNL     1       6.734  -0.058  21.946  0.00  0.00    +0.000 N 
ATOM     16  C   UNL     1       6.730  -0.867  20.769  0.00  0.00    +0.000 C 
ATOM     17  O   UNL     1       5.669  -0.657  20.249  0.00  0.00    +0.000 OA
ATOM     18  C   UNL     1       7.172  -0.844  22.977  0.00  0.00    +0.000 C 
BRANCH  16  19
ATOM     19  C   UNL     1       8.042  -0.576  20.116  0.00  0.00    +0.000 C 
ATOM     20 CL   UNL     1       7.743   0.140  18.523  0.00  0.00    +0.000 Cl
ENDBRANCH  16  19
ENDBRANCH   2   7
BRANCH   5  21
ATOM     21  S   UNL     1       7.255  -5.207  26.617  0.00  0.00    +0.000 S 
ATOM     22  O   UNL     1       8.414  -6.066  25.740  0.00  0.00    +0.000 OA
ATOM     23  O   UNL     1       7.473  -5.723  27.814  0.00  0.00    +0.000 OA
BRANCH  21  24
ATOM     24  C   UNL     1       5.906  -5.914  25.784  0.00  0.00    +0.000 A 
ATOM     25  C   UNL     1       4.820  -5.547  26.734  0.00  0.00    +0.000 A 
ATOM     26  C   UNL     1       3.603  -4.797  26.437  0.00  0.00    +0.000 A 
ATOM     27  C   UNL     1       3.460  -4.523  24.933  0.00  0.00    +0.000 A 
ATOM     28 CL   UNL     1       1.862  -5.252  24.631  0.00  0.00    +0.000 Cl
ATOM     29  C   UNL     1       4.411  -4.793  23.870  0.00  0.00    +0.000 A 
ATOM     30  C   UNL     1       5.664  -5.663  24.397  0.00  0.00    +0.000 A 
ENDBRANCH  21  24
ENDBRANCH   5  21
TORSDOF 4
ENDMDL
MODEL 8
REMARK VINA RESULT:      -7.0      2.550      6.949
REMARK  Name = 
REMARK  4 active torsions:
REMARK  status: ('A' for Active; 'I' for Inactive)
REMARK    1  A    between atoms: C_3  and  C_4
REMARK    2  A    between atoms: C_20  and  C_22
REMARK    3  A    between atoms: N_35  and  S_36
REMARK    4  A    between atoms: S_36  and  C_39
REMARK                            x       y       z     vdW  Elec       q    Type
REMARK                         _______ _______ _______ _____ _____    ______ ____
ROOT
ATOM      1  C   UNL     1       6.461  -0.614  25.619  0.00  0.00    +0.000 C 
ATOM      2  C   UNL     1       8.053  -0.461  25.530  0.00  0.00    +0.000 C 
ATOM      3  C   UNL     1       8.502  -1.197  26.843  0.00  0.00    +0.000 C 
ATOM      4  C   UNL     1       7.265  -2.213  26.859  0.00  0.00    +0.000 C 
ATOM      5  N   UNL     1       6.679  -2.604  25.929  0.00  0.00    +0.000 N 
ATOM      6  C   UNL     1       5.895  -1.938  25.090  0.00  0.00    +0.000 C 
ENDROOT
BRANCH   2   7
ATOM      7  C   UNL     1       8.548   0.334  24.632  0.00  0.00    +0.000 C 
ATOM      8  C   UNL     1       9.389   0.037  23.433  0.00  0.00    +0.000 A 
ATOM      9  C   UNL     1       9.064  -0.689  22.669  0.00  0.00    +0.000 A 
ATOM     10  C   UNL     1       8.200  -1.009  21.384  0.00  0.00    +0.000 A 
ATOM     11  C   UNL     1       8.385   0.377  20.766  0.00  0.00    +0.000 A 
ATOM     12  C   UNL     1       8.819   1.620  21.098  0.00  0.00    +0.000 A 
ATOM     13  C   UNL     1       9.518   1.388  22.512  0.00  0.00    +0.000 A 
ATOM     14  C   UNL     1       9.922   2.490  23.187  0.00  0.00    +0.000 C 
ATOM     15  N   UNL     1       9.262   2.867  24.333  0.00  0.00    +0.000 N 
ATOM     16  C   UNL     1       8.313   3.840  24.773  0.00  0.00    +0.000 C 
ATOM     17  O   UNL     1       8.959   4.826  24.998  0.00  0.00    +0.000 OA
ATOM     18  C   UNL     1       8.994   1.706  25.006  0.00  0.00    +0.000 C 
BRANCH  16  19
ATOM     19  C   UNL     1       7.224   3.782  23.750  0.00  0.00    +0.000 C 
ATOM     20 CL   UNL     1       7.531   5.014  22.515  0.00  0.00    +0.000 Cl
ENDBRANCH  16  19
ENDBRANCH   2   7
BRANCH   5  21
ATOM     21  S   UNL     1       6.119  -4.038  26.252  0.00  0.00    +0.000 S 
ATOM     22  O   UNL     1       7.497  -4.394  27.161  0.00  0.00    +0.000 OA
ATOM     23  O   UNL     1       5.195  -4.413  27.118  0.00  0.00    +0.000 OA
BRANCH  21  24
ATOM     24  C   UNL     1       6.456  -5.222  25.029  0.00  0.00    +0.000 A 
ATOM     25  C   UNL     1       5.140  -5.225  24.333  0.00  0.00    +0.000 A 
ATOM     26  C   UNL     1       4.890  -4.979  22.915  0.00  0.00    +0.000 A 
ATOM     27  C   UNL     1       6.200  -4.848  22.124  0.00  0.00    +0.000 A 
ATOM     28 CL   UNL     1       5.955  -6.116  20.897  0.00  0.00    +0.000 Cl
ATOM     29  C   UNL     1       7.561  -4.808  22.629  0.00  0.00    +0.000 A 
ATOM     30  C   UNL     1       7.623  -5.143  24.206  0.00  0.00    +0.000 A 
ENDBRANCH  21  24
ENDBRANCH   5  21
TORSDOF 4
ENDMDL
MODEL 9
REMARK VINA RESULT:      -6.9      2.204      3.045
REMARK  Name = 
REMARK  4 active torsions:
REMARK  status: ('A' for Active; 'I' for Inactive)
REMARK    1  A    between atoms: C_3  and  C_4
REMARK    2  A    between atoms: C_20  and  C_22
REMARK    3  A    between atoms: N_35  and  S_36
REMARK    4  A    between atoms: S_36  and  C_39
REMARK                            x       y       z     vdW  Elec       q    Type
REMARK                         _______ _______ _______ _____ _____    ______ ____
ROOT
ATOM      1  C   UNL     1       8.103  -1.270  21.925  0.00  0.00    +0.000 C 
ATOM      2  C   UNL     1       8.248  -2.247  23.186  0.00  0.00    +0.000 C 
ATOM      3  C   UNL     1       9.793  -2.163  23.458  0.00  0.00    +0.000 C 
ATOM      4  C   UNL     1       9.946  -0.664  22.915  0.00  0.00    +0.000 C 
ATOM      5  N   UNL     1       9.124   0.163  22.929  0.00  0.00    +0.000 N 
ATOM      6  C   UNL     1       7.979   0.222  22.258  0.00  0.00    +0.000 C 
ENDROOT
BRANCH   2   7
ATOM      7  C   UNL     1       7.232  -2.979  23.521  0.00  0.00    +0.000 C 
ATOM      8  C   UNL     1       6.129  -3.547  22.687  0.00  0.00    +0.000 A 
ATOM      9  C   UNL     1       6.342  -4.174  21.805  0.00  0.00    +0.000 A 
ATOM     10  C   UNL     1       6.701  -5.593  21.205  0.00  0.00    +0.000 A 
ATOM     11  C   UNL     1       5.881  -6.370  22.235  0.00  0.00    +0.000 A 
ATOM     12  C   UNL     1       5.252  -6.187  23.425  0.00  0.00    +0.000 A 
ATOM     13  C   UNL     1       5.253  -4.601  23.588  0.00  0.00    +0.000 A 
ATOM     14  C   UNL     1       4.824  -4.105  24.772  0.00  0.00    +0.000 C 
ATOM     15  N   UNL     1       5.724  -3.518  25.631  0.00  0.00    +0.000 N 
ATOM     16  C   UNL     1       6.424  -3.812  26.841  0.00  0.00    +0.000 C 
ATOM     17  O   UNL     1       5.647  -3.561  27.720  0.00  0.00    +0.000 OA
ATOM     18  C   UNL     1       6.568  -2.786  24.842  0.00  0.00    +0.000 C 
BRANCH  16  19
ATOM     19  C   UNL     1       7.001  -5.173  26.612  0.00  0.00    +0.000 C 
ATOM     20 CL   UNL     1       8.736  -5.014  26.295  0.00  0.00    +0.000 Cl
ENDBRANCH  16  19
ENDBRANCH   2   7
BRANCH   5  21
ATOM     21  S   UNL     1       9.824   1.567  23.033  0.00  0.00    +0.000 S 
ATOM     22  O   UNL     1      10.965   0.943  24.109  0.00  0.00    +0.000 OA
ATOM     23  O   UNL     1      10.641   2.173  22.189  0.00  0.00    +0.000 OA
BRANCH  21  24
ATOM     24  C   UNL     1       9.107   2.632  24.201  0.00  0.00    +0.000 A 
ATOM     25  C   UNL     1       8.599   3.687  23.281  0.00  0.00    +0.000 A 
ATOM     26  C   UNL     1       7.225   4.168  23.163  0.00  0.00    +0.000 A 
ATOM     27  C   UNL     1       6.316   3.554  24.237  0.00  0.00    +0.000 A 
ATOM     28 CL   UNL     1       5.685   5.036  25.001  0.00  0.00    +0.000 Cl
ATOM     29  C   UNL     1       6.629   2.514  25.200  0.00  0.00    +0.000 A 
ATOM     30  C   UNL     1       8.202   2.153  25.199  0.00  0.00    +0.000 A 
ENDBRANCH  21  24
ENDBRANCH   5  21
TORSDOF 4
ENDMDL
