MODEL 1
REMARK VINA RESULT:      -8.7      0.000      0.000
REMARK  Name = 
REMARK  5 active torsions:
REMARK  status: ('A' for Active; 'I' for Inactive)
REMARK    1  A    between atoms: C_10  and  C_11
REMARK    2  A    between atoms: C_11  and  C_14
REMARK    3  A    between atoms: N_33  and  C_34
REMARK    4  A    between atoms: C_34  and  C_37
REMARK    5  A    between atoms: C_44  and  C_45
REMARK                            x       y       z     vdW  Elec       q    Type
REMARK                         _______ _______ _______ _____ _____    ______ ____
ROOT
ATOM      1  C   UNL     1       9.945   2.128  23.032  0.00  0.00    +0.000 C 
ATOM      2  O   UNL     1      10.873   2.908  22.790  0.00  0.00    +0.000 OA
ATOM      3  N   UNL     1      10.054   1.285  24.060  0.00  0.00    +0.000 N 
ATOM      4  C   UNL     1       9.203   1.388  25.231  0.00  0.00    +0.000 C 
ATOM      5  C   UNL     1       8.232   0.233  25.269  0.00  0.00    +0.000 C 
ATOM      6  N   UNL     1       8.870  -1.036  24.924  0.00  0.00    +0.000 N 
ATOM      7  C   UNL     1       8.209  -2.163  25.265  0.00  0.00    +0.000 C 
ATOM      8  O   UNL     1       7.661  -2.334  26.310  0.00  0.00    +0.000 OA
ATOM      9  N   UNL     1       8.095  -3.022  24.225  0.00  0.00    +0.000 N 
ATOM     10  C   UNL     1       7.265  -2.704  23.100  0.00  0.00    +0.000 C 
ATOM     11  C   UNL     1       6.060  -3.660  23.038  0.00  0.00    +0.000 C 
ATOM     12  N   UNL     1       6.312  -4.973  23.365  0.00  0.00    +0.000 NA
ATOM     13  C   UNL     1       7.655  -5.323  23.498  0.00  0.00    +0.000 C 
ATOM     14  C   UNL     1       8.413  -4.423  24.475  0.00  0.00    +0.000 C 
ATOM     15  C   UNL     1       9.834  -1.097  23.845  0.00  0.00    +0.000 C 
ATOM     16  C   UNL     1      10.830   0.053  23.918  0.00  0.00    +0.000 C 
ENDROOT
BRANCH   1  17
ATOM     17  C   UNL     1       8.642   2.296  22.339  0.00  0.00    +0.000 C 
BRANCH  17  24
ATOM     18  C   UNL     1       5.333   0.544  18.677  0.00  0.00    +0.000 A 
ATOM     19  N   UNL     1       5.403   1.734  19.471  0.00  0.00    +0.000 NA
ATOM     20  C   UNL     1       6.322   1.663  20.331  0.00  0.00    +0.000 A 
ATOM     21  C   UNL     1       7.734   1.052  20.434  0.00  0.00    +0.000 A 
ATOM     22  C   UNL     1       7.830  -0.142  19.521  0.00  0.00    +0.000 A 
ATOM     23  C   UNL     1       6.614  -0.054  18.580  0.00  0.00    +0.000 A 
ATOM     24  C   UNL     1       8.007   0.956  21.983  0.00  0.00    +0.000 C 
ATOM     25  C   UNL     1       6.549   1.064  22.548  0.00  0.00    +0.000 C 
ATOM     26  N   UNL     1       5.798   1.795  21.633  0.00  0.00    +0.000 N 
ATOM     27  H   UNL     1       5.823   2.709  21.864  0.00  0.00    +0.000 HD
ENDBRANCH  17  24
ENDBRANCH   1  17
BRANCH  12  28
ATOM     28  C   UNL     1       5.530  -5.928  22.726  0.00  0.00    +0.000 C 
BRANCH  28  29
ATOM     29  C   UNL     1       4.218  -6.180  23.445  0.00  0.00    +0.000 A 
ATOM     30  C   UNL     1       4.708  -6.914  24.694  0.00  0.00    +0.000 A 
ATOM     31  C   UNL     1       4.518  -6.559  26.107  0.00  0.00    +0.000 A 
ATOM     32  C   UNL     1       3.544  -5.403  26.093  0.00  0.00    +0.000 A 
ATOM     33  C   UNL     1       2.970  -4.516  25.182  0.00  0.00    +0.000 A 
ATOM     34  C   UNL     1       3.641  -3.141  25.331  0.00  0.00    +0.000 C 
ATOM     35  C   UNL     1       3.276  -5.105  23.763  0.00  0.00    +0.000 A 
ENDBRANCH  28  29
ENDBRANCH  12  28
TORSDOF 4
ENDMDL
MODEL 2
REMARK VINA RESULT:      -8.7      1.654      2.006
REMARK  Name = 
REMARK  5 active torsions:
REMARK  status: ('A' for Active; 'I' for Inactive)
REMARK    1  A    between atoms: C_10  and  C_11
REMARK    2  A    between atoms: C_11  and  C_14
REMARK    3  A    between atoms: N_33  and  C_34
REMARK    4  A    between atoms: C_34  and  C_37
REMARK    5  A    between atoms: C_44  and  C_45
REMARK                            x       y       z     vdW  Elec       q    Type
REMARK                         _______ _______ _______ _____ _____    ______ ____
ROOT
ATOM      1  C   UNL     1       9.528   1.824  22.880  0.00  0.00    +0.000 C 
ATOM      2  O   UNL     1      10.455   2.522  22.453  0.00  0.00    +0.000 OA
ATOM      3  N   UNL     1       9.553   1.412  24.148  0.00  0.00    +0.000 N 
ATOM      4  C   UNL     1       8.583   1.874  25.125  0.00  0.00    +0.000 C 
ATOM      5  C   UNL     1       7.645   0.751  25.494  0.00  0.00    +0.000 C 
ATOM      6  N   UNL     1       8.349  -0.515  25.687  0.00  0.00    +0.000 N 
ATOM      7  C   UNL     1       7.686  -1.485  26.354  0.00  0.00    +0.000 C 
ATOM      8  O   UNL     1       7.039  -1.305  27.338  0.00  0.00    +0.000 OA
ATOM      9  N   UNL     1       7.703  -2.665  25.689  0.00  0.00    +0.000 N 
ATOM     10  C   UNL     1       6.985  -2.820  24.458  0.00  0.00    +0.000 C 
ATOM     11  C   UNL     1       5.818  -3.809  24.642  0.00  0.00    +0.000 C 
ATOM     12  N   UNL     1       6.070  -4.900  25.442  0.00  0.00    +0.000 NA
ATOM     13  C   UNL     1       7.401  -5.095  25.808  0.00  0.00    +0.000 C 
ATOM     14  C   UNL     1       8.030  -3.860  26.455  0.00  0.00    +0.000 C 
ATOM     15  C   UNL     1       9.420  -0.898  24.791  0.00  0.00    +0.000 C 
ATOM     16  C   UNL     1      10.372   0.262  24.529  0.00  0.00    +0.000 C 
ENDROOT
BRANCH   1  17
ATOM     17  C   UNL     1       8.299   1.652  22.062  0.00  0.00    +0.000 C 
BRANCH  17  24
ATOM     18  C   UNL     1       5.784  -1.850  19.091  0.00  0.00    +0.000 A 
ATOM     19  N   UNL     1       5.955  -1.680  20.503  0.00  0.00    +0.000 NA
ATOM     20  C   UNL     1       6.765  -0.750  20.761  0.00  0.00    +0.000 A 
ATOM     21  C   UNL     1       7.152   0.618  20.162  0.00  0.00    +0.000 A 
ATOM     22  C   UNL     1       6.878   0.609  18.681  0.00  0.00    +0.000 A 
ATOM     23  C   UNL     1       5.984  -0.618  18.422  0.00  0.00    +0.000 A 
ATOM     24  C   UNL     1       8.580   0.917  20.757  0.00  0.00    +0.000 C 
ATOM     25  C   UNL     1       9.017  -0.517  21.214  0.00  0.00    +0.000 C 
ATOM     26  N   UNL     1       7.861  -1.234  21.505  0.00  0.00    +0.000 N 
ATOM     27  H   UNL     1       7.654  -1.140  22.420  0.00  0.00    +0.000 HD
ENDBRANCH  17  24
ENDBRANCH   1  17
BRANCH  12  28
ATOM     28  C   UNL     1       5.384  -6.067  25.126  0.00  0.00    +0.000 C 
BRANCH  28  29
ATOM     29  C   UNL     1       4.174  -6.287  26.014  0.00  0.00    +0.000 A 
ATOM     30  C   UNL     1       4.830  -6.891  27.257  0.00  0.00    +0.000 A 
ATOM     31  C   UNL     1       4.791  -6.414  28.646  0.00  0.00    +0.000 A 
ATOM     32  C   UNL     1       3.780  -5.289  28.645  0.00  0.00    +0.000 A 
ATOM     33  C   UNL     1       3.074  -4.504  27.734  0.00  0.00    +0.000 A 
ATOM     34  C   UNL     1       3.707  -3.104  27.682  0.00  0.00    +0.000 C 
ATOM     35  C   UNL     1       3.235  -5.211  26.346  0.00  0.00    +0.000 A 
ENDBRANCH  28  29
ENDBRANCH  12  28
TORSDOF 4
ENDMDL
MODEL 3
REMARK VINA RESULT:      -8.5      1.261      1.561
REMARK  Name = 
REMARK  5 active torsions:
REMARK  status: ('A' for Active; 'I' for Inactive)
REMARK    1  A    between atoms: C_10  and  C_11
REMARK    2  A    between atoms: C_11  and  C_14
REMARK    3  A    between atoms: N_33  and  C_34
REMARK    4  A    between atoms: C_34  and  C_37
REMARK    5  A    between atoms: C_44  and  C_45
REMARK                            x       y       z     vdW  Elec       q    Type
REMARK                         _______ _______ _______ _____ _____    ______ ____
ROOT
ATOM      1  C   UNL     1       9.736   1.364  22.650  0.00  0.00    +0.000 C 
ATOM      2  O   UNL     1      10.532   2.010  21.959  0.00  0.00    +0.000 OA
ATOM      3  N   UNL     1      10.179   0.318  23.349  0.00  0.00    +0.000 N 
ATOM      4  C   UNL     1      10.194   0.315  24.801  0.00  0.00    +0.000 C 
ATOM      5  C   UNL     1       9.152  -0.642  25.327  0.00  0.00    +0.000 C 
ATOM      6  N   UNL     1       9.131  -1.899  24.582  0.00  0.00    +0.000 N 
ATOM      7  C   UNL     1       8.509  -2.944  25.169  0.00  0.00    +0.000 C 
ATOM      8  O   UNL     1       8.621  -3.236  26.319  0.00  0.00    +0.000 OA
ATOM      9  N   UNL     1       7.613  -3.535  24.343  0.00  0.00    +0.000 N 
ATOM     10  C   UNL     1       6.412  -2.852  23.959  0.00  0.00    +0.000 C 
ATOM     11  C   UNL     1       5.182  -3.557  24.558  0.00  0.00    +0.000 C 
ATOM     12  N   UNL     1       5.223  -4.932  24.578  0.00  0.00    +0.000 NA
ATOM     13  C   UNL     1       6.262  -5.524  23.860  0.00  0.00    +0.000 C 
ATOM     14  C   UNL     1       7.639  -4.989  24.256  0.00  0.00    +0.000 C 
ATOM     15  C   UNL     1       9.267  -1.894  23.140  0.00  0.00    +0.000 C 
ATOM     16  C   UNL     1      10.390  -0.969  22.687  0.00  0.00    +0.000 C 
ENDROOT
BRANCH   1  17
ATOM     17  C   UNL     1       8.366   1.891  22.882  0.00  0.00    +0.000 C 
BRANCH  17  24
ATOM     18  C   UNL     1       5.221   0.474  18.942  0.00  0.00    +0.000 A 
ATOM     19  N   UNL     1       5.652   1.734  19.470  0.00  0.00    +0.000 NA
ATOM     20  C   UNL     1       6.321   1.587  20.528  0.00  0.00    +0.000 A 
ATOM     21  C   UNL     1       7.325   0.567  21.104  0.00  0.00    +0.000 A 
ATOM     22  C   UNL     1       7.059  -0.788  20.505  0.00  0.00    +0.000 A 
ATOM     23  C   UNL     1       6.142  -0.543  19.291  0.00  0.00    +0.000 A 
ATOM     24  C   UNL     1       7.299   0.826  22.658  0.00  0.00    +0.000 C 
ATOM     25  C   UNL     1       5.946   1.604  22.806  0.00  0.00    +0.000 C 
ATOM     26  N   UNL     1       5.708   2.262  21.604  0.00  0.00    +0.000 N 
ATOM     27  H   UNL     1       6.070   3.132  21.644  0.00  0.00    +0.000 HD
ENDBRANCH  17  24
ENDBRANCH   1  17
BRANCH  12  28
ATOM     28  C   UNL     1       4.001  -5.587  24.463  0.00  0.00    +0.000 C 
BRANCH  28  29
ATOM     29  C   UNL     1       3.393  -5.921  25.813  0.00  0.00    +0.000 A 
ATOM     30  C   UNL     1       4.442  -6.882  26.374  0.00  0.00    +0.000 A 
ATOM     31  C   UNL     1       5.216  -6.780  27.619  0.00  0.00    +0.000 A 
ATOM     32  C   UNL     1       4.612  -5.609  28.360  0.00  0.00    +0.000 A 
ATOM     33  C   UNL     1       3.728  -4.555  28.129  0.00  0.00    +0.000 A 
ATOM     34  C   UNL     1       4.529  -3.252  27.984  0.00  0.00    +0.000 C 
ATOM     35  C   UNL     1       3.008  -4.890  26.779  0.00  0.00    +0.000 A 
ENDBRANCH  28  29
ENDBRANCH  12  28
TORSDOF 4
ENDMDL
MODEL 4
REMARK VINA RESULT:      -8.2      1.873      2.708
REMARK  Name = 
REMARK  5 active torsions:
REMARK  status: ('A' for Active; 'I' for Inactive)
REMARK    1  A    between atoms: C_10  and  C_11
REMARK    2  A    between atoms: C_11  and  C_14
REMARK    3  A    between atoms: N_33  and  C_34
REMARK    4  A    between atoms: C_34  and  C_37
REMARK    5  A    between atoms: C_44  and  C_45
REMARK                            x       y       z     vdW  Elec       q    Type
REMARK                         _______ _______ _______ _____ _____    ______ ____
ROOT
ATOM      1  C   UNL     1       9.613   1.215  22.546  0.00  0.00    +0.000 C 
ATOM      2  O   UNL     1      10.415   1.967  21.982  0.00  0.00    +0.000 OA
ATOM      3  N   UNL     1      10.031   0.027  22.985  0.00  0.00    +0.000 N 
ATOM      4  C   UNL     1      10.088  -0.293  24.400  0.00  0.00    +0.000 C 
ATOM      5  C   UNL     1       9.022  -1.305  24.746  0.00  0.00    +0.000 C 
ATOM      6  N   UNL     1       8.926  -2.367  23.747  0.00  0.00    +0.000 N 
ATOM      7  C   UNL     1       8.277  -3.493  24.116  0.00  0.00    +0.000 C 
ATOM      8  O   UNL     1       8.410  -4.032  25.171  0.00  0.00    +0.000 OA
ATOM      9  N   UNL     1       7.333  -3.857  23.217  0.00  0.00    +0.000 N 
ATOM     10  C   UNL     1       6.152  -3.065  23.035  0.00  0.00    +0.000 C 
ATOM     11  C   UNL     1       4.911  -3.840  23.514  0.00  0.00    +0.000 C 
ATOM     12  N   UNL     1       4.893  -5.187  23.234  0.00  0.00    +0.000 NA
ATOM     13  C   UNL     1       5.885  -5.644  22.367  0.00  0.00    +0.000 C 
ATOM     14  C   UNL     1       7.295  -5.258  22.816  0.00  0.00    +0.000 C 
ATOM     15  C   UNL     1       9.020  -2.053  22.336  0.00  0.00    +0.000 C 
ATOM     16  C   UNL     1      10.167  -1.092  22.053  0.00  0.00    +0.000 C 
ENDROOT
BRANCH   1  17
ATOM     17  C   UNL     1       8.274   1.727  22.938  0.00  0.00    +0.000 C 
BRANCH  17  24
ATOM     18  C   UNL     1       4.417   5.267  22.820  0.00  0.00    +0.000 A 
ATOM     19  N   UNL     1       4.543   3.947  23.362  0.00  0.00    +0.000 NA
ATOM     20  C   UNL     1       5.636   3.414  23.030  0.00  0.00    +0.000 A 
ATOM     21  C   UNL     1       7.090   3.865  22.782  0.00  0.00    +0.000 A 
ATOM     22  C   UNL     1       7.097   5.303  22.338  0.00  0.00    +0.000 A 
ATOM     23  C   UNL     1       5.696   5.856  22.664  0.00  0.00    +0.000 A 
ATOM     24  C   UNL     1       7.716   2.708  21.914  0.00  0.00    +0.000 C 
ATOM     25  C   UNL     1       6.421   2.005  21.379  0.00  0.00    +0.000 C 
ATOM     26  N   UNL     1       5.411   2.222  22.310  0.00  0.00    +0.000 N 
ATOM     27  H   UNL     1       5.394   1.509  22.928  0.00  0.00    +0.000 HD
ENDBRANCH  17  24
ENDBRANCH   1  17
BRANCH  12  28
ATOM     28  C   UNL     1       3.642  -5.757  23.027  0.00  0.00    +0.000 C 
BRANCH  28  29
ATOM     29  C   UNL     1       3.082  -6.399  24.282  0.00  0.00    +0.000 A 
ATOM     30  C   UNL     1       4.355  -6.971  24.909  0.00  0.00    +0.000 A 
ATOM     31  C   UNL     1       4.929  -6.708  26.236  0.00  0.00    +0.000 A 
ATOM     32  C   UNL     1       3.881  -5.895  26.961  0.00  0.00    +0.000 A 
ATOM     33  C   UNL     1       2.699  -5.207  26.686  0.00  0.00    +0.000 A 
ATOM     34  C   UNL     1       2.985  -3.697  26.694  0.00  0.00    +0.000 C 
ATOM     35  C   UNL     1       2.268  -5.658  25.249  0.00  0.00    +0.000 A 
ENDBRANCH  28  29
ENDBRANCH  12  28
TORSDOF 4
ENDMDL
MODEL 5
REMARK VINA RESULT:      -7.8      2.941      4.832
REMARK  Name = 
REMARK  5 active torsions:
REMARK  status: ('A' for Active; 'I' for Inactive)
REMARK    1  A    between atoms: C_10  and  C_11
REMARK    2  A    between atoms: C_11  and  C_14
REMARK    3  A    between atoms: N_33  and  C_34
REMARK    4  A    between atoms: C_34  and  C_37
REMARK    5  A    between atoms: C_44  and  C_45
REMARK                            x       y       z     vdW  Elec       q    Type
REMARK                         _______ _______ _______ _____ _____    ______ ____
ROOT
ATOM      1  C   UNL     1       7.899   3.334  22.614  0.00  0.00    +0.000 C 
ATOM      2  O   UNL     1       7.478   4.328  22.012  0.00  0.00    +0.000 OA
ATOM      3  N   UNL     1       8.476   2.350  21.923  0.00  0.00    +0.000 N 
ATOM      4  C   UNL     1       9.886   2.035  22.067  0.00  0.00    +0.000 C 
ATOM      5  C   UNL     1      10.052   0.712  22.776  0.00  0.00    +0.000 C 
ATOM      6  N   UNL     1       9.111  -0.295  22.290  0.00  0.00    +0.000 N 
ATOM      7  C   UNL     1       9.394  -1.583  22.583  0.00  0.00    +0.000 C 
ATOM      8  O   UNL     1      10.479  -2.069  22.506  0.00  0.00    +0.000 OA
ATOM      9  N   UNL     1       8.336  -2.226  23.131  0.00  0.00    +0.000 N 
ATOM     10  C   UNL     1       7.869  -1.881  24.442  0.00  0.00    +0.000 C 
ATOM     11  C   UNL     1       8.115  -3.044  25.420  0.00  0.00    +0.000 C 
ATOM     12  N   UNL     1       7.907  -4.309  24.920  0.00  0.00    +0.000 NA
ATOM     13  C   UNL     1       7.293  -4.379  23.671  0.00  0.00    +0.000 C 
ATOM     14  C   UNL     1       8.008  -3.546  22.606  0.00  0.00    +0.000 C 
ATOM     15  C   UNL     1       7.738   0.066  22.006  0.00  0.00    +0.000 C 
ATOM     16  C   UNL     1       7.652   1.367  21.219  0.00  0.00    +0.000 C 
ENDROOT
BRANCH   1  17
ATOM     17  C   UNL     1       7.973   3.348  24.098  0.00  0.00    +0.000 C 
BRANCH  17  24
ATOM     18  C   UNL     1       5.852   3.752  28.869  0.00  0.00    +0.000 A 
ATOM     19  N   UNL     1       7.153   3.401  28.382  0.00  0.00    +0.000 NA
ATOM     20  C   UNL     1       7.167   3.311  27.125  0.00  0.00    +0.000 A 
ATOM     21  C   UNL     1       6.487   4.009  25.929  0.00  0.00    +0.000 A 
ATOM     22  C   UNL     1       5.152   4.553  26.362  0.00  0.00    +0.000 A 
ATOM     23  C   UNL     1       5.160   4.523  27.902  0.00  0.00    +0.000 A 
ATOM     24  C   UNL     1       6.639   2.986  24.740  0.00  0.00    +0.000 C 
ATOM     25  C   UNL     1       6.941   1.663  25.525  0.00  0.00    +0.000 C 
ATOM     26  N   UNL     1       7.555   2.016  26.722  0.00  0.00    +0.000 N 
ATOM     27  H   UNL     1       8.491   2.017  26.608  0.00  0.00    +0.000 HD
ENDBRANCH  17  24
ENDBRANCH   1  17
BRANCH  12  28
ATOM     28  C   UNL     1       7.471  -5.267  25.829  0.00  0.00    +0.000 C 
BRANCH  28  29
ATOM     29  C   UNL     1       6.146  -4.899  26.469  0.00  0.00    +0.000 A 
ATOM     30  C   UNL     1       5.230  -5.972  25.878  0.00  0.00    +0.000 A 
ATOM     31  C   UNL     1       4.403  -6.967  26.576  0.00  0.00    +0.000 A 
ATOM     32  C   UNL     1       4.478  -6.582  28.036  0.00  0.00    +0.000 A 
ATOM     33  C   UNL     1       5.211  -5.737  28.870  0.00  0.00    +0.000 A 
ATOM     34  C   UNL     1       6.212  -6.577  29.679  0.00  0.00    +0.000 C 
ATOM     35  C   UNL     1       5.983  -4.762  27.918  0.00  0.00    +0.000 A 
ENDBRANCH  28  29
ENDBRANCH  12  28
TORSDOF 4
ENDMDL
MODEL 6
REMARK VINA RESULT:      -7.8      1.840      2.417
REMARK  Name = 
REMARK  5 active torsions:
REMARK  status: ('A' for Active; 'I' for Inactive)
REMARK    1  A    between atoms: C_10  and  C_11
REMARK    2  A    between atoms: C_11  and  C_14
REMARK    3  A    between atoms: N_33  and  C_34
REMARK    4  A    between atoms: C_34  and  C_37
REMARK    5  A    between atoms: C_44  and  C_45
REMARK                            x       y       z     vdW  Elec       q    Type
REMARK                         _______ _______ _______ _____ _____    ______ ____
ROOT
ATOM      1  C   UNL     1       9.831   0.096  24.601  0.00  0.00    +0.000 C 
ATOM      2  O   UNL     1      10.993   0.506  24.505  0.00  0.00    +0.000 OA
ATOM      3  N   UNL     1       9.538  -0.822  25.523  0.00  0.00    +0.000 N 
ATOM      4  C   UNL     1       8.674  -0.528  26.652  0.00  0.00    +0.000 C 
ATOM      5  C   UNL     1       7.358  -1.252  26.498  0.00  0.00    +0.000 C 
ATOM      6  N   UNL     1       7.535  -2.626  26.036  0.00  0.00    +0.000 N 
ATOM      7  C   UNL     1       6.489  -3.464  26.203  0.00  0.00    +0.000 C 
ATOM      8  O   UNL     1       5.822  -3.523  27.189  0.00  0.00    +0.000 OA
ATOM      9  N   UNL     1       6.175  -4.122  25.061  0.00  0.00    +0.000 N 
ATOM     10  C   UNL     1       5.620  -3.420  23.941  0.00  0.00    +0.000 C 
ATOM     11  C   UNL     1       4.166  -3.865  23.700  0.00  0.00    +0.000 C 
ATOM     12  N   UNL     1       3.905  -5.205  23.879  0.00  0.00    +0.000 NA
ATOM     13  C   UNL     1       5.019  -6.028  24.039  0.00  0.00    +0.000 C 
ATOM     14  C   UNL     1       5.952  -5.559  25.156  0.00  0.00    +0.000 C 
ATOM     15  C   UNL     1       8.511  -2.931  25.010  0.00  0.00    +0.000 C 
ATOM     16  C   UNL     1       9.838  -2.231  25.275  0.00  0.00    +0.000 C 
ENDROOT
BRANCH   1  17
ATOM     17  C   UNL     1       8.742   0.790  23.865  0.00  0.00    +0.000 C 
BRANCH  17  24
ATOM     18  C   UNL     1       5.919   1.264  19.480  0.00  0.00    +0.000 A 
ATOM     19  N   UNL     1       6.023   2.028  20.687  0.00  0.00    +0.000 NA
ATOM     20  C   UNL     1       6.751   1.451  21.538  0.00  0.00    +0.000 A 
ATOM     21  C   UNL     1       8.015   0.566  21.537  0.00  0.00    +0.000 A 
ATOM     22  C   UNL     1       8.092  -0.191  20.238  0.00  0.00    +0.000 A 
ATOM     23  C   UNL     1       7.092   0.494  19.287  0.00  0.00    +0.000 A 
ATOM     24  C   UNL     1       7.988  -0.157  22.937  0.00  0.00    +0.000 C 
ATOM     25  C   UNL     1       6.485   0.033  23.340  0.00  0.00    +0.000 C 
ATOM     26  N   UNL     1       6.028   1.192  22.721  0.00  0.00    +0.000 N 
ATOM     27  H   UNL     1       6.148   1.927  23.300  0.00  0.00    +0.000 HD
ENDBRANCH  17  24
ENDBRANCH   1  17
BRANCH  12  28
ATOM     28  C   UNL     1       2.898  -5.747  23.088  0.00  0.00    +0.000 C 
BRANCH  28  29
ATOM     29  C   UNL     1       1.687  -6.168  23.898  0.00  0.00    +0.000 A 
ATOM     30  C   UNL     1       1.684  -7.678  23.654  0.00  0.00    +0.000 A 
ATOM     31  C   UNL     1       1.748  -8.771  24.633  0.00  0.00    +0.000 A 
ATOM     32  C   UNL     1       1.610  -8.098  25.980  0.00  0.00    +0.000 A 
ATOM     33  C   UNL     1       1.636  -6.816  26.529  0.00  0.00    +0.000 A 
ATOM     34  C   UNL     1       2.974  -6.609  27.256  0.00  0.00    +0.000 C 
ATOM     35  C   UNL     1       1.533  -5.831  25.316  0.00  0.00    +0.000 A 
ENDBRANCH  28  29
ENDBRANCH  12  28
TORSDOF 4
ENDMDL
MODEL 7
REMARK VINA RESULT:      -7.7      2.684      8.619
REMARK  Name = 
REMARK  5 active torsions:
REMARK  status: ('A' for Active; 'I' for Inactive)
REMARK    1  A    between atoms: C_10  and  C_11
REMARK    2  A    between atoms: C_11  and  C_14
REMARK    3  A    between atoms: N_33  and  C_34
REMARK    4  A    between atoms: C_34  and  C_37
REMARK    5  A    between atoms: C_44  and  C_45
REMARK                            x       y       z     vdW  Elec       q    Type
REMARK                         _______ _______ _______ _____ _____    ______ ____
ROOT
ATOM      1  C   UNL     1       4.763  -6.444  24.517  0.00  0.00    +0.000 C 
ATOM      2  O   UNL     1       4.472  -7.642  24.602  0.00  0.00    +0.000 OA
ATOM      3  N   UNL     1       5.221  -5.966  23.359  0.00  0.00    +0.000 N 
ATOM      4  C   UNL     1       4.466  -5.009  22.571  0.00  0.00    +0.000 C 
ATOM      5  C   UNL     1       5.139  -3.658  22.612  0.00  0.00    +0.000 C 
ATOM      6  N   UNL     1       6.590  -3.760  22.467  0.00  0.00    +0.000 N 
ATOM      7  C   UNL     1       7.249  -2.629  22.134  0.00  0.00    +0.000 C 
ATOM      8  O   UNL     1       6.881  -1.852  21.309  0.00  0.00    +0.000 OA
ATOM      9  N   UNL     1       8.297  -2.388  22.957  0.00  0.00    +0.000 N 
ATOM     10  C   UNL     1       8.083  -2.031  24.329  0.00  0.00    +0.000 C 
ATOM     11  C   UNL     1       8.531  -0.579  24.578  0.00  0.00    +0.000 C 
ATOM     12  N   UNL     1       9.675  -0.178  23.926  0.00  0.00    +0.000 NA
ATOM     13  C   UNL     1      10.407  -1.187  23.300  0.00  0.00    +0.000 C 
ATOM     14  C   UNL     1       9.566  -2.025  22.337  0.00  0.00    +0.000 C 
ATOM     15  C   UNL     1       7.318  -4.814  23.142  0.00  0.00    +0.000 C 
ATOM     16  C   UNL     1       6.623  -6.161  22.989  0.00  0.00    +0.000 C 
ENDROOT
BRANCH   1  17
ATOM     17  C   UNL     1       4.383  -5.514  25.612  0.00  0.00    +0.000 C 
BRANCH  17  24
ATOM     18  C   UNL     1       4.082  -3.883  30.579  0.00  0.00    +0.000 A 
ATOM     19  N   UNL     1       4.066  -3.221  29.309  0.00  0.00    +0.000 NA
ATOM     20  C   UNL     1       4.300  -4.023  28.366  0.00  0.00    +0.000 A 
ATOM     21  C   UNL     1       4.001  -5.499  28.031  0.00  0.00    +0.000 A 
ATOM     22  C   UNL     1       3.853  -6.281  29.309  0.00  0.00    +0.000 A 
ATOM     23  C   UNL     1       3.690  -5.236  30.430  0.00  0.00    +0.000 A 
ATOM     24  C   UNL     1       5.063  -5.874  26.928  0.00  0.00    +0.000 C 
ATOM     25  C   UNL     1       6.119  -4.734  27.135  0.00  0.00    +0.000 C 
ATOM     26  N   UNL     1       5.448  -3.628  27.648  0.00  0.00    +0.000 N 
ATOM     27  H   UNL     1       5.168  -3.072  26.939  0.00  0.00    +0.000 HD
ENDBRANCH  17  24
ENDBRANCH   1  17
BRANCH  12  28
ATOM     28  C   UNL     1      10.451   0.777  24.574  0.00  0.00    +0.000 C 
BRANCH  28  29
ATOM     29  C   UNL     1      10.218   2.175  24.034  0.00  0.00    +0.000 A 
ATOM     30  C   UNL     1      10.077   1.890  22.538  0.00  0.00    +0.000 A 
ATOM     31  C   UNL     1       8.954   2.198  21.641  0.00  0.00    +0.000 A 
ATOM     32  C   UNL     1       8.022   3.059  22.464  0.00  0.00    +0.000 A 
ATOM     33  C   UNL     1       7.839   3.450  23.790  0.00  0.00    +0.000 A 
ATOM     34  C   UNL     1       6.647   2.680  24.381  0.00  0.00    +0.000 C 
ATOM     35  C   UNL     1       9.155   3.047  24.539  0.00  0.00    +0.000 A 
ENDBRANCH  28  29
ENDBRANCH  12  28
TORSDOF 4
ENDMDL
MODEL 8
REMARK VINA RESULT:      -7.6      2.586      8.038
REMARK  Name = 
REMARK  5 active torsions:
REMARK  status: ('A' for Active; 'I' for Inactive)
REMARK    1  A    between atoms: C_10  and  C_11
REMARK    2  A    between atoms: C_11  and  C_14
REMARK    3  A    between atoms: N_33  and  C_34
REMARK    4  A    between atoms: C_34  and  C_37
REMARK    5  A    between atoms: C_44  and  C_45
REMARK                            x       y       z     vdW  Elec       q    Type
REMARK                         _______ _______ _______ _____ _____    ______ ____
ROOT
ATOM      1  C   UNL     1       6.611  -5.282  26.161  0.00  0.00    +0.000 C 
ATOM      2  O   UNL     1       6.425  -6.149  27.023  0.00  0.00    +0.000 OA
ATOM      3  N   UNL     1       7.843  -5.084  25.692  0.00  0.00    +0.000 N 
ATOM      4  C   UNL     1       8.198  -5.382  24.316  0.00  0.00    +0.000 C 
ATOM      5  C   UNL     1       8.438  -4.101  23.553  0.00  0.00    +0.000 C 
ATOM      6  N   UNL     1       9.213  -3.135  24.329  0.00  0.00    +0.000 N 
ATOM      7  C   UNL     1       9.785  -2.122  23.642  0.00  0.00    +0.000 C 
ATOM      8  O   UNL     1      10.348  -2.248  22.599  0.00  0.00    +0.000 OA
ATOM      9  N   UNL     1       9.509  -0.914  24.188  0.00  0.00    +0.000 N 
ATOM     10  C   UNL     1       8.179  -0.381  24.150  0.00  0.00    +0.000 C 
ATOM     11  C   UNL     1       8.130   0.865  23.246  0.00  0.00    +0.000 C 
ATOM     12  N   UNL     1       9.215   1.709  23.319  0.00  0.00    +0.000 NA
ATOM     13  C   UNL     1      10.118   1.456  24.351  0.00  0.00    +0.000 C 
ATOM     14  C   UNL     1      10.621   0.012  24.364  0.00  0.00    +0.000 C 
ATOM     15  C   UNL     1       8.949  -2.953  25.741  0.00  0.00    +0.000 C 
ATOM     16  C   UNL     1       8.800  -4.288  26.459  0.00  0.00    +0.000 C 
ENDROOT
BRANCH   1  17
ATOM     17  C   UNL     1       5.445  -4.646  25.494  0.00  0.00    +0.000 C 
BRANCH  17  24
ATOM     18  C   UNL     1       1.488  -6.951  22.954  0.00  0.00    +0.000 A 
ATOM     19  N   UNL     1       2.288  -5.788  22.710  0.00  0.00    +0.000 NA
ATOM     20  C   UNL     1       3.053  -5.541  23.679  0.00  0.00    +0.000 A 
ATOM     21  C   UNL     1       3.856  -6.343  24.724  0.00  0.00    +0.000 A 
ATOM     22  C   UNL     1       3.181  -7.668  24.963  0.00  0.00    +0.000 A 
ATOM     23  C   UNL     1       2.177  -7.847  23.808  0.00  0.00    +0.000 A 
ATOM     24  C   UNL     1       4.131  -5.312  25.884  0.00  0.00    +0.000 C 
ATOM     25  C   UNL     1       3.046  -4.223  25.574  0.00  0.00    +0.000 C 
ATOM     26  N   UNL     1       2.794  -4.259  24.207  0.00  0.00    +0.000 N 
ATOM     27  H   UNL     1       3.358  -3.645  23.766  0.00  0.00    +0.000 HD
ENDBRANCH  17  24
ENDBRANCH   1  17
BRANCH  12  28
ATOM     28  C   UNL     1       8.963   3.058  23.094  0.00  0.00    +0.000 C 
BRANCH  28  29
ATOM     29  C   UNL     1       8.609   3.801  24.368  0.00  0.00    +0.000 A 
ATOM     30  C   UNL     1       8.180   5.157  23.803  0.00  0.00    +0.000 A 
ATOM     31  C   UNL     1       6.899   5.859  23.960  0.00  0.00    +0.000 A 
ATOM     32  C   UNL     1       6.134   5.052  24.984  0.00  0.00    +0.000 A 
ATOM     33  C   UNL     1       6.209   3.817  25.628  0.00  0.00    +0.000 A 
ATOM     34  C   UNL     1       5.168   2.867  25.014  0.00  0.00    +0.000 C 
ATOM     35  C   UNL     1       7.652   3.277  25.345  0.00  0.00    +0.000 A 
ENDBRANCH  28  29
ENDBRANCH  12  28
TORSDOF 4
ENDMDL
MODEL 9
REMARK VINA RESULT:      -7.6      2.309      4.041
REMARK  Name = 
REMARK  5 active torsions:
REMARK  status: ('A' for Active; 'I' for Inactive)
REMARK    1  A    between atoms: C_10  and  C_11
REMARK    2  A    between atoms: C_11  and  C_14
REMARK    3  A    between atoms: N_33  and  C_34
REMARK    4  A    between atoms: C_34  and  C_37
REMARK    5  A    between atoms: C_44  and  C_45
REMARK                            x       y       z     vdW  Elec       q    Type
REMARK                         _______ _______ _______ _____ _____    ______ ____
ROOT
ATOM      1  C   UNL     1       9.880   1.255  22.405  0.00  0.00    +0.000 C 
ATOM      2  O   UNL     1      10.445   2.027  21.622  0.00  0.00    +0.000 OA
ATOM      3  N   UNL     1       9.857  -0.050  22.131  0.00  0.00    +0.000 N 
ATOM      4  C   UNL     1      10.559  -1.020  22.951  0.00  0.00    +0.000 C 
ATOM      5  C   UNL     1       9.570  -1.859  23.723  0.00  0.00    +0.000 C 
ATOM      6  N   UNL     1       8.433  -2.266  22.901  0.00  0.00    +0.000 N 
ATOM      7  C   UNL     1       7.684  -3.291  23.363  0.00  0.00    +0.000 C 
ATOM      8  O   UNL     1       8.128  -4.288  23.843  0.00  0.00    +0.000 OA
ATOM      9  N   UNL     1       6.363  -2.995  23.371  0.00  0.00    +0.000 N 
ATOM     10  C   UNL     1       5.838  -2.015  24.276  0.00  0.00    +0.000 C 
ATOM     11  C   UNL     1       4.919  -2.684  25.313  0.00  0.00    +0.000 C 
ATOM     12  N   UNL     1       4.114  -3.698  24.845  0.00  0.00    +0.000 NA
ATOM     13  C   UNL     1       4.065  -3.849  23.460  0.00  0.00    +0.000 C 
ATOM     14  C   UNL     1       5.450  -3.992  22.825  0.00  0.00    +0.000 C 
ATOM     15  C   UNL     1       7.831  -1.331  21.974  0.00  0.00    +0.000 C 
ATOM     16  C   UNL     1       8.887  -0.579  21.173  0.00  0.00    +0.000 C 
ENDROOT
BRANCH   1  17
ATOM     17  C   UNL     1       9.449   1.747  23.740  0.00  0.00    +0.000 C 
BRANCH  17  24
ATOM     18  C   UNL     1       6.314   5.028  26.353  0.00  0.00    +0.000 A 
ATOM     19  N   UNL     1       7.460   4.246  26.711  0.00  0.00    +0.000 NA
ATOM     20  C   UNL     1       7.817   3.491  25.767  0.00  0.00    +0.000 A 
ATOM     21  C   UNL     1       7.855   3.541  24.225  0.00  0.00    +0.000 A 
ATOM     22  C   UNL     1       6.770   4.460  23.730  0.00  0.00    +0.000 A 
ATOM     23  C   UNL     1       6.300   5.264  24.957  0.00  0.00    +0.000 A 
ATOM     24  C   UNL     1       7.952   2.031  23.786  0.00  0.00    +0.000 C 
ATOM     25  C   UNL     1       7.468   1.312  25.092  0.00  0.00    +0.000 C 
ATOM     26  N   UNL     1       7.778   2.139  26.167  0.00  0.00    +0.000 N 
ATOM     27  H   UNL     1       8.629   1.912  26.504  0.00  0.00    +0.000 HD
ENDBRANCH  17  24
ENDBRANCH   1  17
BRANCH  12  28
ATOM     28  C   UNL     1       2.890  -3.858  25.484  0.00  0.00    +0.000 C 
BRANCH  28  29
ATOM     29  C   UNL     1       2.923  -4.950  26.536  0.00  0.00    +0.000 A 
ATOM     30  C   UNL     1       3.014  -6.199  25.657  0.00  0.00    +0.000 A 
ATOM     31  C   UNL     1       4.040  -7.250  25.651  0.00  0.00    +0.000 A 
ATOM     32  C   UNL     1       4.907  -6.958  26.854  0.00  0.00    +0.000 A 
ATOM     33  C   UNL     1       5.116  -5.939  27.784  0.00  0.00    +0.000 A 
ATOM     34  C   UNL     1       6.422  -5.206  27.440  0.00  0.00    +0.000 C 
ATOM     35  C   UNL     1       3.901  -4.963  27.626  0.00  0.00    +0.000 A 
ENDBRANCH  28  29
ENDBRANCH  12  28
TORSDOF 4
ENDMDL
