MODEL 1
REMARK VINA RESULT:      -8.8      0.000      0.000
REMARK  Name = 
REMARK  5 active torsions:
REMARK  status: ('A' for Active; 'I' for Inactive)
REMARK    1  A    between atoms: C_7  and  C_8
REMARK    2  A    between atoms: C_24  and  C_26
REMARK    3  A    between atoms: C_26  and  C_29
REMARK    4  A    between atoms: N_38  and  S_39
REMARK    5  A    between atoms: S_39  and  C_42
REMARK                            x       y       z     vdW  Elec       q    Type
REMARK                         _______ _______ _______ _____ _____    ______ ____
ROOT
ATOM      1  C   UNL     1       5.695  -4.064  27.983  0.00  0.00    +0.000 C 
ENDROOT
BRANCH   1  11
ATOM      2  C   UNL     1       4.540  -6.293  24.862  0.00  0.00    +0.000 C 
ATOM      3  C   UNL     1       3.169  -6.327  25.315  0.00  0.00    +0.000 A 
ATOM      4  C   UNL     1       2.680  -5.389  24.699  0.00  0.00    +0.000 A 
ATOM      5  C   UNL     1       2.096  -4.004  24.858  0.00  0.00    +0.000 A 
ATOM      6  C   UNL     1       1.834  -4.027  26.339  0.00  0.00    +0.000 A 
ATOM      7  C   UNL     1       2.241  -4.802  27.300  0.00  0.00    +0.000 A 
ATOM      8  C   UNL     1       2.849  -6.148  26.816  0.00  0.00    +0.000 A 
ATOM      9  C   UNL     1       3.922  -6.507  27.660  0.00  0.00    +0.000 C 
ATOM     10  N   UNL     1       5.204  -6.337  27.253  0.00  0.00    +0.000 N 
ATOM     11  C   UNL     1       6.185  -5.399  27.649  0.00  0.00    +0.000 C 
ATOM     12  O   UNL     1       7.110  -6.029  28.175  0.00  0.00    +0.000 OA
ATOM     13  C   UNL     1       5.408  -6.629  25.935  0.00  0.00    +0.000 C 
BRANCH   2  17
ATOM     14  C   UNL     1       7.086  -6.245  22.059  0.00  0.00    +0.000 A 
ATOM     15  C   UNL     1       5.630  -6.084  21.734  0.00  0.00    +0.000 A 
ATOM     16  C   UNL     1       4.565  -5.474  22.523  0.00  0.00    +0.000 A 
ATOM     17  C   UNL     1       5.069  -5.167  24.006  0.00  0.00    +0.000 A 
ATOM     18  C   UNL     1       6.556  -4.853  24.245  0.00  0.00    +0.000 A 
ATOM     19  C   UNL     1       7.533  -5.367  23.150  0.00  0.00    +0.000 A 
ENDBRANCH   2  17
ENDBRANCH   1  11
BRANCH   1  20
ATOM     20  C   UNL     1       5.660  -2.972  27.004  0.00  0.00    +0.000 C 
ATOM     21  O   UNL     1       4.578  -2.238  27.189  0.00  0.00    +0.000 OA
ATOM     22  N   UNL     1       6.649  -2.350  26.362  0.00  0.00    +0.000 N 
ATOM     23  C   UNL     1       6.532  -1.036  25.777  0.00  0.00    +0.000 C 
ATOM     24  C   UNL     1       7.385  -0.800  24.549  0.00  0.00    +0.000 C 
ATOM     25  N   UNL     1       8.392  -1.770  24.283  0.00  0.00    +0.000 NA
ATOM     26  C   UNL     1       8.988  -2.162  25.457  0.00  0.00    +0.000 C 
ATOM     27  C   UNL     1       8.062  -2.736  26.521  0.00  0.00    +0.000 C 
BRANCH  25  28
ATOM     28  S   UNL     1       9.132  -1.621  22.933  0.00  0.00    +0.000 S 
ATOM     29  O   UNL     1       8.233  -2.549  21.937  0.00  0.00    +0.000 OA
ATOM     30  O   UNL     1      10.370  -2.390  22.915  0.00  0.00    +0.000 OA
BRANCH  28  31
ATOM     31  C   UNL     1       9.254  -0.288  21.918  0.00  0.00    +0.000 A 
ATOM     32  C   UNL     1      10.225   0.920  22.578  0.00  0.00    +0.000 A 
ATOM     33  F   UNL     1      10.259   0.650  23.860  0.00  0.00    +0.000 F 
ATOM     34  C   UNL     1       9.616   2.236  22.278  0.00  0.00    +0.000 A 
ATOM     35  C   UNL     1       8.229   2.465  21.883  0.00  0.00    +0.000 A 
ATOM     36  C   UNL     1       7.314   1.459  21.363  0.00  0.00    +0.000 A 
ATOM     37  C   UNL     1       8.186   0.236  21.190  0.00  0.00    +0.000 A 
ATOM     38  F   UNL     1       8.328   0.101  19.780  0.00  0.00    +0.000 F 
ENDBRANCH  28  31
ENDBRANCH  25  28
ENDBRANCH   1  20
TORSDOF 5
ENDMDL
MODEL 2
REMARK VINA RESULT:      -8.4      3.289      8.289
REMARK  Name = 
REMARK  5 active torsions:
REMARK  status: ('A' for Active; 'I' for Inactive)
REMARK    1  A    between atoms: C_7  and  C_8
REMARK    2  A    between atoms: C_24  and  C_26
REMARK    3  A    between atoms: C_26  and  C_29
REMARK    4  A    between atoms: N_38  and  S_39
REMARK    5  A    between atoms: S_39  and  C_42
REMARK                            x       y       z     vdW  Elec       q    Type
REMARK                         _______ _______ _______ _____ _____    ______ ____
ROOT
ATOM      1  C   UNL     1       8.731  -1.601  23.975  0.00  0.00    +0.000 C 
ENDROOT
BRANCH   1  11
ATOM      2  C   UNL     1       7.496   2.146  23.282  0.00  0.00    +0.000 C 
ATOM      3  C   UNL     1       8.098   2.167  21.969  0.00  0.00    +0.000 A 
ATOM      4  C   UNL     1       7.159   1.832  21.259  0.00  0.00    +0.000 A 
ATOM      5  C   UNL     1       6.640   0.721  20.375  0.00  0.00    +0.000 A 
ATOM      6  C   UNL     1       7.924  -0.034  20.166  0.00  0.00    +0.000 A 
ATOM      7  C   UNL     1       9.076  -0.007  20.768  0.00  0.00    +0.000 A 
ATOM      8  C   UNL     1       9.300   1.247  21.657  0.00  0.00    +0.000 A 
ATOM      9  C   UNL     1      10.032   0.881  22.807  0.00  0.00    +0.000 C 
ATOM     10  N   UNL     1       9.410   0.740  24.003  0.00  0.00    +0.000 N 
ATOM     11  C   UNL     1       9.092  -0.418  24.750  0.00  0.00    +0.000 C 
ATOM     12  O   UNL     1       9.726  -0.361  25.811  0.00  0.00    +0.000 OA
ATOM     13  C   UNL     1       8.438   1.670  24.233  0.00  0.00    +0.000 C 
BRANCH   2  17
ATOM     14  C   UNL     1       5.114   2.500  26.205  0.00  0.00    +0.000 A 
ATOM     15  C   UNL     1       4.838   3.250  24.935  0.00  0.00    +0.000 A 
ATOM     16  C   UNL     1       5.147   2.886  23.555  0.00  0.00    +0.000 A 
ATOM     17  C   UNL     1       6.104   1.609  23.512  0.00  0.00    +0.000 A 
ATOM     18  C   UNL     1       6.020   0.567  24.641  0.00  0.00    +0.000 A 
ATOM     19  C   UNL     1       5.416   1.078  25.979  0.00  0.00    +0.000 A 
ENDBRANCH   2  17
ENDBRANCH   1  11
BRANCH   1  20
ATOM     20  C   UNL     1       8.817  -2.958  24.525  0.00  0.00    +0.000 C 
ATOM     21  O   UNL     1      10.009  -3.469  24.275  0.00  0.00    +0.000 OA
ATOM     22  N   UNL     1       8.176  -3.522  25.549  0.00  0.00    +0.000 N 
ATOM     23  C   UNL     1       8.650  -4.687  26.256  0.00  0.00    +0.000 C 
ATOM     24  C   UNL     1       7.566  -5.579  26.825  0.00  0.00    +0.000 C 
ATOM     25  N   UNL     1       6.250  -5.038  26.848  0.00  0.00    +0.000 NA
ATOM     26  C   UNL     1       6.293  -3.713  27.205  0.00  0.00    +0.000 C 
ATOM     27  C   UNL     1       7.150  -2.808  26.329  0.00  0.00    +0.000 C 
BRANCH  25  28
ATOM     28  S   UNL     1       5.125  -6.019  27.256  0.00  0.00    +0.000 S 
ATOM     29  O   UNL     1       4.529  -5.324  28.606  0.00  0.00    +0.000 OA
ATOM     30  O   UNL     1       5.667  -7.239  27.841  0.00  0.00    +0.000 OA
BRANCH  28  31
ATOM     31  C   UNL     1       3.651  -6.327  26.515  0.00  0.00    +0.000 A 
ATOM     32  C   UNL     1       3.828  -7.255  25.120  0.00  0.00    +0.000 A 
ATOM     33  F   UNL     1       5.087  -7.112  24.789  0.00  0.00    +0.000 F 
ATOM     34  C   UNL     1       2.893  -6.747  24.089  0.00  0.00    +0.000 A 
ATOM     35  C   UNL     1       2.255  -5.434  24.089  0.00  0.00    +0.000 A 
ATOM     36  C   UNL     1       2.119  -4.552  25.239  0.00  0.00    +0.000 A 
ATOM     37  C   UNL     1       2.629  -5.386  26.393  0.00  0.00    +0.000 A 
ATOM     38  F   UNL     1       1.460  -5.703  27.141  0.00  0.00    +0.000 F 
ENDBRANCH  28  31
ENDBRANCH  25  28
ENDBRANCH   1  20
TORSDOF 5
ENDMDL
MODEL 3
REMARK VINA RESULT:      -8.3      3.149      7.965
REMARK  Name = 
REMARK  5 active torsions:
REMARK  status: ('A' for Active; 'I' for Inactive)
REMARK    1  A    between atoms: C_7  and  C_8
REMARK    2  A    between atoms: C_24  and  C_26
REMARK    3  A    between atoms: C_26  and  C_29
REMARK    4  A    between atoms: N_38  and  S_39
REMARK    5  A    between atoms: S_39  and  C_42
REMARK                            x       y       z     vdW  Elec       q    Type
REMARK                         _______ _______ _______ _____ _____    ______ ____
ROOT
ATOM      1  C   UNL     1       7.378  -0.199  25.470  0.00  0.00    +0.000 C 
ENDROOT
BRANCH   1  11
ATOM      2  C   UNL     1       7.161   1.424  21.814  0.00  0.00    +0.000 C 
ATOM      3  C   UNL     1       7.992   2.542  22.195  0.00  0.00    +0.000 A 
ATOM      4  C   UNL     1       9.102   2.157  21.849  0.00  0.00    +0.000 A 
ATOM      5  C   UNL     1      10.451   1.715  22.369  0.00  0.00    +0.000 A 
ATOM      6  C   UNL     1      10.344   2.238  23.775  0.00  0.00    +0.000 A 
ATOM      7  C   UNL     1       9.343   2.651  24.494  0.00  0.00    +0.000 A 
ATOM      8  C   UNL     1       8.065   2.981  23.674  0.00  0.00    +0.000 A 
ATOM      9  C   UNL     1       6.924   2.613  24.420  0.00  0.00    +0.000 C 
ATOM     10  N   UNL     1       6.241   1.481  24.119  0.00  0.00    +0.000 N 
ATOM     11  C   UNL     1       6.161   0.241  24.794  0.00  0.00    +0.000 C 
ATOM     12  O   UNL     1       4.987   0.089  25.153  0.00  0.00    +0.000 OA
ATOM     13  C   UNL     1       6.134   1.240  22.780  0.00  0.00    +0.000 C 
BRANCH   2  17
ATOM     14  C   UNL     1       5.718  -1.341  19.667  0.00  0.00    +0.000 A 
ATOM     15  C   UNL     1       6.747  -0.417  19.084  0.00  0.00    +0.000 A 
ATOM     16  C   UNL     1       7.859   0.264  19.738  0.00  0.00    +0.000 A 
ATOM     17  C   UNL     1       7.750   0.123  21.325  0.00  0.00    +0.000 A 
ATOM     18  C   UNL     1       7.080  -1.126  21.925  0.00  0.00    +0.000 A 
ATOM     19  C   UNL     1       6.106  -1.882  20.978  0.00  0.00    +0.000 A 
ENDBRANCH   2  17
ENDBRANCH   1  11
BRANCH   1  20
ATOM     20  C   UNL     1       7.798  -1.604  25.496  0.00  0.00    +0.000 C 
ATOM     21  O   UNL     1       9.074  -1.698  25.169  0.00  0.00    +0.000 OA
ATOM     22  N   UNL     1       7.328  -2.637  26.195  0.00  0.00    +0.000 N 
ATOM     23  C   UNL     1       8.081  -3.839  26.467  0.00  0.00    +0.000 C 
ATOM     24  C   UNL     1       7.254  -5.101  26.590  0.00  0.00    +0.000 C 
ATOM     25  N   UNL     1       5.846  -4.926  26.708  0.00  0.00    +0.000 NA
ATOM     26  C   UNL     1       5.573  -3.855  27.523  0.00  0.00    +0.000 C 
ATOM     27  C   UNL     1       6.172  -2.520  27.102  0.00  0.00    +0.000 C 
BRANCH  25  28
ATOM     28  S   UNL     1       4.999  -6.219  26.648  0.00  0.00    +0.000 S 
ATOM     29  O   UNL     1       3.661  -5.799  27.482  0.00  0.00    +0.000 OA
ATOM     30  O   UNL     1       5.522  -7.242  27.544  0.00  0.00    +0.000 OA
BRANCH  28  31
ATOM     31  C   UNL     1       4.214  -6.926  25.343  0.00  0.00    +0.000 A 
ATOM     32  C   UNL     1       4.713  -6.269  23.875  0.00  0.00    +0.000 A 
ATOM     33  F   UNL     1       5.251  -5.118  24.197  0.00  0.00    +0.000 F 
ATOM     34  C   UNL     1       3.534  -6.132  22.989  0.00  0.00    +0.000 A 
ATOM     35  C   UNL     1       2.139  -6.136  23.419  0.00  0.00    +0.000 A 
ATOM     36  C   UNL     1       1.641  -6.631  24.695  0.00  0.00    +0.000 A 
ATOM     37  C   UNL     1       2.858  -7.258  25.336  0.00  0.00    +0.000 A 
ATOM     38  F   UNL     1       2.607  -8.657  25.274  0.00  0.00    +0.000 F 
ENDBRANCH  28  31
ENDBRANCH  25  28
ENDBRANCH   1  20
TORSDOF 5
ENDMDL
MODEL 4
REMARK VINA RESULT:      -8.2      3.157      8.264
REMARK  Name = 
REMARK  5 active torsions:
REMARK  status: ('A' for Active; 'I' for Inactive)
REMARK    1  A    between atoms: C_7  and  C_8
REMARK    2  A    between atoms: C_24  and  C_26
REMARK    3  A    between atoms: C_26  and  C_29
REMARK    4  A    between atoms: N_38  and  S_39
REMARK    5  A    between atoms: S_39  and  C_42
REMARK                            x       y       z     vdW  Elec       q    Type
REMARK                         _______ _______ _______ _____ _____    ______ ____
ROOT
ATOM      1  C   UNL     1       7.235   1.392  25.282  0.00  0.00    +0.000 C 
ENDROOT
BRANCH   1  11
ATOM      2  C   UNL     1       8.645   1.630  21.540  0.00  0.00    +0.000 C 
ATOM      3  C   UNL     1       9.999   1.364  21.968  0.00  0.00    +0.000 A 
ATOM      4  C   UNL     1      10.075   0.152  21.813  0.00  0.00    +0.000 A 
ATOM      5  C   UNL     1      10.194  -1.161  22.551  0.00  0.00    +0.000 A 
ATOM      6  C   UNL     1      10.634  -0.640  23.892  0.00  0.00    +0.000 A 
ATOM      7  C   UNL     1      10.626   0.544  24.429  0.00  0.00    +0.000 A 
ATOM      8  C   UNL     1      10.432   1.702  23.411  0.00  0.00    +0.000 A 
ATOM      9  C   UNL     1       9.649   2.717  24.003  0.00  0.00    +0.000 C 
ATOM     10  N   UNL     1       8.340   2.856  23.676  0.00  0.00    +0.000 N 
ATOM     11  C   UNL     1       7.167   2.560  24.408  0.00  0.00    +0.000 C 
ATOM     12  O   UNL     1       6.570   3.626  24.600  0.00  0.00    +0.000 OA
ATOM     13  C   UNL     1       8.076   2.647  22.354  0.00  0.00    +0.000 C 
BRANCH   2  17
ATOM     14  C   UNL     1       6.193   1.160  18.692  0.00  0.00    +0.000 A 
ATOM     15  C   UNL     1       7.448   0.337  18.727  0.00  0.00    +0.000 A 
ATOM     16  C   UNL     1       8.205  -0.153  19.875  0.00  0.00    +0.000 A 
ATOM     17  C   UNL     1       7.675   0.516  21.224  0.00  0.00    +0.000 A 
ATOM     18  C   UNL     1       6.198   0.933  21.328  0.00  0.00    +0.000 A 
ATOM     19  C   UNL     1       5.472   1.164  19.973  0.00  0.00    +0.000 A 
ENDBRANCH   2  17
ENDBRANCH   1  11
BRANCH   1  20
ATOM     20  C   UNL     1       6.207   0.346  25.278  0.00  0.00    +0.000 C 
ATOM     21  O   UNL     1       5.038   0.867  24.954  0.00  0.00    +0.000 OA
ATOM     22  N   UNL     1       6.306  -0.967  25.068  0.00  0.00    +0.000 N 
ATOM     23  C   UNL     1       5.205  -1.806  24.660  0.00  0.00    +0.000 C 
ATOM     24  C   UNL     1       5.267  -3.235  25.156  0.00  0.00    +0.000 C 
ATOM     25  N   UNL     1       6.507  -3.659  25.710  0.00  0.00    +0.000 NA
ATOM     26  C   UNL     1       7.549  -3.151  24.972  0.00  0.00    +0.000 C 
ATOM     27  C   UNL     1       7.598  -1.636  24.832  0.00  0.00    +0.000 C 
BRANCH  25  28
ATOM     28  S   UNL     1       6.506  -5.054  26.379  0.00  0.00    +0.000 S 
ATOM     29  O   UNL     1       6.709  -4.686  27.955  0.00  0.00    +0.000 OA
ATOM     30  O   UNL     1       7.758  -5.761  26.140  0.00  0.00    +0.000 OA
BRANCH  28  31
ATOM     31  C   UNL     1       5.245  -6.144  26.582  0.00  0.00    +0.000 A 
ATOM     32  C   UNL     1       4.831  -6.907  25.139  0.00  0.00    +0.000 A 
ATOM     33  F   UNL     1       5.322  -6.130  24.205  0.00  0.00    +0.000 F 
ATOM     34  C   UNL     1       3.357  -7.035  25.074  0.00  0.00    +0.000 A 
ATOM     35  C   UNL     1       2.398  -6.269  25.866  0.00  0.00    +0.000 A 
ATOM     36  C   UNL     1       2.695  -5.536  27.088  0.00  0.00    +0.000 A 
ATOM     37  C   UNL     1       4.131  -5.903  27.387  0.00  0.00    +0.000 A 
ATOM     38  F   UNL     1       4.046  -6.756  28.524  0.00  0.00    +0.000 F 
ENDBRANCH  28  31
ENDBRANCH  25  28
ENDBRANCH   1  20
TORSDOF 5
ENDMDL
MODEL 5
REMARK VINA RESULT:      -8.1      2.959      7.918
REMARK  Name = 
REMARK  5 active torsions:
REMARK  status: ('A' for Active; 'I' for Inactive)
REMARK    1  A    between atoms: C_7  and  C_8
REMARK    2  A    between atoms: C_24  and  C_26
REMARK    3  A    between atoms: C_26  and  C_29
REMARK    4  A    between atoms: N_38  and  S_39
REMARK    5  A    between atoms: S_39  and  C_42
REMARK                            x       y       z     vdW  Elec       q    Type
REMARK                         _______ _______ _______ _____ _____    ______ ____
ROOT
ATOM      1  C   UNL     1       7.629   2.432  25.493  0.00  0.00    +0.000 C 
ENDROOT
BRANCH   1  11
ATOM      2  C   UNL     1       8.611   2.165  21.619  0.00  0.00    +0.000 C 
ATOM      3  C   UNL     1      10.002   1.929  21.925  0.00  0.00    +0.000 A 
ATOM      4  C   UNL     1      10.053   0.705  21.919  0.00  0.00    +0.000 A 
ATOM      5  C   UNL     1      10.246  -0.506  22.802  0.00  0.00    +0.000 A 
ATOM      6  C   UNL     1      10.837   0.172  24.007  0.00  0.00    +0.000 A 
ATOM      7  C   UNL     1      10.897   1.414  24.386  0.00  0.00    +0.000 A 
ATOM      8  C   UNL     1      10.597   2.437  23.257  0.00  0.00    +0.000 A 
ATOM      9  C   UNL     1       9.892   3.535  23.796  0.00  0.00    +0.000 C 
ATOM     10  N   UNL     1       8.556   3.658  23.601  0.00  0.00    +0.000 N 
ATOM     11  C   UNL     1       7.470   3.481  24.490  0.00  0.00    +0.000 C 
ATOM     12  O   UNL     1       6.905   4.575  24.609  0.00  0.00    +0.000 OA
ATOM     13  C   UNL     1       8.143   3.289  22.354  0.00  0.00    +0.000 C 
BRANCH   2  17
ATOM     14  C   UNL     1       6.127   1.154  18.945  0.00  0.00    +0.000 A 
ATOM     15  C   UNL     1       7.356   0.320  19.163  0.00  0.00    +0.000 A 
ATOM     16  C   UNL     1       8.105   0.073  20.390  0.00  0.00    +0.000 A 
ATOM     17  C   UNL     1       7.605   1.041  21.558  0.00  0.00    +0.000 A 
ATOM     18  C   UNL     1       6.142   1.517  21.565  0.00  0.00    +0.000 A 
ATOM     19  C   UNL     1       5.414   1.465  20.192  0.00  0.00    +0.000 A 
ENDBRANCH   2  17
ENDBRANCH   1  11
BRANCH   1  20
ATOM     20  C   UNL     1       6.570   1.462  25.791  0.00  0.00    +0.000 C 
ATOM     21  O   UNL     1       5.471   2.095  26.158  0.00  0.00    +0.000 OA
ATOM     22  N   UNL     1       6.370   0.227  25.330  0.00  0.00    +0.000 N 
ATOM     23  C   UNL     1       5.094  -0.447  25.350  0.00  0.00    +0.000 C 
ATOM     24  C   UNL     1       5.164  -1.952  25.494  0.00  0.00    +0.000 C 
ATOM     25  N   UNL     1       6.444  -2.546  25.309  0.00  0.00    +0.000 NA
ATOM     26  C   UNL     1       7.100  -1.934  24.270  0.00  0.00    +0.000 C 
ATOM     27  C   UNL     1       7.302  -0.430  24.395  0.00  0.00    +0.000 C 
BRANCH  25  28
ATOM     28  S   UNL     1       6.541  -4.055  25.639  0.00  0.00    +0.000 S 
ATOM     29  O   UNL     1       5.144  -4.329  26.436  0.00  0.00    +0.000 OA
ATOM     30  O   UNL     1       7.482  -4.305  26.723  0.00  0.00    +0.000 OA
BRANCH  28  31
ATOM     31  C   UNL     1       6.457  -5.383  24.614  0.00  0.00    +0.000 A 
ATOM     32  C   UNL     1       7.833  -5.526  23.654  0.00  0.00    +0.000 A 
ATOM     33  F   UNL     1       8.377  -4.334  23.680  0.00  0.00    +0.000 F 
ATOM     34  C   UNL     1       7.422  -5.947  22.294  0.00  0.00    +0.000 A 
ATOM     35  C   UNL     1       6.077  -5.837  21.737  0.00  0.00    +0.000 A 
ATOM     36  C   UNL     1       4.851  -5.651  22.500  0.00  0.00    +0.000 A 
ATOM     37  C   UNL     1       5.301  -5.773  23.938  0.00  0.00    +0.000 A 
ATOM     38  F   UNL     1       4.777  -7.025  24.366  0.00  0.00    +0.000 F 
ENDBRANCH  28  31
ENDBRANCH  25  28
ENDBRANCH   1  20
TORSDOF 5
ENDMDL
MODEL 6
REMARK VINA RESULT:      -8.1      3.173      8.064
REMARK  Name = 
REMARK  5 active torsions:
REMARK  status: ('A' for Active; 'I' for Inactive)
REMARK    1  A    between atoms: C_7  and  C_8
REMARK    2  A    between atoms: C_24  and  C_26
REMARK    3  A    between atoms: C_26  and  C_29
REMARK    4  A    between atoms: N_38  and  S_39
REMARK    5  A    between atoms: S_39  and  C_42
REMARK                            x       y       z     vdW  Elec       q    Type
REMARK                         _______ _______ _______ _____ _____    ______ ____
ROOT
ATOM      1  C   UNL     1       8.905  -2.010  22.434  0.00  0.00    +0.000 C 
ENDROOT
BRANCH   1  11
ATOM      2  C   UNL     1       8.515   0.804  25.257  0.00  0.00    +0.000 C 
ATOM      3  C   UNL     1       9.099   1.819  24.412  0.00  0.00    +0.000 A 
ATOM      4  C   UNL     1       8.104   2.327  23.910  0.00  0.00    +0.000 A 
ATOM      5  C   UNL     1       7.350   2.493  22.611  0.00  0.00    +0.000 A 
ATOM      6  C   UNL     1       8.436   2.087  21.654  0.00  0.00    +0.000 A 
ATOM      7  C   UNL     1       9.570   1.469  21.808  0.00  0.00    +0.000 A 
ATOM      8  C   UNL     1      10.068   1.416  23.279  0.00  0.00    +0.000 A 
ATOM      9  C   UNL     1      10.710   0.180  23.510  0.00  0.00    +0.000 C 
ATOM     10  N   UNL     1      10.079  -0.804  24.197  0.00  0.00    +0.000 N 
ATOM     11  C   UNL     1       9.520  -2.027  23.758  0.00  0.00    +0.000 C 
ATOM     12  O   UNL     1      10.158  -2.941  24.294  0.00  0.00    +0.000 OA
ATOM     13  C   UNL     1       9.337  -0.356  25.250  0.00  0.00    +0.000 C 
BRANCH   2  17
ATOM     14  C   UNL     1       6.117  -0.369  27.944  0.00  0.00    +0.000 A 
ATOM     15  C   UNL     1       6.034   1.045  27.448  0.00  0.00    +0.000 A 
ATOM     16  C   UNL     1       6.328   1.584  26.125  0.00  0.00    +0.000 A 
ATOM     17  C   UNL     1       7.040   0.482  25.215  0.00  0.00    +0.000 A 
ATOM     18  C   UNL     1       6.724  -1.006  25.448  0.00  0.00    +0.000 A 
ATOM     19  C   UNL     1       6.167  -1.358  26.856  0.00  0.00    +0.000 A 
ENDBRANCH   2  17
ENDBRANCH   1  11
BRANCH   1  20
ATOM     20  C   UNL     1       7.486  -2.315  22.223  0.00  0.00    +0.000 C 
ATOM     21  O   UNL     1       7.008  -1.574  21.239  0.00  0.00    +0.000 OA
ATOM     22  N   UNL     1       6.792  -3.427  22.466  0.00  0.00    +0.000 N 
ATOM     23  C   UNL     1       5.539  -3.754  21.827  0.00  0.00    +0.000 C 
ATOM     24  C   UNL     1       4.583  -4.573  22.668  0.00  0.00    +0.000 C 
ATOM     25  N   UNL     1       5.121  -5.157  23.849  0.00  0.00    +0.000 NA
ATOM     26  C   UNL     1       6.386  -5.632  23.604  0.00  0.00    +0.000 C 
ATOM     27  C   UNL     1       7.397  -4.618  23.088  0.00  0.00    +0.000 C 
BRANCH  25  28
ATOM     28  S   UNL     1       4.098  -5.834  24.793  0.00  0.00    +0.000 S 
ATOM     29  O   UNL     1       4.396  -7.419  24.550  0.00  0.00    +0.000 OA
ATOM     30  O   UNL     1       2.747  -5.764  24.252  0.00  0.00    +0.000 OA
BRANCH  28  31
ATOM     31  C   UNL     1       4.059  -5.886  26.471  0.00  0.00    +0.000 A 
ATOM     32  C   UNL     1       3.345  -4.509  27.127  0.00  0.00    +0.000 A 
ATOM     33  F   UNL     1       3.409  -3.617  26.170  0.00  0.00    +0.000 F 
ATOM     34  C   UNL     1       4.098  -4.115  28.341  0.00  0.00    +0.000 A 
ATOM     35  C   UNL     1       5.453  -4.541  28.679  0.00  0.00    +0.000 A 
ATOM     36  C   UNL     1       6.156  -5.681  28.109  0.00  0.00    +0.000 A 
ATOM     37  C   UNL     1       5.106  -6.361  27.259  0.00  0.00    +0.000 A 
ATOM     38  F   UNL     1       4.797  -7.555  27.971  0.00  0.00    +0.000 F 
ENDBRANCH  28  31
ENDBRANCH  25  28
ENDBRANCH   1  20
TORSDOF 5
ENDMDL
MODEL 7
REMARK VINA RESULT:      -8.1      2.324      2.926
REMARK  Name = 
REMARK  5 active torsions:
REMARK  status: ('A' for Active; 'I' for Inactive)
REMARK    1  A    between atoms: C_7  and  C_8
REMARK    2  A    between atoms: C_24  and  C_26
REMARK    3  A    between atoms: C_26  and  C_29
REMARK    4  A    between atoms: N_38  and  S_39
REMARK    5  A    between atoms: S_39  and  C_42
REMARK                            x       y       z     vdW  Elec       q    Type
REMARK                         _______ _______ _______ _____ _____    ______ ____
ROOT
ATOM      1  C   UNL     1       5.579  -2.741  27.141  0.00  0.00    +0.000 C 
ENDROOT
BRANCH   1  11
ATOM      2  C   UNL     1       5.524  -5.967  24.766  0.00  0.00    +0.000 C 
ATOM      3  C   UNL     1       4.749  -6.729  25.717  0.00  0.00    +0.000 A 
ATOM      4  C   UNL     1       3.607  -6.538  25.317  0.00  0.00    +0.000 A 
ATOM      5  C   UNL     1       2.298  -5.864  25.657  0.00  0.00    +0.000 A 
ATOM      6  C   UNL     1       2.530  -5.624  27.123  0.00  0.00    +0.000 A 
ATOM      7  C   UNL     1       3.594  -5.652  27.869  0.00  0.00    +0.000 A 
ATOM      8  C   UNL     1       4.806  -6.375  27.220  0.00  0.00    +0.000 A 
ATOM      9  C   UNL     1       5.998  -5.715  27.590  0.00  0.00    +0.000 C 
ATOM     10  N   UNL     1       6.632  -4.898  26.713  0.00  0.00    +0.000 N 
ATOM     11  C   UNL     1       6.744  -3.488  26.676  0.00  0.00    +0.000 C 
ATOM     12  O   UNL     1       7.941  -3.207  26.816  0.00  0.00    +0.000 OA
ATOM     13  C   UNL     1       6.623  -5.354  25.427  0.00  0.00    +0.000 C 
BRANCH   2  17
ATOM     14  C   UNL     1       6.977  -3.877  21.962  0.00  0.00    +0.000 A 
ATOM     15  C   UNL     1       6.229  -5.135  21.632  0.00  0.00    +0.000 A 
ATOM     16  C   UNL     1       5.112  -5.763  22.331  0.00  0.00    +0.000 A 
ATOM     17  C   UNL     1       4.872  -5.065  23.746  0.00  0.00    +0.000 A 
ATOM     18  C   UNL     1       5.223  -3.576  23.921  0.00  0.00    +0.000 A 
ATOM     19  C   UNL     1       6.255  -3.010  22.905  0.00  0.00    +0.000 A 
ENDBRANCH   2  17
ENDBRANCH   1  11
BRANCH   1  20
ATOM     20  C   UNL     1       5.070  -1.560  26.437  0.00  0.00    +0.000 C 
ATOM     21  O   UNL     1       3.750  -1.554  26.465  0.00  0.00    +0.000 OA
ATOM     22  N   UNL     1       5.625  -0.365  26.233  0.00  0.00    +0.000 N 
ATOM     23  C   UNL     1       4.879   0.831  25.923  0.00  0.00    +0.000 C 
ATOM     24  C   UNL     1       5.606   1.834  25.052  0.00  0.00    +0.000 C 
ATOM     25  N   UNL     1       7.003   1.627  24.878  0.00  0.00    +0.000 NA
ATOM     26  C   UNL     1       7.568   1.224  26.064  0.00  0.00    +0.000 C 
ATOM     27  C   UNL     1       6.987  -0.036  26.691  0.00  0.00    +0.000 C 
BRANCH  25  28
ATOM     28  S   UNL     1       7.697   2.544  23.844  0.00  0.00    +0.000 S 
ATOM     29  O   UNL     1       9.091   2.928  24.599  0.00  0.00    +0.000 OA
ATOM     30  O   UNL     1       7.082   3.864  23.803  0.00  0.00    +0.000 OA
BRANCH  28  31
ATOM     31  C   UNL     1       8.369   2.161  22.353  0.00  0.00    +0.000 A 
ATOM     32  C   UNL     1       7.191   1.826  21.198  0.00  0.00    +0.000 A 
ATOM     33  F   UNL     1       6.117   1.549  21.895  0.00  0.00    +0.000 F 
ATOM     34  C   UNL     1       7.651   0.691  20.364  0.00  0.00    +0.000 A 
ATOM     35  C   UNL     1       8.701  -0.259  20.721  0.00  0.00    +0.000 A 
ATOM     36  C   UNL     1       9.714  -0.063  21.748  0.00  0.00    +0.000 A 
ATOM     37  C   UNL     1       9.505   1.367  22.192  0.00  0.00    +0.000 A 
ATOM     38  F   UNL     1      10.629   2.066  21.669  0.00  0.00    +0.000 F 
ENDBRANCH  28  31
ENDBRANCH  25  28
ENDBRANCH   1  20
TORSDOF 5
ENDMDL
MODEL 8
REMARK VINA RESULT:      -7.9      3.028      7.958
REMARK  Name = 
REMARK  5 active torsions:
REMARK  status: ('A' for Active; 'I' for Inactive)
REMARK    1  A    between atoms: C_7  and  C_8
REMARK    2  A    between atoms: C_24  and  C_26
REMARK    3  A    between atoms: C_26  and  C_29
REMARK    4  A    between atoms: N_38  and  S_39
REMARK    5  A    between atoms: S_39  and  C_42
REMARK                            x       y       z     vdW  Elec       q    Type
REMARK                         _______ _______ _______ _____ _____    ______ ____
ROOT
ATOM      1  C   UNL     1       9.551   1.978  22.110  0.00  0.00    +0.000 C 
ENDROOT
BRANCH   1  11
ATOM      2  C   UNL     1       7.295   2.776  25.321  0.00  0.00    +0.000 C 
ATOM      3  C   UNL     1       6.620   3.864  24.653  0.00  0.00    +0.000 A 
ATOM      4  C   UNL     1       5.622   3.306  24.215  0.00  0.00    +0.000 A 
ATOM      5  C   UNL     1       4.941   2.859  22.942  0.00  0.00    +0.000 A 
ATOM      6  C   UNL     1       5.720   3.684  21.955  0.00  0.00    +0.000 A 
ATOM      7  C   UNL     1       6.839   4.341  22.036  0.00  0.00    +0.000 A 
ATOM      8  C   UNL     1       7.316   4.606  23.491  0.00  0.00    +0.000 A 
ATOM      9  C   UNL     1       8.724   4.524  23.543  0.00  0.00    +0.000 C 
ATOM     10  N   UNL     1       9.330   3.426  24.058  0.00  0.00    +0.000 N 
ATOM     11  C   UNL     1      10.039   2.377  23.427  0.00  0.00    +0.000 C 
ATOM     12  O   UNL     1      11.207   2.423  23.830  0.00  0.00    +0.000 OA
ATOM     13  C   UNL     1       8.700   2.909  25.153  0.00  0.00    +0.000 C 
BRANCH   2  17
ATOM     14  C   UNL     1       7.034  -0.011  27.872  0.00  0.00    +0.000 A 
ATOM     15  C   UNL     1       5.784   0.663  27.387  0.00  0.00    +0.000 A 
ATOM     16  C   UNL     1       5.493   1.256  26.086  0.00  0.00    +0.000 A 
ATOM     17  C   UNL     1       6.819   1.348  25.202  0.00  0.00    +0.000 A 
ATOM     18  C   UNL     1       7.933   0.305  25.404  0.00  0.00    +0.000 A 
ATOM     19  C   UNL     1       7.927  -0.421  26.778  0.00  0.00    +0.000 A 
ENDBRANCH   2  17
ENDBRANCH   1  11
BRANCH   1  20
ATOM     20  C   UNL     1       8.658   0.831  21.915  0.00  0.00    +0.000 C 
ATOM     21  O   UNL     1       7.825   1.074  20.920  0.00  0.00    +0.000 OA
ATOM     22  N   UNL     1       8.835  -0.462  22.188  0.00  0.00    +0.000 N 
ATOM     23  C   UNL     1       8.088  -1.528  21.565  0.00  0.00    +0.000 C 
ATOM     24  C   UNL     1       7.872  -2.752  22.430  0.00  0.00    +0.000 C 
ATOM     25  N   UNL     1       8.649  -2.831  23.620  0.00  0.00    +0.000 NA
ATOM     26  C   UNL     1       9.927  -2.391  23.376  0.00  0.00    +0.000 C 
ATOM     27  C   UNL     1      10.058  -0.976  22.830  0.00  0.00    +0.000 C 
BRANCH  25  28
ATOM     28  S   UNL     1       8.289  -3.985  24.585  0.00  0.00    +0.000 S 
ATOM     29  O   UNL     1       9.162  -3.615  25.912  0.00  0.00    +0.000 OA
ATOM     30  O   UNL     1       8.955  -5.225  24.205  0.00  0.00    +0.000 OA
BRANCH  28  31
ATOM     31  C   UNL     1       6.843  -4.312  25.373  0.00  0.00    +0.000 A 
ATOM     32  C   UNL     1       5.891  -5.405  24.516  0.00  0.00    +0.000 A 
ATOM     33  F   UNL     1       6.358  -5.359  23.293  0.00  0.00    +0.000 F 
ATOM     34  C   UNL     1       4.475  -4.981  24.614  0.00  0.00    +0.000 A 
ATOM     35  C   UNL     1       4.007  -3.650  24.989  0.00  0.00    +0.000 A 
ATOM     36  C   UNL     1       4.791  -2.633  25.675  0.00  0.00    +0.000 A 
ATOM     37  C   UNL     1       6.077  -3.346  26.026  0.00  0.00    +0.000 A 
ATOM     38  F   UNL     1       6.009  -3.520  27.437  0.00  0.00    +0.000 F 
ENDBRANCH  28  31
ENDBRANCH  25  28
ENDBRANCH   1  20
TORSDOF 5
ENDMDL
MODEL 9
REMARK VINA RESULT:      -7.9      3.458      8.462
REMARK  Name = 
REMARK  5 active torsions:
REMARK  status: ('A' for Active; 'I' for Inactive)
REMARK    1  A    between atoms: C_7  and  C_8
REMARK    2  A    between atoms: C_24  and  C_26
REMARK    3  A    between atoms: C_26  and  C_29
REMARK    4  A    between atoms: N_38  and  S_39
REMARK    5  A    between atoms: S_39  and  C_42
REMARK                            x       y       z     vdW  Elec       q    Type
REMARK                         _______ _______ _______ _____ _____    ______ ____
ROOT
ATOM      1  C   UNL     1       8.787  -1.844  24.498  0.00  0.00    +0.000 C 
ENDROOT
BRANCH   1  11
ATOM      2  C   UNL     1       7.518   1.934  24.099  0.00  0.00    +0.000 C 
ATOM      3  C   UNL     1       8.402   2.178  22.983  0.00  0.00    +0.000 A 
ATOM      4  C   UNL     1       7.671   1.937  22.030  0.00  0.00    +0.000 A 
ATOM      5  C   UNL     1       7.436   0.969  20.894  0.00  0.00    +0.000 A 
ATOM      6  C   UNL     1       8.777   0.288  20.883  0.00  0.00    +0.000 A 
ATOM      7  C   UNL     1       9.758   0.247  21.736  0.00  0.00    +0.000 A 
ATOM      8  C   UNL     1       9.696   1.349  22.829  0.00  0.00    +0.000 A 
ATOM      9  C   UNL     1      10.168   0.823  24.051  0.00  0.00    +0.000 C 
ATOM     10  N   UNL     1       9.298   0.479  25.033  0.00  0.00    +0.000 N 
ATOM     11  C   UNL     1       8.888  -0.791  25.504  0.00  0.00    +0.000 C 
ATOM     12  O   UNL     1       9.259  -0.888  26.680  0.00  0.00    +0.000 OA
ATOM     13  C   UNL     1       8.245   1.337  25.164  0.00  0.00    +0.000 C 
BRANCH   2  17
ATOM     14  C   UNL     1       4.402   2.070  26.247  0.00  0.00    +0.000 A 
ATOM     15  C   UNL     1       4.454   2.862  24.973  0.00  0.00    +0.000 A 
ATOM     16  C   UNL     1       5.152   2.570  23.726  0.00  0.00    +0.000 A 
ATOM     17  C   UNL     1       6.145   1.335  23.913  0.00  0.00    +0.000 A 
ATOM     18  C   UNL     1       5.801   0.242  24.942  0.00  0.00    +0.000 A 
ATOM     19  C   UNL     1       4.824   0.672  26.072  0.00  0.00    +0.000 A 
ENDBRANCH   2  17
ENDBRANCH   1  11
BRANCH   1  20
ATOM     20  C   UNL     1       7.650  -2.769  24.441  0.00  0.00    +0.000 C 
ATOM     21  O   UNL     1       7.111  -2.746  23.236  0.00  0.00    +0.000 OA
ATOM     22  N   UNL     1       7.397  -3.876  25.139  0.00  0.00    +0.000 N 
ATOM     23  C   UNL     1       6.497  -4.918  24.705  0.00  0.00    +0.000 C 
ATOM     24  C   UNL     1       5.789  -5.661  25.819  0.00  0.00    +0.000 C 
ATOM     25  N   UNL     1       6.287  -5.453  27.135  0.00  0.00    +0.000 NA
ATOM     26  C   UNL     1       7.660  -5.410  27.115  0.00  0.00    +0.000 C 
ATOM     27  C   UNL     1       8.287  -4.357  26.211  0.00  0.00    +0.000 C 
BRANCH  25  28
ATOM     28  S   UNL     1       5.447  -6.066  28.279  0.00  0.00    +0.000 S 
ATOM     29  O   UNL     1       6.199  -5.496  29.610  0.00  0.00    +0.000 OA
ATOM     30  O   UNL     1       5.726  -7.487  28.444  0.00  0.00    +0.000 OA
BRANCH  28  31
ATOM     31  C   UNL     1       3.877  -5.716  28.764  0.00  0.00    +0.000 A 
ATOM     32  C   UNL     1       2.741  -6.652  27.946  0.00  0.00    +0.000 A 
ATOM     33  F   UNL     1       3.372  -7.076  26.879  0.00  0.00    +0.000 F 
ATOM     34  C   UNL     1       1.567  -5.806  27.630  0.00  0.00    +0.000 A 
ATOM     35  C   UNL     1       1.547  -4.346  27.615  0.00  0.00    +0.000 A 
ATOM     36  C   UNL     1       2.526  -3.473  28.246  0.00  0.00    +0.000 A 
ATOM     37  C   UNL     1       3.411  -4.426  29.017  0.00  0.00    +0.000 A 
ATOM     38  F   UNL     1       3.077  -4.191  30.381  0.00  0.00    +0.000 F 
ENDBRANCH  28  31
ENDBRANCH  25  28
ENDBRANCH   1  20
TORSDOF 5
ENDMDL
