MODEL 1
REMARK VINA RESULT:      -8.6      0.000      0.000
REMARK  Name = 
REMARK  6 active torsions:
REMARK  status: ('A' for Active; 'I' for Inactive)
REMARK    1  A    between atoms: N_5  and  C_6
REMARK    2  A    between atoms: N_5  and  C_10
REMARK    3  A    between atoms: C_10  and  N_12
REMARK    4  A    between atoms: C_10  and  C_42
REMARK    5  A    between atoms: C_26  and  C_28
REMARK    6  A    between atoms: N_50  and  C_51
REMARK                            x       y       z     vdW  Elec       q    Type
REMARK                         _______ _______ _______ _____ _____    ______ ____
ROOT
ATOM      1  N   UNL     1       7.616  -2.072  22.381  0.00  0.00    +0.000 NA
ATOM      2  C   UNL     1       8.717  -1.829  23.236  0.00  0.00    +0.000 C 
ATOM      3  C   UNL     1       9.644  -0.878  23.026  0.00  0.00    +0.000 A 
ATOM      4  C   UNL     1      10.177  -0.331  24.357  0.00  0.00    +0.000 A 
ATOM      5  C   UNL     1      10.816   0.977  24.589  0.00  0.00    +0.000 A 
ATOM      6  C   UNL     1      10.683   1.728  23.283  0.00  0.00    +0.000 A 
ATOM      7  C   UNL     1      10.069   1.507  22.003  0.00  0.00    +0.000 A 
ATOM      8  C   UNL     1       9.269   0.325  22.176  0.00  0.00    +0.000 A 
ATOM      9  C   UNL     1       7.863   0.214  21.673  0.00  0.00    +0.000 C 
ATOM     10  C   UNL     1       7.715  -1.242  21.265  0.00  0.00    +0.000 C 
ENDROOT
BRANCH   9  11
ATOM     11  C   UNL     1       6.942   0.866  22.537  0.00  0.00    +0.000 A 
ATOM     12  C   UNL     1       6.519   2.146  21.826  0.00  0.00    +0.000 A 
ATOM     13  C   UNL     1       6.565   3.523  22.383  0.00  0.00    +0.000 A 
ATOM     14  C   UNL     1       6.889   3.390  23.820  0.00  0.00    +0.000 A 
ATOM     15  C   UNL     1       7.110   2.329  24.749  0.00  0.00    +0.000 A 
ATOM     16  C   UNL     1       6.879   1.021  23.996  0.00  0.00    +0.000 A 
ENDBRANCH   9  11
BRANCH   1  17
ATOM     17  C   UNL     1       7.052  -3.292  22.073  0.00  0.00    +0.000 C 
ATOM     18  C   UNL     1       5.544  -3.063  21.844  0.00  0.00    +0.000 C 
BRANCH  17  22
ATOM     19  C   UNL     1       4.685  -5.980  24.243  0.00  0.00    +0.000 A 
ATOM     20  N   UNL     1       5.846  -6.073  23.591  0.00  0.00    +0.000 NA
ATOM     21  C   UNL     1       6.656  -5.000  23.778  0.00  0.00    +0.000 A 
ATOM     22  N   UNL     1       7.175  -4.610  22.622  0.00  0.00    +0.000 N 
ATOM     23  C   UNL     1       7.239  -5.746  21.624  0.00  0.00    +0.000 C 
ATOM     24  C   UNL     1       7.030  -4.438  25.120  0.00  0.00    +0.000 A 
ATOM     25  C   UNL     1       8.156  -5.086  25.908  0.00  0.00    +0.000 C 
ATOM     26  N   UNL     1       7.466  -5.736  26.969  0.00  0.00    +0.000 NA
ATOM     27  N   UNL     1       6.194  -5.366  27.121  0.00  0.00    +0.000 N 
ATOM     28  C   UNL     1       5.819  -5.165  28.466  0.00  0.00    +0.000 C 
ATOM     29  C   UNL     1       5.708  -4.695  26.016  0.00  0.00    +0.000 A 
ATOM     30  N   UNL     1       4.827  -5.408  25.396  0.00  0.00    +0.000 NA
ENDBRANCH  17  22
ENDBRANCH   1  17
TORSDOF 3
ENDMDL
MODEL 2
REMARK VINA RESULT:      -8.5      2.598      7.223
REMARK  Name = 
REMARK  6 active torsions:
REMARK  status: ('A' for Active; 'I' for Inactive)
REMARK    1  A    between atoms: N_5  and  C_6
REMARK    2  A    between atoms: N_5  and  C_10
REMARK    3  A    between atoms: C_10  and  N_12
REMARK    4  A    between atoms: C_10  and  C_42
REMARK    5  A    between atoms: C_26  and  C_28
REMARK    6  A    between atoms: N_50  and  C_51
REMARK                            x       y       z     vdW  Elec       q    Type
REMARK                         _______ _______ _______ _____ _____    ______ ____
ROOT
ATOM      1  N   UNL     1       8.264  -0.961  24.749  0.00  0.00    +0.000 NA
ATOM      2  C   UNL     1       8.738  -1.977  25.614  0.00  0.00    +0.000 C 
ATOM      3  C   UNL     1       7.946  -2.781  26.343  0.00  0.00    +0.000 A 
ATOM      4  C   UNL     1       8.584  -4.167  26.516  0.00  0.00    +0.000 A 
ATOM      5  C   UNL     1       7.893  -5.433  26.819  0.00  0.00    +0.000 A 
ATOM      6  C   UNL     1       6.417  -5.111  26.756  0.00  0.00    +0.000 A 
ATOM      7  C   UNL     1       5.603  -3.973  26.429  0.00  0.00    +0.000 A 
ATOM      8  C   UNL     1       6.518  -3.012  25.876  0.00  0.00    +0.000 A 
ATOM      9  C   UNL     1       6.226  -2.234  24.630  0.00  0.00    +0.000 C 
ATOM     10  C   UNL     1       6.876  -0.881  24.861  0.00  0.00    +0.000 C 
ENDROOT
BRANCH   9  11
ATOM     11  C   UNL     1       6.457  -3.007  23.460  0.00  0.00    +0.000 A 
ATOM     12  C   UNL     1       5.106  -3.582  23.052  0.00  0.00    +0.000 A 
ATOM     13  C   UNL     1       4.797  -5.013  22.793  0.00  0.00    +0.000 A 
ATOM     14  C   UNL     1       6.087  -5.735  22.793  0.00  0.00    +0.000 A 
ATOM     15  C   UNL     1       7.471  -5.406  22.928  0.00  0.00    +0.000 A 
ATOM     16  C   UNL     1       7.558  -3.886  23.044  0.00  0.00    +0.000 A 
ENDBRANCH   9  11
BRANCH   1  17
ATOM     17  C   UNL     1       8.839   0.269  24.513  0.00  0.00    +0.000 C 
ATOM     18  C   UNL     1       8.128   1.296  25.417  0.00  0.00    +0.000 C 
BRANCH  17  22
ATOM     19  C   UNL     1       7.163   3.119  21.942  0.00  0.00    +0.000 A 
ATOM     20  N   UNL     1       8.387   2.614  22.105  0.00  0.00    +0.000 NA
ATOM     21  C   UNL     1       8.391   1.274  22.328  0.00  0.00    +0.000 A 
ATOM     22  N   UNL     1       9.214   0.978  23.325  0.00  0.00    +0.000 N 
ATOM     23  C   UNL     1      10.301   2.019  23.483  0.00  0.00    +0.000 C 
ATOM     24  C   UNL     1       7.687   0.265  21.466  0.00  0.00    +0.000 A 
ATOM     25  C   UNL     1       8.356  -0.217  20.191  0.00  0.00    +0.000 C 
ATOM     26  N   UNL     1       7.577   0.401  19.173  0.00  0.00    +0.000 NA
ATOM     27  N   UNL     1       6.420   0.918  19.588  0.00  0.00    +0.000 N 
ATOM     28  C   UNL     1       5.337   0.649  18.724  0.00  0.00    +0.000 C 
ATOM     29  C   UNL     1       6.371   1.057  20.961  0.00  0.00    +0.000 A 
ATOM     30  N   UNL     1       6.389   2.304  21.298  0.00  0.00    +0.000 NA
ENDBRANCH  17  22
ENDBRANCH   1  17
TORSDOF 3
ENDMDL
MODEL 3
REMARK VINA RESULT:      -8.2      1.694      3.506
REMARK  Name = 
REMARK  6 active torsions:
REMARK  status: ('A' for Active; 'I' for Inactive)
REMARK    1  A    between atoms: N_5  and  C_6
REMARK    2  A    between atoms: N_5  and  C_10
REMARK    3  A    between atoms: C_10  and  N_12
REMARK    4  A    between atoms: C_10  and  C_42
REMARK    5  A    between atoms: C_26  and  C_28
REMARK    6  A    between atoms: N_50  and  C_51
REMARK                            x       y       z     vdW  Elec       q    Type
REMARK                         _______ _______ _______ _____ _____    ______ ____
ROOT
ATOM      1  N   UNL     1       7.625  -2.082  24.623  0.00  0.00    +0.000 NA
ATOM      2  C   UNL     1       7.871  -1.876  23.245  0.00  0.00    +0.000 C 
ATOM      3  C   UNL     1       7.339  -0.876  22.521  0.00  0.00    +0.000 A 
ATOM      4  C   UNL     1       8.303  -0.432  21.411  0.00  0.00    +0.000 A 
ATOM      5  C   UNL     1       8.330   0.872  20.725  0.00  0.00    +0.000 A 
ATOM      6  C   UNL     1       7.325   1.733  21.458  0.00  0.00    +0.000 A 
ATOM      7  C   UNL     1       6.477   1.607  22.611  0.00  0.00    +0.000 A 
ATOM      8  C   UNL     1       6.893   0.384  23.244  0.00  0.00    +0.000 A 
ATOM      9  C   UNL     1       7.113   0.267  24.720  0.00  0.00    +0.000 C 
ATOM     10  C   UNL     1       6.683  -1.150  25.060  0.00  0.00    +0.000 C 
ENDROOT
BRANCH   9  11
ATOM     11  C   UNL     1       8.370   0.802  25.110  0.00  0.00    +0.000 A 
ATOM     12  C   UNL     1       8.174   2.308  25.241  0.00  0.00    +0.000 A 
ATOM     13  C   UNL     1       8.989   3.365  24.587  0.00  0.00    +0.000 A 
ATOM     14  C   UNL     1      10.150   2.688  23.971  0.00  0.00    +0.000 A 
ATOM     15  C   UNL     1      10.666   1.359  23.892  0.00  0.00    +0.000 A 
ATOM     16  C   UNL     1       9.754   0.475  24.740  0.00  0.00    +0.000 A 
ENDBRANCH   9  11
BRANCH   1  17
ATOM     17  C   UNL     1       7.504  -3.288  25.279  0.00  0.00    +0.000 C 
ATOM     18  C   UNL     1       8.431  -3.244  26.510  0.00  0.00    +0.000 C 
BRANCH  17  22
ATOM     19  C   UNL     1       6.219  -5.467  21.941  0.00  0.00    +0.000 A 
ATOM     20  N   UNL     1       6.975  -5.747  23.004  0.00  0.00    +0.000 NA
ATOM     21  C   UNL     1       6.498  -5.216  24.159  0.00  0.00    +0.000 A 
ATOM     22  N   UNL     1       7.483  -4.655  24.847  0.00  0.00    +0.000 N 
ATOM     23  C   UNL     1       8.824  -5.271  24.512  0.00  0.00    +0.000 C 
ATOM     24  C   UNL     1       5.090  -5.383  24.655  0.00  0.00    +0.000 A 
ATOM     25  C   UNL     1       4.708  -6.653  25.395  0.00  0.00    +0.000 C 
ATOM     26  N   UNL     1       3.887  -7.333  24.452  0.00  0.00    +0.000 NA
ATOM     27  N   UNL     1       3.483  -6.591  23.421  0.00  0.00    +0.000 N 
ATOM     28  C   UNL     1       2.125  -6.778  23.087  0.00  0.00    +0.000 C 
ATOM     29  C   UNL     1       4.217  -5.427  23.294  0.00  0.00    +0.000 A 
ATOM     30  N   UNL     1       4.958  -5.464  22.237  0.00  0.00    +0.000 NA
ENDBRANCH  17  22
ENDBRANCH   1  17
TORSDOF 3
ENDMDL
MODEL 4
REMARK VINA RESULT:      -8.2      1.714      3.093
REMARK  Name = 
REMARK  6 active torsions:
REMARK  status: ('A' for Active; 'I' for Inactive)
REMARK    1  A    between atoms: N_5  and  C_6
REMARK    2  A    between atoms: N_5  and  C_10
REMARK    3  A    between atoms: C_10  and  N_12
REMARK    4  A    between atoms: C_10  and  C_42
REMARK    5  A    between atoms: C_26  and  C_28
REMARK    6  A    between atoms: N_50  and  C_51
REMARK                            x       y       z     vdW  Elec       q    Type
REMARK                         _______ _______ _______ _____ _____    ______ ____
ROOT
ATOM      1  N   UNL     1       7.997  -2.016  24.469  0.00  0.00    +0.000 NA
ATOM      2  C   UNL     1       8.599  -0.850  24.999  0.00  0.00    +0.000 C 
ATOM      3  C   UNL     1       9.466  -0.072  24.328  0.00  0.00    +0.000 A 
ATOM      4  C   UNL     1       9.331   1.395  24.760  0.00  0.00    +0.000 A 
ATOM      5  C   UNL     1       9.725   2.589  23.990  0.00  0.00    +0.000 A 
ATOM      6  C   UNL     1      10.130   2.073  22.627  0.00  0.00    +0.000 A 
ATOM      7  C   UNL     1      10.150   0.808  21.946  0.00  0.00    +0.000 A 
ATOM      8  C   UNL     1       9.428  -0.087  22.809  0.00  0.00    +0.000 A 
ATOM      9  C   UNL     1       8.390  -1.042  22.304  0.00  0.00    +0.000 C 
ATOM     10  C   UNL     1       8.523  -2.262  23.200  0.00  0.00    +0.000 C 
ENDROOT
BRANCH   9  11
ATOM     11  C   UNL     1       7.148  -0.394  22.069  0.00  0.00    +0.000 A 
ATOM     12  C   UNL     1       6.702  -0.814  20.673  0.00  0.00    +0.000 A 
ATOM     13  C   UNL     1       6.309   0.093  19.562  0.00  0.00    +0.000 A 
ATOM     14  C   UNL     1       6.222   1.453  20.132  0.00  0.00    +0.000 A 
ATOM     15  C   UNL     1       6.371   2.062  21.416  0.00  0.00    +0.000 A 
ATOM     16  C   UNL     1       6.634   0.938  22.415  0.00  0.00    +0.000 A 
ENDBRANCH   9  11
BRANCH   1  17
ATOM     17  C   UNL     1       7.699  -3.181  25.142  0.00  0.00    +0.000 C 
ATOM     18  C   UNL     1       8.434  -3.139  26.496  0.00  0.00    +0.000 C 
BRANCH  17  22
ATOM     19  C   UNL     1       6.433  -5.447  21.855  0.00  0.00    +0.000 A 
ATOM     20  N   UNL     1       7.153  -5.708  22.947  0.00  0.00    +0.000 NA
ATOM     21  C   UNL     1       6.663  -5.121  24.069  0.00  0.00    +0.000 A 
ATOM     22  N   UNL     1       7.647  -4.563  24.761  0.00  0.00    +0.000 N 
ATOM     23  C   UNL     1       8.977  -5.229  24.484  0.00  0.00    +0.000 C 
ATOM     24  C   UNL     1       5.239  -5.227  24.533  0.00  0.00    +0.000 A 
ATOM     25  C   UNL     1       4.801  -6.456  25.310  0.00  0.00    +0.000 C 
ATOM     26  N   UNL     1       3.984  -7.148  24.372  0.00  0.00    +0.000 NA
ATOM     27  N   UNL     1       3.628  -6.434  23.304  0.00  0.00    +0.000 N 
ATOM     28  C   UNL     1       2.274  -6.594  22.942  0.00  0.00    +0.000 C 
ATOM     29  C   UNL     1       4.399  -5.298  23.152  0.00  0.00    +0.000 A 
ATOM     30  N   UNL     1       5.165  -5.397  22.117  0.00  0.00    +0.000 NA
ENDBRANCH  17  22
ENDBRANCH   1  17
TORSDOF 3
ENDMDL
MODEL 5
REMARK VINA RESULT:      -7.7      2.570      7.409
REMARK  Name = 
REMARK  6 active torsions:
REMARK  status: ('A' for Active; 'I' for Inactive)
REMARK    1  A    between atoms: N_5  and  C_6
REMARK    2  A    between atoms: N_5  and  C_10
REMARK    3  A    between atoms: C_10  and  N_12
REMARK    4  A    between atoms: C_10  and  C_42
REMARK    5  A    between atoms: C_26  and  C_28
REMARK    6  A    between atoms: N_50  and  C_51
REMARK                            x       y       z     vdW  Elec       q    Type
REMARK                         _______ _______ _______ _____ _____    ______ ____
ROOT
ATOM      1  N   UNL     1       8.507  -1.161  24.061  0.00  0.00    +0.000 NA
ATOM      2  C   UNL     1       7.274  -1.565  23.494  0.00  0.00    +0.000 C 
ATOM      3  C   UNL     1       6.989  -2.823  23.118  0.00  0.00    +0.000 A 
ATOM      4  C   UNL     1       5.494  -3.122  23.301  0.00  0.00    +0.000 A 
ATOM      5  C   UNL     1       4.864  -4.446  23.457  0.00  0.00    +0.000 A 
ATOM      6  C   UNL     1       6.011  -5.426  23.568  0.00  0.00    +0.000 A 
ATOM      7  C   UNL     1       7.445  -5.363  23.622  0.00  0.00    +0.000 A 
ATOM      8  C   UNL     1       7.748  -3.965  23.772  0.00  0.00    +0.000 A 
ATOM      9  C   UNL     1       8.756  -3.452  24.753  0.00  0.00    +0.000 C 
ATOM     10  C   UNL     1       9.381  -2.249  24.068  0.00  0.00    +0.000 C 
ENDROOT
BRANCH   9  11
ATOM     11  C   UNL     1       8.226  -3.396  26.071  0.00  0.00    +0.000 A 
ATOM     12  C   UNL     1       8.425  -4.781  26.673  0.00  0.00    +0.000 A 
ATOM     13  C   UNL     1       7.379  -5.629  27.304  0.00  0.00    +0.000 A 
ATOM     14  C   UNL     1       6.169  -4.789  27.432  0.00  0.00    +0.000 A 
ATOM     15  C   UNL     1       5.799  -3.437  27.155  0.00  0.00    +0.000 A 
ATOM     16  C   UNL     1       7.053  -2.727  26.649  0.00  0.00    +0.000 A 
ENDBRANCH   9  11
BRANCH   1  17
ATOM     17  C   UNL     1       9.166   0.033  23.863  0.00  0.00    +0.000 C 
ATOM     18  C   UNL     1       8.810   0.962  25.041  0.00  0.00    +0.000 C 
BRANCH  17  22
ATOM     19  C   UNL     1       7.199   3.247  22.035  0.00  0.00    +0.000 A 
ATOM     20  N   UNL     1       8.405   2.692  21.902  0.00  0.00    +0.000 NA
ATOM     21  C   UNL     1       8.382   1.336  21.947  0.00  0.00    +0.000 A 
ATOM     22  N   UNL     1       9.356   0.886  22.727  0.00  0.00    +0.000 N 
ATOM     23  C   UNL     1      10.505   1.868  22.813  0.00  0.00    +0.000 C 
ATOM     24  C   UNL     1       7.485   0.470  21.109  0.00  0.00    +0.000 A 
ATOM     25  C   UNL     1       7.887   0.149  19.680  0.00  0.00    +0.000 C 
ATOM     26  N   UNL     1       6.969   0.919  18.912  0.00  0.00    +0.000 NA
ATOM     27  N   UNL     1       5.933   1.404  19.598  0.00  0.00    +0.000 N 
ATOM     28  C   UNL     1       4.700   1.282  18.923  0.00  0.00    +0.000 C 
ATOM     29  C   UNL     1       6.140   1.357  20.963  0.00  0.00    +0.000 A 
ATOM     30  N   UNL     1       6.281   2.546  21.447  0.00  0.00    +0.000 NA
ENDBRANCH  17  22
ENDBRANCH   1  17
TORSDOF 3
ENDMDL
MODEL 6
REMARK VINA RESULT:      -7.6      1.760      2.827
REMARK  Name = 
REMARK  6 active torsions:
REMARK  status: ('A' for Active; 'I' for Inactive)
REMARK    1  A    between atoms: N_5  and  C_6
REMARK    2  A    between atoms: N_5  and  C_10
REMARK    3  A    between atoms: C_10  and  N_12
REMARK    4  A    between atoms: C_10  and  C_42
REMARK    5  A    between atoms: C_26  and  C_28
REMARK    6  A    between atoms: N_50  and  C_51
REMARK                            x       y       z     vdW  Elec       q    Type
REMARK                         _______ _______ _______ _____ _____    ______ ____
ROOT
ATOM      1  N   UNL     1       8.266  -2.243  23.688  0.00  0.00    +0.000 NA
ATOM      2  C   UNL     1       8.763  -1.175  24.472  0.00  0.00    +0.000 C 
ATOM      3  C   UNL     1       9.542  -0.187  24.001  0.00  0.00    +0.000 A 
ATOM      4  C   UNL     1       9.277   1.125  24.754  0.00  0.00    +0.000 A 
ATOM      5  C   UNL     1       9.545   2.494  24.277  0.00  0.00    +0.000 A 
ATOM      6  C   UNL     1       9.976   2.341  22.836  0.00  0.00    +0.000 A 
ATOM      7  C   UNL     1      10.105   1.271  21.886  0.00  0.00    +0.000 A 
ATOM      8  C   UNL     1       9.483   0.139  22.518  0.00  0.00    +0.000 A 
ATOM      9  C   UNL     1       8.533  -0.772  21.803  0.00  0.00    +0.000 C 
ATOM     10  C   UNL     1       8.794  -2.144  22.400  0.00  0.00    +0.000 C 
ENDROOT
BRANCH   9  11
ATOM     11  C   UNL     1       7.232  -0.208  21.712  0.00  0.00    +0.000 A 
ATOM     12  C   UNL     1       6.618  -0.750  20.426  0.00  0.00    +0.000 A 
ATOM     13  C   UNL     1       6.015   0.053  19.329  0.00  0.00    +0.000 A 
ATOM     14  C   UNL     1       5.925   1.445  19.819  0.00  0.00    +0.000 A 
ATOM     15  C   UNL     1       6.218   2.151  21.026  0.00  0.00    +0.000 A 
ATOM     16  C   UNL     1       6.691   1.116  22.044  0.00  0.00    +0.000 A 
ENDBRANCH   9  11
BRANCH   1  17
ATOM     17  C   UNL     1       8.088  -3.553  24.077  0.00  0.00    +0.000 C 
ATOM     18  C   UNL     1       7.698  -4.362  22.823  0.00  0.00    +0.000 C 
BRANCH  17  22
ATOM     19  C   UNL     1       4.847  -6.138  24.673  0.00  0.00    +0.000 A 
ATOM     20  N   UNL     1       5.837  -5.687  25.446  0.00  0.00    +0.000 NA
ATOM     21  C   UNL     1       6.109  -4.370  25.259  0.00  0.00    +0.000 A 
ATOM     22  N   UNL     1       7.419  -4.180  25.178  0.00  0.00    +0.000 N 
ATOM     23  C   UNL     1       8.190  -5.265  25.898  0.00  0.00    +0.000 C 
ATOM     24  C   UNL     1       5.083  -3.274  25.299  0.00  0.00    +0.000 A 
ATOM     25  C   UNL     1       4.643  -2.717  26.641  0.00  0.00    +0.000 C 
ATOM     26  N   UNL     1       3.321  -3.228  26.778  0.00  0.00    +0.000 NA
ATOM     27  N   UNL     1       2.799  -3.737  25.662  0.00  0.00    +0.000 N 
ATOM     28  C   UNL     1       1.455  -3.366  25.446  0.00  0.00    +0.000 C 
ATOM     29  C   UNL     1       3.758  -3.981  24.698  0.00  0.00    +0.000 A 
ATOM     30  N   UNL     1       3.917  -5.249  24.518  0.00  0.00    +0.000 NA
ENDBRANCH  17  22
ENDBRANCH   1  17
TORSDOF 3
ENDMDL
MODEL 7
REMARK VINA RESULT:      -7.5      2.725      7.338
REMARK  Name = 
REMARK  6 active torsions:
REMARK  status: ('A' for Active; 'I' for Inactive)
REMARK    1  A    between atoms: N_5  and  C_6
REMARK    2  A    between atoms: N_5  and  C_10
REMARK    3  A    between atoms: C_10  and  N_12
REMARK    4  A    between atoms: C_10  and  C_42
REMARK    5  A    between atoms: C_26  and  C_28
REMARK    6  A    between atoms: N_50  and  C_51
REMARK                            x       y       z     vdW  Elec       q    Type
REMARK                         _______ _______ _______ _____ _____    ______ ____
ROOT
ATOM      1  N   UNL     1       7.505  -1.086  22.177  0.00  0.00    +0.000 NA
ATOM      2  C   UNL     1       6.291  -1.812  22.129  0.00  0.00    +0.000 C 
ATOM      3  C   UNL     1       6.211  -3.151  22.039  0.00  0.00    +0.000 A 
ATOM      4  C   UNL     1       4.964  -3.674  22.766  0.00  0.00    +0.000 A 
ATOM      5  C   UNL     1       4.749  -5.032  23.298  0.00  0.00    +0.000 A 
ATOM      6  C   UNL     1       6.071  -5.745  23.127  0.00  0.00    +0.000 A 
ATOM      7  C   UNL     1       7.393  -5.413  22.672  0.00  0.00    +0.000 A 
ATOM      8  C   UNL     1       7.385  -3.982  22.528  0.00  0.00    +0.000 A 
ATOM      9  C   UNL     1       8.495  -3.108  23.025  0.00  0.00    +0.000 C 
ATOM     10  C   UNL     1       8.570  -1.973  22.018  0.00  0.00    +0.000 C 
ENDROOT
BRANCH   9  11
ATOM     11  C   UNL     1       8.405  -2.888  24.425  0.00  0.00    +0.000 A 
ATOM     12  C   UNL     1       9.388  -3.854  25.077  0.00  0.00    +0.000 A 
ATOM     13  C   UNL     1       9.086  -4.822  26.164  0.00  0.00    +0.000 A 
ATOM     14  C   UNL     1       7.719  -4.517  26.639  0.00  0.00    +0.000 A 
ATOM     15  C   UNL     1       6.703  -3.554  26.356  0.00  0.00    +0.000 A 
ATOM     16  C   UNL     1       7.278  -2.591  25.320  0.00  0.00    +0.000 A 
ENDBRANCH   9  11
BRANCH   1  17
ATOM     17  C   UNL     1       7.765   0.144  21.613  0.00  0.00    +0.000 C 
ATOM     18  C   UNL     1       8.193  -0.095  20.151  0.00  0.00    +0.000 C 
BRANCH  17  22
ATOM     19  C   UNL     1       8.365   2.256  25.179  0.00  0.00    +0.000 A 
ATOM     20  N   UNL     1       8.933   2.281  23.972  0.00  0.00    +0.000 NA
ATOM     21  C   UNL     1       8.041   2.170  22.955  0.00  0.00    +0.000 A 
ATOM     22  N   UNL     1       8.482   1.306  22.051  0.00  0.00    +0.000 N 
ATOM     23  C   UNL     1       9.991   1.192  22.071  0.00  0.00    +0.000 C 
ATOM     24  C   UNL     1       6.814   3.023  22.801  0.00  0.00    +0.000 A 
ATOM     25  C   UNL     1       6.941   4.404  22.183  0.00  0.00    +0.000 C 
ATOM     26  N   UNL     1       6.749   5.268  23.297  0.00  0.00    +0.000 NA
ATOM     27  N   UNL     1       6.257   4.678  24.386  0.00  0.00    +0.000 N 
ATOM     28  C   UNL     1       5.248   5.426  25.029  0.00  0.00    +0.000 C 
ATOM     29  C   UNL     1       6.359   3.302  24.328  0.00  0.00    +0.000 A 
ATOM     30  N   UNL     1       7.223   2.868  25.184  0.00  0.00    +0.000 NA
ENDBRANCH  17  22
ENDBRANCH   1  17
TORSDOF 3
ENDMDL
MODEL 8
REMARK VINA RESULT:      -7.4      2.831      7.378
REMARK  Name = 
REMARK  6 active torsions:
REMARK  status: ('A' for Active; 'I' for Inactive)
REMARK    1  A    between atoms: N_5  and  C_6
REMARK    2  A    between atoms: N_5  and  C_10
REMARK    3  A    between atoms: C_10  and  N_12
REMARK    4  A    between atoms: C_10  and  C_42
REMARK    5  A    between atoms: C_26  and  C_28
REMARK    6  A    between atoms: N_50  and  C_51
REMARK                            x       y       z     vdW  Elec       q    Type
REMARK                         _______ _______ _______ _____ _____    ______ ____
ROOT
ATOM      1  N   UNL     1       8.167  -1.071  23.119  0.00  0.00    +0.000 NA
ATOM      2  C   UNL     1       9.052  -1.960  23.776  0.00  0.00    +0.000 C 
ATOM      3  C   UNL     1       8.708  -2.741  24.815  0.00  0.00    +0.000 A 
ATOM      4  C   UNL     1       9.505  -4.053  24.798  0.00  0.00    +0.000 A 
ATOM      5  C   UNL     1       9.131  -5.329  25.436  0.00  0.00    +0.000 A 
ATOM      6  C   UNL     1       7.729  -5.120  25.962  0.00  0.00    +0.000 A 
ATOM      7  C   UNL     1       6.737  -4.081  25.925  0.00  0.00    +0.000 A 
ATOM      8  C   UNL     1       7.246  -3.117  24.987  0.00  0.00    +0.000 A 
ATOM      9  C   UNL     1       6.399  -2.490  23.924  0.00  0.00    +0.000 C 
ATOM     10  C   UNL     1       6.941  -1.078  23.783  0.00  0.00    +0.000 C 
ENDROOT
BRANCH   9  11
ATOM     11  C   UNL     1       6.221  -3.358  22.813  0.00  0.00    +0.000 A 
ATOM     12  C   UNL     1       4.859  -4.018  22.996  0.00  0.00    +0.000 A 
ATOM     13  C   UNL     1       4.575  -5.477  22.979  0.00  0.00    +0.000 A 
ATOM     14  C   UNL     1       5.814  -6.147  22.533  0.00  0.00    +0.000 A 
ATOM     15  C   UNL     1       7.119  -5.757  22.103  0.00  0.00    +0.000 A 
ATOM     16  C   UNL     1       7.139  -4.230  22.069  0.00  0.00    +0.000 A 
ENDBRANCH   9  11
BRANCH   1  17
ATOM     17  C   UNL     1       8.465   0.167  22.592  0.00  0.00    +0.000 C 
ATOM     18  C   UNL     1       9.349  -0.057  21.348  0.00  0.00    +0.000 C 
BRANCH  17  22
ATOM     19  C   UNL     1       7.453   2.589  25.855  0.00  0.00    +0.000 A 
ATOM     20  N   UNL     1       8.467   2.566  24.988  0.00  0.00    +0.000 NA
ATOM     21  C   UNL     1       8.080   2.306  23.713  0.00  0.00    +0.000 A 
ATOM     22  N   UNL     1       8.889   1.412  23.161  0.00  0.00    +0.000 N 
ATOM     23  C   UNL     1      10.258   1.421  23.805  0.00  0.00    +0.000 C 
ATOM     24  C   UNL     1       6.991   3.043  22.986  0.00  0.00    +0.000 A 
ATOM     25  C   UNL     1       7.306   4.378  22.334  0.00  0.00    +0.000 C 
ATOM     26  N   UNL     1       6.636   5.308  23.178  0.00  0.00    +0.000 NA
ATOM     27  N   UNL     1       5.763   4.766  24.027  0.00  0.00    +0.000 N 
ATOM     28  C   UNL     1       4.549   5.480  24.122  0.00  0.00    +0.000 C 
ATOM     29  C   UNL     1       5.936   3.403  24.158  0.00  0.00    +0.000 A 
ATOM     30  N   UNL     1       6.387   3.107  25.331  0.00  0.00    +0.000 NA
ENDBRANCH  17  22
ENDBRANCH   1  17
TORSDOF 3
ENDMDL
MODEL 9
REMARK VINA RESULT:      -7.4      2.749      7.337
REMARK  Name = 
REMARK  6 active torsions:
REMARK  status: ('A' for Active; 'I' for Inactive)
REMARK    1  A    between atoms: N_5  and  C_6
REMARK    2  A    between atoms: N_5  and  C_10
REMARK    3  A    between atoms: C_10  and  N_12
REMARK    4  A    between atoms: C_10  and  C_42
REMARK    5  A    between atoms: C_26  and  C_28
REMARK    6  A    between atoms: N_50  and  C_51
REMARK                            x       y       z     vdW  Elec       q    Type
REMARK                         _______ _______ _______ _____ _____    ______ ____
ROOT
ATOM      1  N   UNL     1       8.834  -1.047  23.624  0.00  0.00    +0.000 NA
ATOM      2  C   UNL     1       7.614  -1.418  23.009  0.00  0.00    +0.000 C 
ATOM      3  C   UNL     1       7.288  -2.677  22.670  0.00  0.00    +0.000 A 
ATOM      4  C   UNL     1       5.773  -2.899  22.785  0.00  0.00    +0.000 A 
ATOM      5  C   UNL     1       5.073  -4.185  22.962  0.00  0.00    +0.000 A 
ATOM      6  C   UNL     1       6.164  -5.210  23.174  0.00  0.00    +0.000 A 
ATOM      7  C   UNL     1       7.595  -5.211  23.302  0.00  0.00    +0.000 A 
ATOM      8  C   UNL     1       7.957  -3.824  23.410  0.00  0.00    +0.000 A 
ATOM      9  C   UNL     1       8.936  -3.315  24.422  0.00  0.00    +0.000 C 
ATOM     10  C   UNL     1       9.652  -2.173  23.722  0.00  0.00    +0.000 C 
ENDROOT
BRANCH   9  11
ATOM     11  C   UNL     1       8.343  -3.177  25.706  0.00  0.00    +0.000 A 
ATOM     12  C   UNL     1       8.642  -4.469  26.457  0.00  0.00    +0.000 A 
ATOM     13  C   UNL     1       7.651  -5.346  27.135  0.00  0.00    +0.000 A 
ATOM     14  C   UNL     1       6.364  -4.619  27.129  0.00  0.00    +0.000 A 
ATOM     15  C   UNL     1       5.883  -3.345  26.699  0.00  0.00    +0.000 A 
ATOM     16  C   UNL     1       7.087  -2.571  26.167  0.00  0.00    +0.000 A 
ENDBRANCH   9  11
BRANCH   1  17
ATOM     17  C   UNL     1       9.559   0.106  23.413  0.00  0.00    +0.000 C 
ATOM     18  C   UNL     1      10.416   0.353  24.670  0.00  0.00    +0.000 C 
BRANCH  17  22
ATOM     19  C   UNL     1       8.750   3.935  24.902  0.00  0.00    +0.000 A 
ATOM     20  N   UNL     1       9.005   3.439  23.691  0.00  0.00    +0.000 NA
ATOM     21  C   UNL     1       8.388   2.253  23.453  0.00  0.00    +0.000 A 
ATOM     22  N   UNL     1       9.234   1.401  22.891  0.00  0.00    +0.000 N 
ATOM     23  C   UNL     1      10.340   2.117  22.146  0.00  0.00    +0.000 C 
ATOM     24  C   UNL     1       6.921   2.001  23.654  0.00  0.00    +0.000 A 
ATOM     25  C   UNL     1       5.941   2.420  22.572  0.00  0.00    +0.000 C 
ATOM     26  N   UNL     1       5.282   3.537  23.158  0.00  0.00    +0.000 NA
ATOM     27  N   UNL     1       5.481   3.681  24.469  0.00  0.00    +0.000 N 
ATOM     28  C   UNL     1       4.311   4.008  25.186  0.00  0.00    +0.000 C 
ATOM     29  C   UNL     1       6.551   2.934  24.922  0.00  0.00    +0.000 A 
ATOM     30  N   UNL     1       7.531   3.698  25.271  0.00  0.00    +0.000 NA
ENDBRANCH  17  22
ENDBRANCH   1  17
TORSDOF 3
ENDMDL
