MODEL 1
REMARK VINA RESULT:      -8.6      0.000      0.000
REMARK  Name = 
REMARK  5 active torsions:
REMARK  status: ('A' for Active; 'I' for Inactive)
REMARK    1  A    between atoms: C_7  and  N_8
REMARK    2  A    between atoms: C_11  and  N_12
REMARK    3  A    between atoms: C_20  and  C_22
REMARK    4  A    between atoms: C_22  and  C_25
REMARK    5  A    between atoms: C_35  and  C_37
REMARK                            x       y       z     vdW  Elec       q    Type
REMARK                         _______ _______ _______ _____ _____    ______ ____
ROOT
ATOM      1  N   UNL     1       6.795  -4.129  25.355  0.00  0.00    +0.000 N 
ATOM      2  C   UNL     1       7.461  -4.326  26.709  0.00  0.00    +0.000 C 
ATOM      3  C   UNL     1       8.509  -3.219  26.869  0.00  0.00    +0.000 C 
ATOM      4  N   UNL     1       8.126  -2.143  25.963  0.00  0.00    +0.000 N 
ATOM      5  C   UNL     1       8.966  -1.539  25.122  0.00  0.00    +0.000 C 
ATOM      6  O   UNL     1       9.589  -0.569  25.702  0.00  0.00    +0.000 OA
ATOM      7  C   UNL     1       6.709  -1.797  26.030  0.00  0.00    +0.000 C 
ATOM      8  C   UNL     1       5.938  -2.932  25.354  0.00  0.00    +0.000 C 
ENDROOT
BRANCH   1  13
ATOM      9  C   UNL     1       7.153  -5.624  22.050  0.00  0.00    +0.000 A 
ATOM     10  C   UNL     1       5.627  -5.656  21.907  0.00  0.00    +0.000 A 
ATOM     11  C   UNL     1       4.621  -5.351  22.915  0.00  0.00    +0.000 A 
ATOM     12  C   UNL     1       5.327  -5.431  24.276  0.00  0.00    +0.000 A 
ATOM     13  C   UNL     1       6.665  -5.210  24.634  0.00  0.00    +0.000 A 
ATOM     14  C   UNL     1       7.581  -5.526  23.478  0.00  0.00    +0.000 A 
BRANCH  12  15
ATOM     15  N   UNL     1       4.828  -6.463  24.687  0.00  0.00    +0.000 N 
ATOM     16  O   UNL     1       5.190  -6.707  25.849  0.00  0.00    +0.000 OA
ATOM     17  O   UNL     1       4.261  -7.603  24.260  0.00  0.00    +0.000 OA
ENDBRANCH  12  15
ENDBRANCH   1  13
BRANCH   5  18
ATOM     18  C   UNL     1       9.684  -2.211  24.024  0.00  0.00    +0.000 C 
BRANCH  18  19
ATOM     19  C   UNL     1       9.571  -1.642  22.632  0.00  0.00    +0.000 C 
ATOM     20  O   UNL     1      10.653  -1.591  21.972  0.00  0.00    +0.000 OA
ATOM     21  N   UNL     1       8.696  -0.643  22.405  0.00  0.00    +0.000 N 
ATOM     22  C   UNL     1       7.257  -1.007  22.330  0.00  0.00    +0.000 C 
ATOM     23  C   UNL     1       6.905  -1.058  20.857  0.00  0.00    +0.000 C 
ATOM     24  N   UNL     1       7.149   0.267  20.289  0.00  0.00    +0.000 N 
ATOM     25  C   UNL     1       6.713   0.474  19.011  0.00  0.00    +0.000 C 
ATOM     26  O   UNL     1       7.509   0.469  18.091  0.00  0.00    +0.000 OA
ATOM     27  C   UNL     1       7.979   1.222  20.937  0.00  0.00    +0.000 C 
ATOM     28  C   UNL     1       8.998   0.676  21.918  0.00  0.00    +0.000 C 
BRANCH  25  29
ATOM     29  C   UNL     1       5.233   0.377  18.777  0.00  0.00    +0.000 C 
ATOM     30 CL   UNL     1       4.400   1.823  19.371  0.00  0.00    +0.000 Cl
ENDBRANCH  25  29
ENDBRANCH  18  19
ENDBRANCH   5  18
TORSDOF 5
ENDMDL
MODEL 2
REMARK VINA RESULT:      -7.7      2.112      3.508
REMARK  Name = 
REMARK  5 active torsions:
REMARK  status: ('A' for Active; 'I' for Inactive)
REMARK    1  A    between atoms: C_7  and  N_8
REMARK    2  A    between atoms: C_11  and  N_12
REMARK    3  A    between atoms: C_20  and  C_22
REMARK    4  A    between atoms: C_22  and  C_25
REMARK    5  A    between atoms: C_35  and  C_37
REMARK                            x       y       z     vdW  Elec       q    Type
REMARK                         _______ _______ _______ _____ _____    ______ ____
ROOT
ATOM      1  N   UNL     1       5.917  -3.586  25.922  0.00  0.00    +0.000 N 
ATOM      2  C   UNL     1       5.710  -4.454  24.689  0.00  0.00    +0.000 C 
ATOM      3  C   UNL     1       7.090  -4.726  24.083  0.00  0.00    +0.000 C 
ATOM      4  N   UNL     1       8.066  -4.519  25.147  0.00  0.00    +0.000 N 
ATOM      5  C   UNL     1       9.174  -3.790  25.015  0.00  0.00    +0.000 C 
ATOM      6  O   UNL     1      10.140  -4.496  24.531  0.00  0.00    +0.000 OA
ATOM      7  C   UNL     1       7.702  -5.161  26.408  0.00  0.00    +0.000 C 
ATOM      8  C   UNL     1       6.552  -4.350  27.008  0.00  0.00    +0.000 C 
ENDROOT
BRANCH   1  13
ATOM      9  C   UNL     1       5.477  -0.204  27.208  0.00  0.00    +0.000 A 
ATOM     10  C   UNL     1       4.505  -0.741  28.267  0.00  0.00    +0.000 A 
ATOM     11  C   UNL     1       3.957  -2.085  28.387  0.00  0.00    +0.000 A 
ATOM     12  C   UNL     1       4.150  -2.760  27.022  0.00  0.00    +0.000 A 
ATOM     13  C   UNL     1       5.114  -2.560  26.024  0.00  0.00    +0.000 A 
ATOM     14  C   UNL     1       5.619  -1.140  26.052  0.00  0.00    +0.000 A 
BRANCH  12  15
ATOM     15  N   UNL     1       2.990  -2.768  26.650  0.00  0.00    +0.000 N 
ATOM     16  O   UNL     1       2.545  -3.925  26.588  0.00  0.00    +0.000 OA
ATOM     17  O   UNL     1       2.088  -2.021  25.993  0.00  0.00    +0.000 OA
ENDBRANCH  12  15
ENDBRANCH   1  13
BRANCH   5  18
ATOM     18  C   UNL     1       9.201  -2.349  24.706  0.00  0.00    +0.000 C 
BRANCH  18  19
ATOM     19  C   UNL     1       9.283  -1.921  23.263  0.00  0.00    +0.000 C 
ATOM     20  O   UNL     1      10.423  -2.040  22.720  0.00  0.00    +0.000 OA
ATOM     21  N   UNL     1       8.542  -0.874  22.851  0.00  0.00    +0.000 N 
ATOM     22  C   UNL     1       7.087  -1.108  22.657  0.00  0.00    +0.000 C 
ATOM     23  C   UNL     1       6.875  -1.279  21.166  0.00  0.00    +0.000 C 
ATOM     24  N   UNL     1       7.309  -0.050  20.505  0.00  0.00    +0.000 N 
ATOM     25  C   UNL     1       7.022   0.061  19.174  0.00  0.00    +0.000 C 
ATOM     26  O   UNL     1       7.898  -0.114  18.349  0.00  0.00    +0.000 OA
ATOM     27  C   UNL     1       8.167   0.886  21.145  0.00  0.00    +0.000 C 
ATOM     28  C   UNL     1       9.024   0.353  22.275  0.00  0.00    +0.000 C 
BRANCH  25  29
ATOM     29  C   UNL     1       5.570   0.079  18.794  0.00  0.00    +0.000 C 
ATOM     30 CL   UNL     1       4.819   1.625  19.222  0.00  0.00    +0.000 Cl
ENDBRANCH  25  29
ENDBRANCH  18  19
ENDBRANCH   5  18
TORSDOF 5
ENDMDL
MODEL 3
REMARK VINA RESULT:      -7.7      2.991      4.867
REMARK  Name = 
REMARK  5 active torsions:
REMARK  status: ('A' for Active; 'I' for Inactive)
REMARK    1  A    between atoms: C_7  and  N_8
REMARK    2  A    between atoms: C_11  and  N_12
REMARK    3  A    between atoms: C_20  and  C_22
REMARK    4  A    between atoms: C_22  and  C_25
REMARK    5  A    between atoms: C_35  and  C_37
REMARK                            x       y       z     vdW  Elec       q    Type
REMARK                         _______ _______ _______ _____ _____    ______ ____
ROOT
ATOM      1  N   UNL     1       6.593  -5.393  23.934  0.00  0.00    +0.000 N 
ATOM      2  C   UNL     1       5.140  -5.728  23.633  0.00  0.00    +0.000 C 
ATOM      3  C   UNL     1       4.666  -4.769  22.535  0.00  0.00    +0.000 C 
ATOM      4  N   UNL     1       5.862  -4.286  21.853  0.00  0.00    +0.000 N 
ATOM      5  C   UNL     1       6.103  -3.003  21.583  0.00  0.00    +0.000 C 
ATOM      6  O   UNL     1       5.558  -2.653  20.467  0.00  0.00    +0.000 OA
ATOM      7  C   UNL     1       6.810  -5.344  21.515  0.00  0.00    +0.000 C 
ATOM      8  C   UNL     1       7.471  -5.788  22.821  0.00  0.00    +0.000 C 
ENDROOT
BRANCH   1  13
ATOM      9  C   UNL     1       5.326  -4.945  27.322  0.00  0.00    +0.000 A 
ATOM     10  C   UNL     1       5.915  -3.529  27.347  0.00  0.00    +0.000 A 
ATOM     11  C   UNL     1       6.785  -2.898  26.365  0.00  0.00    +0.000 A 
ATOM     12  C   UNL     1       7.389  -4.031  25.524  0.00  0.00    +0.000 A 
ATOM     13  C   UNL     1       6.894  -5.303  25.202  0.00  0.00    +0.000 A 
ATOM     14  C   UNL     1       5.977  -5.805  26.288  0.00  0.00    +0.000 A 
BRANCH  12  15
ATOM     15  N   UNL     1       8.530  -3.993  25.947  0.00  0.00    +0.000 N 
ATOM     16  O   UNL     1       9.322  -3.603  25.074  0.00  0.00    +0.000 OA
ATOM     17  O   UNL     1       9.312  -4.494  26.917  0.00  0.00    +0.000 OA
ENDBRANCH  12  15
ENDBRANCH   1  13
BRANCH   5  18
ATOM     18  C   UNL     1       6.250  -1.944  22.598  0.00  0.00    +0.000 C 
BRANCH  18  19
ATOM     19  C   UNL     1       7.509  -1.115  22.599  0.00  0.00    +0.000 C 
ATOM     20  O   UNL     1       8.549  -1.698  22.165  0.00  0.00    +0.000 OA
ATOM     21  N   UNL     1       7.704  -0.227  23.594  0.00  0.00    +0.000 N 
ATOM     22  C   UNL     1       6.922   1.035  23.539  0.00  0.00    +0.000 C 
ATOM     23  C   UNL     1       7.859   2.098  23.002  0.00  0.00    +0.000 C 
ATOM     24  N   UNL     1       8.988   2.211  23.924  0.00  0.00    +0.000 N 
ATOM     25  C   UNL     1       9.849   3.250  23.711  0.00  0.00    +0.000 C 
ATOM     26  O   UNL     1      10.927   3.045  23.187  0.00  0.00    +0.000 OA
ATOM     27  C   UNL     1       9.302   1.186  24.858  0.00  0.00    +0.000 C 
ATOM     28  C   UNL     1       8.796  -0.204  24.530  0.00  0.00    +0.000 C 
BRANCH  25  29
ATOM     29  C   UNL     1       9.284   4.635  23.844  0.00  0.00    +0.000 C 
ATOM     30 CL   UNL     1      10.554   5.858  23.673  0.00  0.00    +0.000 Cl
ENDBRANCH  25  29
ENDBRANCH  18  19
ENDBRANCH   5  18
TORSDOF 5
ENDMDL
MODEL 4
REMARK VINA RESULT:      -7.4      3.214      7.117
REMARK  Name = 
REMARK  5 active torsions:
REMARK  status: ('A' for Active; 'I' for Inactive)
REMARK    1  A    between atoms: C_7  and  N_8
REMARK    2  A    between atoms: C_11  and  N_12
REMARK    3  A    between atoms: C_20  and  C_22
REMARK    4  A    between atoms: C_22  and  C_25
REMARK    5  A    between atoms: C_35  and  C_37
REMARK                            x       y       z     vdW  Elec       q    Type
REMARK                         _______ _______ _______ _____ _____    ______ ____
ROOT
ATOM      1  N   UNL     1       7.503   1.137  22.414  0.00  0.00    +0.000 N 
ATOM      2  C   UNL     1       8.688   1.822  21.749  0.00  0.00    +0.000 C 
ATOM      3  C   UNL     1       9.886   0.873  21.857  0.00  0.00    +0.000 C 
ATOM      4  N   UNL     1       9.345  -0.466  22.062  0.00  0.00    +0.000 N 
ATOM      5  C   UNL     1       9.771  -1.310  23.002  0.00  0.00    +0.000 C 
ATOM      6  O   UNL     1      10.786  -1.992  22.590  0.00  0.00    +0.000 OA
ATOM      7  C   UNL     1       8.250  -0.800  21.154  0.00  0.00    +0.000 C 
ATOM      8  C   UNL     1       7.029  -0.002  21.612  0.00  0.00    +0.000 C 
ENDROOT
BRANCH   1  13
ATOM      9  C   UNL     1       7.510   4.092  24.549  0.00  0.00    +0.000 A 
ATOM     10  C   UNL     1       7.511   3.187  25.788  0.00  0.00    +0.000 A 
ATOM     11  C   UNL     1       7.355   1.741  25.847  0.00  0.00    +0.000 A 
ATOM     12  C   UNL     1       6.734   1.312  24.510  0.00  0.00    +0.000 A 
ATOM     13  C   UNL     1       6.813   1.886  23.233  0.00  0.00    +0.000 A 
ATOM     14  C   UNL     1       7.018   3.376  23.333  0.00  0.00    +0.000 A 
BRANCH  12  15
ATOM     15  N   UNL     1       5.616   1.033  24.902  0.00  0.00    +0.000 N 
ATOM     16  O   UNL     1       5.409  -0.190  24.840  0.00  0.00    +0.000 OA
ATOM     17  O   UNL     1       4.403   1.574  25.102  0.00  0.00    +0.000 OA
ENDBRANCH  12  15
ENDBRANCH   1  13
BRANCH   5  18
ATOM     18  C   UNL     1       9.700  -1.057  24.453  0.00  0.00    +0.000 C 
BRANCH  18  19
ATOM     19  C   UNL     1       8.708  -1.839  25.275  0.00  0.00    +0.000 C 
ATOM     20  O   UNL     1       8.492  -1.394  26.443  0.00  0.00    +0.000 OA
ATOM     21  N   UNL     1       8.663  -3.179  25.139  0.00  0.00    +0.000 N 
ATOM     22  C   UNL     1       8.009  -3.714  23.916  0.00  0.00    +0.000 C 
ATOM     23  C   UNL     1       6.618  -4.151  24.328  0.00  0.00    +0.000 C 
ATOM     24  N   UNL     1       6.755  -5.184  25.354  0.00  0.00    +0.000 N 
ATOM     25  C   UNL     1       5.613  -5.837  25.719  0.00  0.00    +0.000 C 
ATOM     26  O   UNL     1       5.063  -5.557  26.767  0.00  0.00    +0.000 OA
ATOM     27  C   UNL     1       7.960  -5.360  26.089  0.00  0.00    +0.000 C 
ATOM     28  C   UNL     1       8.884  -4.161  26.167  0.00  0.00    +0.000 C 
BRANCH  25  29
ATOM     29  C   UNL     1       4.922  -6.640  24.654  0.00  0.00    +0.000 C 
ATOM     30 CL   UNL     1       3.519  -7.497  25.314  0.00  0.00    +0.000 Cl
ENDBRANCH  25  29
ENDBRANCH  18  19
ENDBRANCH   5  18
TORSDOF 5
ENDMDL
MODEL 5
REMARK VINA RESULT:      -7.2      2.596      3.135
REMARK  Name = 
REMARK  5 active torsions:
REMARK  status: ('A' for Active; 'I' for Inactive)
REMARK    1  A    between atoms: C_7  and  N_8
REMARK    2  A    between atoms: C_11  and  N_12
REMARK    3  A    between atoms: C_20  and  C_22
REMARK    4  A    between atoms: C_22  and  C_25
REMARK    5  A    between atoms: C_35  and  C_37
REMARK                            x       y       z     vdW  Elec       q    Type
REMARK                         _______ _______ _______ _____ _____    ______ ____
ROOT
ATOM      1  N   UNL     1       6.645  -4.316  26.093  0.00  0.00    +0.000 N 
ATOM      2  C   UNL     1       7.664  -5.439  26.214  0.00  0.00    +0.000 C 
ATOM      3  C   UNL     1       8.845  -5.086  25.303  0.00  0.00    +0.000 C 
ATOM      4  N   UNL     1       8.798  -3.644  25.092  0.00  0.00    +0.000 N 
ATOM      5  C   UNL     1       8.899  -3.058  23.899  0.00  0.00    +0.000 C 
ATOM      6  O   UNL     1      10.134  -2.871  23.576  0.00  0.00    +0.000 OA
ATOM      7  C   UNL     1       8.591  -2.879  26.319  0.00  0.00    +0.000 C 
ATOM      8  C   UNL     1       7.134  -3.084  26.735  0.00  0.00    +0.000 C 
ENDROOT
BRANCH   1  13
ATOM      9  C   UNL     1       4.419  -7.073  25.238  0.00  0.00    +0.000 A 
ATOM     10  C   UNL     1       4.117  -6.401  23.893  0.00  0.00    +0.000 A 
ATOM     11  C   UNL     1       4.514  -5.077  23.438  0.00  0.00    +0.000 A 
ATOM     12  C   UNL     1       4.898  -4.280  24.693  0.00  0.00    +0.000 A 
ATOM     13  C   UNL     1       5.407  -4.700  25.930  0.00  0.00    +0.000 A 
ATOM     14  C   UNL     1       4.948  -6.102  26.243  0.00  0.00    +0.000 A 
BRANCH  12  15
ATOM     15  N   UNL     1       3.944  -3.524  24.736  0.00  0.00    +0.000 N 
ATOM     16  O   UNL     1       4.309  -2.346  24.875  0.00  0.00    +0.000 OA
ATOM     17  O   UNL     1       2.625  -3.505  24.989  0.00  0.00    +0.000 OA
ENDBRANCH  12  15
ENDBRANCH   1  13
BRANCH   5  18
ATOM     18  C   UNL     1       7.955  -3.255  22.783  0.00  0.00    +0.000 C 
BRANCH  18  19
ATOM     19  C   UNL     1       7.042  -2.118  22.401  0.00  0.00    +0.000 C 
ATOM     20  O   UNL     1       5.971  -2.451  21.809  0.00  0.00    +0.000 OA
ATOM     21  N   UNL     1       7.586  -0.946  22.018  0.00  0.00    +0.000 N 
ATOM     22  C   UNL     1       8.150  -0.080  23.085  0.00  0.00    +0.000 C 
ATOM     23  C   UNL     1       7.117   0.994  23.358  0.00  0.00    +0.000 C 
ATOM     24  N   UNL     1       6.907   1.743  22.120  0.00  0.00    +0.000 N 
ATOM     25  C   UNL     1       6.148   2.875  22.212  0.00  0.00    +0.000 C 
ATOM     26  O   UNL     1       4.995   2.863  21.826  0.00  0.00    +0.000 OA
ATOM     27  C   UNL     1       7.286   1.222  20.852  0.00  0.00    +0.000 C 
ATOM     28  C   UNL     1       7.412  -0.285  20.752  0.00  0.00    +0.000 C 
BRANCH  25  29
ATOM     29  C   UNL     1       6.681   3.979  23.079  0.00  0.00    +0.000 C 
ATOM     30 CL   UNL     1       7.263   5.333  22.097  0.00  0.00    +0.000 Cl
ENDBRANCH  25  29
ENDBRANCH  18  19
ENDBRANCH   5  18
TORSDOF 5
ENDMDL
MODEL 6
REMARK VINA RESULT:      -7.2      3.368      7.009
REMARK  Name = 
REMARK  5 active torsions:
REMARK  status: ('A' for Active; 'I' for Inactive)
REMARK    1  A    between atoms: C_7  and  N_8
REMARK    2  A    between atoms: C_11  and  N_12
REMARK    3  A    between atoms: C_20  and  C_22
REMARK    4  A    between atoms: C_22  and  C_25
REMARK    5  A    between atoms: C_35  and  C_37
REMARK                            x       y       z     vdW  Elec       q    Type
REMARK                         _______ _______ _______ _____ _____    ______ ____
ROOT
ATOM      1  N   UNL     1       8.650   1.495  23.253  0.00  0.00    +0.000 N 
ATOM      2  C   UNL     1      10.052   1.702  23.806  0.00  0.00    +0.000 C 
ATOM      3  C   UNL     1      10.665   0.316  24.033  0.00  0.00    +0.000 C 
ATOM      4  N   UNL     1       9.930  -0.614  23.183  0.00  0.00    +0.000 N 
ATOM      5  C   UNL     1       9.439  -1.782  23.600  0.00  0.00    +0.000 C 
ATOM      6  O   UNL     1      10.328  -2.714  23.521  0.00  0.00    +0.000 OA
ATOM      7  C   UNL     1       9.740  -0.133  21.817  0.00  0.00    +0.000 C 
ATOM      8  C   UNL     1       8.693   0.980  21.875  0.00  0.00    +0.000 C 
ENDROOT
BRANCH   1  13
ATOM      9  C   UNL     1       7.893   4.121  25.665  0.00  0.00    +0.000 A 
ATOM     10  C   UNL     1       7.281   3.073  26.602  0.00  0.00    +0.000 A 
ATOM     11  C   UNL     1       7.021   1.666  26.334  0.00  0.00    +0.000 A 
ATOM     12  C   UNL     1       7.038   1.502  24.807  0.00  0.00    +0.000 A 
ATOM     13  C   UNL     1       7.717   2.219  23.812  0.00  0.00    +0.000 A 
ATOM     14  C   UNL     1       7.952   3.642  24.251  0.00  0.00    +0.000 A 
BRANCH  12  15
ATOM     15  N   UNL     1       5.847   1.329  24.623  0.00  0.00    +0.000 N 
ATOM     16  O   UNL     1       5.569   0.120  24.577  0.00  0.00    +0.000 OA
ATOM     17  O   UNL     1       4.752   1.949  24.153  0.00  0.00    +0.000 OA
ENDBRANCH  12  15
ENDBRANCH   1  13
BRANCH   5  18
ATOM     18  C   UNL     1       8.422  -1.938  24.655  0.00  0.00    +0.000 C 
BRANCH  18  19
ATOM     19  C   UNL     1       7.763  -3.282  24.830  0.00  0.00    +0.000 C 
ATOM     20  O   UNL     1       8.361  -4.089  25.604  0.00  0.00    +0.000 OA
ATOM     21  N   UNL     1       7.126  -3.837  23.780  0.00  0.00    +0.000 N 
ATOM     22  C   UNL     1       5.797  -3.277  23.420  0.00  0.00    +0.000 C 
ATOM     23  C   UNL     1       4.763  -4.229  23.986  0.00  0.00    +0.000 C 
ATOM     24  N   UNL     1       4.973  -5.539  23.372  0.00  0.00    +0.000 N 
ATOM     25  C   UNL     1       4.019  -6.487  23.615  0.00  0.00    +0.000 C 
ATOM     26  O   UNL     1       4.236  -7.372  24.420  0.00  0.00    +0.000 OA
ATOM     27  C   UNL     1       6.197  -5.885  22.736  0.00  0.00    +0.000 C 
ATOM     28  C   UNL     1       7.422  -5.100  23.158  0.00  0.00    +0.000 C 
BRANCH  25  29
ATOM     29  C   UNL     1       2.635  -6.199  23.110  0.00  0.00    +0.000 C 
ATOM     30 CL   UNL     1       1.677  -7.685  22.996  0.00  0.00    +0.000 Cl
ENDBRANCH  25  29
ENDBRANCH  18  19
ENDBRANCH   5  18
TORSDOF 5
ENDMDL
MODEL 7
REMARK VINA RESULT:      -7.2      1.932      4.257
REMARK  Name = 
REMARK  5 active torsions:
REMARK  status: ('A' for Active; 'I' for Inactive)
REMARK    1  A    between atoms: C_7  and  N_8
REMARK    2  A    between atoms: C_11  and  N_12
REMARK    3  A    between atoms: C_20  and  C_22
REMARK    4  A    between atoms: C_22  and  C_25
REMARK    5  A    between atoms: C_35  and  C_37
REMARK                            x       y       z     vdW  Elec       q    Type
REMARK                         _______ _______ _______ _____ _____    ______ ____
ROOT
ATOM      1  N   UNL     1       5.967  -2.928  26.620  0.00  0.00    +0.000 N 
ATOM      2  C   UNL     1       5.017  -3.255  25.478  0.00  0.00    +0.000 C 
ATOM      3  C   UNL     1       5.848  -3.886  24.356  0.00  0.00    +0.000 C 
ATOM      4  N   UNL     1       7.066  -4.400  24.972  0.00  0.00    +0.000 N 
ATOM      5  C   UNL     1       8.294  -4.182  24.501  0.00  0.00    +0.000 C 
ATOM      6  O   UNL     1       8.609  -5.055  23.604  0.00  0.00    +0.000 OA
ATOM      7  C   UNL     1       6.826  -5.161  26.197  0.00  0.00    +0.000 C 
ATOM      8  C   UNL     1       6.443  -4.153  27.282  0.00  0.00    +0.000 C 
ENDROOT
BRANCH   1  13
ATOM      9  C   UNL     1       3.725  -0.106  27.166  0.00  0.00    +0.000 A 
ATOM     10  C   UNL     1       4.520   0.714  26.142  0.00  0.00    +0.000 A 
ATOM     11  C   UNL     1       5.773   0.366  25.488  0.00  0.00    +0.000 A 
ATOM     12  C   UNL     1       6.409  -0.752  26.325  0.00  0.00    +0.000 A 
ATOM     13  C   UNL     1       5.829  -1.737  27.138  0.00  0.00    +0.000 A 
ATOM     14  C   UNL     1       4.520  -1.250  27.707  0.00  0.00    +0.000 A 
BRANCH  12  15
ATOM     15  N   UNL     1       7.324  -0.120  26.822  0.00  0.00    +0.000 N 
ATOM     16  O   UNL     1       8.224   0.094  25.995  0.00  0.00    +0.000 OA
ATOM     17  O   UNL     1       7.872   0.185  28.009  0.00  0.00    +0.000 OA
ENDBRANCH  12  15
ENDBRANCH   1  13
BRANCH   5  18
ATOM     18  C   UNL     1       8.919  -2.854  24.366  0.00  0.00    +0.000 C 
BRANCH  18  19
ATOM     19  C   UNL     1       9.058  -2.257  22.989  0.00  0.00    +0.000 C 
ATOM     20  O   UNL     1      10.219  -2.313  22.482  0.00  0.00    +0.000 OA
ATOM     21  N   UNL     1       8.331  -1.167  22.675  0.00  0.00    +0.000 N 
ATOM     22  C   UNL     1       6.886  -1.374  22.395  0.00  0.00    +0.000 C 
ATOM     23  C   UNL     1       6.735  -1.366  20.887  0.00  0.00    +0.000 C 
ATOM     24  N   UNL     1       7.192  -0.067  20.395  0.00  0.00    +0.000 N 
ATOM     25  C   UNL     1       6.959   0.203  19.077  0.00  0.00    +0.000 C 
ATOM     26  O   UNL     1       7.868   0.125  18.273  0.00  0.00    +0.000 OA
ATOM     27  C   UNL     1       8.021   0.785  21.176  0.00  0.00    +0.000 C 
ATOM     28  C   UNL     1       8.832   0.119  22.269  0.00  0.00    +0.000 C 
BRANCH  25  29
ATOM     29  C   UNL     1       5.523   0.268  18.643  0.00  0.00    +0.000 C 
ATOM     30 CL   UNL     1       4.714   1.686  19.332  0.00  0.00    +0.000 Cl
ENDBRANCH  25  29
ENDBRANCH  18  19
ENDBRANCH   5  18
TORSDOF 5
ENDMDL
MODEL 8
REMARK VINA RESULT:      -7.2      2.009      2.579
REMARK  Name = 
REMARK  5 active torsions:
REMARK  status: ('A' for Active; 'I' for Inactive)
REMARK    1  A    between atoms: C_7  and  N_8
REMARK    2  A    between atoms: C_11  and  N_12
REMARK    3  A    between atoms: C_20  and  C_22
REMARK    4  A    between atoms: C_22  and  C_25
REMARK    5  A    between atoms: C_35  and  C_37
REMARK                            x       y       z     vdW  Elec       q    Type
REMARK                         _______ _______ _______ _____ _____    ______ ____
ROOT
ATOM      1  N   UNL     1       4.596  -3.908  25.738  0.00  0.00    +0.000 N 
ATOM      2  C   UNL     1       4.761  -4.763  26.985  0.00  0.00    +0.000 C 
ATOM      3  C   UNL     1       6.202  -4.585  27.475  0.00  0.00    +0.000 C 
ATOM      4  N   UNL     1       6.686  -3.329  26.915  0.00  0.00    +0.000 N 
ATOM      5  C   UNL     1       7.858  -3.187  26.297  0.00  0.00    +0.000 C 
ATOM      6  O   UNL     1       8.804  -2.951  27.142  0.00  0.00    +0.000 OA
ATOM      7  C   UNL     1       5.743  -2.222  27.059  0.00  0.00    +0.000 C 
ATOM      8  C   UNL     1       4.603  -2.474  26.071  0.00  0.00    +0.000 C 
ENDROOT
BRANCH   1  13
ATOM      9  C   UNL     1       1.865  -6.078  24.679  0.00  0.00    +0.000 A 
ATOM     10  C   UNL     1       2.873  -7.202  24.410  0.00  0.00    +0.000 A 
ATOM     11  C   UNL     1       4.327  -7.134  24.437  0.00  0.00    +0.000 A 
ATOM     12  C   UNL     1       4.697  -5.648  24.331  0.00  0.00    +0.000 A 
ATOM     13  C   UNL     1       4.005  -4.496  24.732  0.00  0.00    +0.000 A 
ATOM     14  C   UNL     1       2.516  -4.733  24.696  0.00  0.00    +0.000 A 
BRANCH  12  15
ATOM     15  N   UNL     1       5.131  -5.641  23.194  0.00  0.00    +0.000 N 
ATOM     16  O   UNL     1       6.357  -5.834  23.178  0.00  0.00    +0.000 OA
ATOM     17  O   UNL     1       4.839  -5.210  21.956  0.00  0.00    +0.000 OA
ENDBRANCH  12  15
ENDBRANCH   1  13
BRANCH   5  18
ATOM     18  C   UNL     1       8.248  -3.892  25.062  0.00  0.00    +0.000 C 
BRANCH  18  19
ATOM     19  C   UNL     1       8.585  -3.075  23.840  0.00  0.00    +0.000 C 
ATOM     20  O   UNL     1       9.821  -2.964  23.579  0.00  0.00    +0.000 OA
ATOM     21  N   UNL     1       7.823  -2.004  23.542  0.00  0.00    +0.000 N 
ATOM     22  C   UNL     1       6.487  -2.268  22.947  0.00  0.00    +0.000 C 
ATOM     23  C   UNL     1       6.626  -2.031  21.457  0.00  0.00    +0.000 C 
ATOM     24  N   UNL     1       7.032  -0.641  21.257  0.00  0.00    +0.000 N 
ATOM     25  C   UNL     1       7.029  -0.182  19.971  0.00  0.00    +0.000 C 
ATOM     26  O   UNL     1       8.078  -0.064  19.367  0.00  0.00    +0.000 OA
ATOM     27  C   UNL     1       7.605   0.134  22.304  0.00  0.00    +0.000 C 
ATOM     28  C   UNL     1       8.257  -0.637  23.434  0.00  0.00    +0.000 C 
BRANCH  25  29
ATOM     29  C   UNL     1       5.703  -0.153  19.266  0.00  0.00    +0.000 C 
ATOM     30 CL   UNL     1       5.550   1.295  18.258  0.00  0.00    +0.000 Cl
ENDBRANCH  25  29
ENDBRANCH  18  19
ENDBRANCH   5  18
TORSDOF 5
ENDMDL
MODEL 9
REMARK VINA RESULT:      -7.2      2.786      4.924
REMARK  Name = 
REMARK  5 active torsions:
REMARK  status: ('A' for Active; 'I' for Inactive)
REMARK    1  A    between atoms: C_7  and  N_8
REMARK    2  A    between atoms: C_11  and  N_12
REMARK    3  A    between atoms: C_20  and  C_22
REMARK    4  A    between atoms: C_22  and  C_25
REMARK    5  A    between atoms: C_35  and  C_37
REMARK                            x       y       z     vdW  Elec       q    Type
REMARK                         _______ _______ _______ _____ _____    ______ ____
ROOT
ATOM      1  N   UNL     1       3.170  -6.309  26.147  0.00  0.00    +0.000 N 
ATOM      2  C   UNL     1       2.404  -5.099  25.632  0.00  0.00    +0.000 C 
ATOM      3  C   UNL     1       3.049  -4.676  24.309  0.00  0.00    +0.000 C 
ATOM      4  N   UNL     1       3.766  -5.840  23.798  0.00  0.00    +0.000 N 
ATOM      5  C   UNL     1       5.022  -5.810  23.354  0.00  0.00    +0.000 C 
ATOM      6  O   UNL     1       5.067  -5.477  22.108  0.00  0.00    +0.000 OA
ATOM      7  C   UNL     1       2.987  -7.075  23.848  0.00  0.00    +0.000 C 
ATOM      8  C   UNL     1       2.909  -7.496  25.317  0.00  0.00    +0.000 C 
ENDROOT
BRANCH   1  13
ATOM      9  C   UNL     1       2.715  -4.601  29.334  0.00  0.00    +0.000 A 
ATOM     10  C   UNL     1       4.132  -4.025  29.220  0.00  0.00    +0.000 A 
ATOM     11  C   UNL     1       5.156  -4.344  28.236  0.00  0.00    +0.000 A 
ATOM     12  C   UNL     1       4.753  -5.682  27.601  0.00  0.00    +0.000 A 
ATOM     13  C   UNL     1       3.494  -6.268  27.412  0.00  0.00    +0.000 A 
ATOM     14  C   UNL     1       2.530  -5.811  28.478  0.00  0.00    +0.000 A 
BRANCH  12  15
ATOM     15  N   UNL     1       5.603  -6.394  28.106  0.00  0.00    +0.000 N 
ATOM     16  O   UNL     1       6.734  -6.123  27.670  0.00  0.00    +0.000 OA
ATOM     17  O   UNL     1       5.755  -7.568  28.740  0.00  0.00    +0.000 OA
ENDBRANCH  12  15
ENDBRANCH   1  13
BRANCH   5  18
ATOM     18  C   UNL     1       6.194  -5.444  24.170  0.00  0.00    +0.000 C 
BRANCH  18  19
ATOM     19  C   UNL     1       7.236  -4.535  23.570  0.00  0.00    +0.000 C 
ATOM     20  O   UNL     1       8.421  -4.987  23.566  0.00  0.00    +0.000 OA
ATOM     21  N   UNL     1       7.115  -3.203  23.739  0.00  0.00    +0.000 N 
ATOM     22  C   UNL     1       6.092  -2.506  22.917  0.00  0.00    +0.000 C 
ATOM     23  C   UNL     1       6.836  -1.848  21.773  0.00  0.00    +0.000 C 
ATOM     24  N   UNL     1       7.795  -0.903  22.342  0.00  0.00    +0.000 N 
ATOM     25  C   UNL     1       8.432  -0.074  21.463  0.00  0.00    +0.000 C 
ATOM     26  O   UNL     1       9.583  -0.299  21.144  0.00  0.00    +0.000 OA
ATOM     27  C   UNL     1       8.208  -0.978  23.701  0.00  0.00    +0.000 C 
ATOM     28  C   UNL     1       8.056  -2.324  24.380  0.00  0.00    +0.000 C 
BRANCH  25  29
ATOM     29  C   UNL     1       7.571   0.886  20.694  0.00  0.00    +0.000 C 
ATOM     30 CL   UNL     1       7.416   0.385  19.002  0.00  0.00    +0.000 Cl
ENDBRANCH  25  29
ENDBRANCH  18  19
ENDBRANCH   5  18
TORSDOF 5
ENDMDL
