MODEL 1
REMARK VINA RESULT:      -8.6      0.000      0.000
REMARK  Name = 
REMARK  6 active torsions:
REMARK  status: ('A' for Active; 'I' for Inactive)
REMARK    1  A    between atoms: C_4  and  C_5
REMARK    2  A    between atoms: C_5  and  C_8
REMARK    3  A    between atoms: C_8  and  N_11
REMARK    4  A    between atoms: C_13  and  C_15
REMARK    5  A    between atoms: C_24  and  N_25
REMARK    6  A    between atoms: N_36  and  C_37
REMARK                            x       y       z     vdW  Elec       q    Type
REMARK                         _______ _______ _______ _____ _____    ______ ____
ROOT
ATOM      1  C   UNL     1      10.466   1.851  22.998  0.00  0.00    +0.000 C 
ATOM      2  C   UNL     1       9.491   1.144  22.215  0.00  0.00    +0.000 C 
ATOM      3  C   UNL     1       8.377   1.335  21.312  0.00  0.00    +0.000 C 
ATOM      4  C   UNL     1       8.540  -0.003  20.806  0.00  0.00    +0.000 C 
ATOM      5  N   UNL     1       9.744  -0.695  21.261  0.00  0.00    +0.000 N 
ATOM      6  H   UNL     1      10.424  -0.287  20.722  0.00  0.00    +0.000 HD
ATOM      7  C   UNL     1       9.768  -0.331  22.480  0.00  0.00    +0.000 C 
ATOM      8  C   UNL     1      10.396  -0.554  23.621  0.00  0.00    +0.000 C 
ATOM      9  C   UNL     1      10.659   0.914  24.178  0.00  0.00    +0.000 C 
ATOM     10  F   UNL     1      11.953   0.937  24.577  0.00  0.00    +0.000 F 
ENDROOT
BRANCH   8  11
ATOM     11  N   UNL     1       9.428  -1.187  24.472  0.00  0.00    +0.000 N 
ATOM     12  H   UNL     1       9.791  -1.144  25.350  0.00  0.00    +0.000 HD
ATOM     13  C   UNL     1       9.301  -2.440  24.054  0.00  0.00    +0.000 C 
ATOM     14  O   UNL     1      10.222  -3.213  23.938  0.00  0.00    +0.000 OA
ATOM     15  N   UNL     1       8.027  -2.801  23.819  0.00  0.00    +0.000 N 
ATOM     16  C   UNL     1       7.786  -3.887  22.850  0.00  0.00    +0.000 C 
ATOM     17  C   UNL     1       7.786  -5.213  23.615  0.00  0.00    +0.000 C 
ATOM     18  N   UNL     1       7.776  -5.044  24.979  0.00  0.00    +0.000 NA
ATOM     19  C   UNL     1       8.944  -4.963  25.713  0.00  0.00    +0.000 C 
ATOM     20  C   UNL     1       6.789  -4.137  25.421  0.00  0.00    +0.000 C 
ATOM     21  C   UNL     1       7.055  -2.729  24.919  0.00  0.00    +0.000 C 
ENDBRANCH   8  11
BRANCH   3  22
ATOM     22  C   UNL     1       7.156   1.831  22.152  0.00  0.00    +0.000 C 
BRANCH  22  23
ATOM     23  C   UNL     1       6.110   2.372  21.255  0.00  0.00    +0.000 C 
BRANCH  23  24
ATOM     24  N   UNL     1       5.636   1.249  20.433  0.00  0.00    +0.000 N 
ATOM     25  H   UNL     1       6.172   0.454  20.414  0.00  0.00    +0.000 HD
ATOM     26  C   UNL     1       5.125   1.488  19.212  0.00  0.00    +0.000 C 
ATOM     27  O   UNL     1       3.977   1.911  19.112  0.00  0.00    +0.000 OA
ATOM     28  C   UNL     1       5.794   0.829  18.034  0.00  0.00    +0.000 C 
ENDBRANCH  23  24
ENDBRANCH  22  23
ENDBRANCH   3  22
TORSDOF 4
ENDMDL
MODEL 2
REMARK VINA RESULT:      -8.2      2.080      2.780
REMARK  Name = 
REMARK  6 active torsions:
REMARK  status: ('A' for Active; 'I' for Inactive)
REMARK    1  A    between atoms: C_4  and  C_5
REMARK    2  A    between atoms: C_5  and  C_8
REMARK    3  A    between atoms: C_8  and  N_11
REMARK    4  A    between atoms: C_13  and  C_15
REMARK    5  A    between atoms: C_24  and  N_25
REMARK    6  A    between atoms: N_36  and  C_37
REMARK                            x       y       z     vdW  Elec       q    Type
REMARK                         _______ _______ _______ _____ _____    ______ ____
ROOT
ATOM      1  C   UNL     1      10.453   1.878  22.920  0.00  0.00    +0.000 C 
ATOM      2  C   UNL     1       9.463   1.167  22.158  0.00  0.00    +0.000 C 
ATOM      3  C   UNL     1       8.342   1.355  21.265  0.00  0.00    +0.000 C 
ATOM      4  C   UNL     1       8.487   0.008  20.777  0.00  0.00    +0.000 C 
ATOM      5  N   UNL     1       9.690  -0.688  21.229  0.00  0.00    +0.000 N 
ATOM      6  H   UNL     1      10.368  -0.294  20.676  0.00  0.00    +0.000 HD
ATOM      7  C   UNL     1       9.731  -0.306  22.442  0.00  0.00    +0.000 C 
ATOM      8  C   UNL     1      10.369  -0.518  23.579  0.00  0.00    +0.000 C 
ATOM      9  C   UNL     1      10.652   0.957  24.111  0.00  0.00    +0.000 C 
ATOM     10  F   UNL     1      11.950   0.974  24.495  0.00  0.00    +0.000 F 
ENDROOT
BRANCH   8  11
ATOM     11  N   UNL     1       9.406  -1.130  24.451  0.00  0.00    +0.000 N 
ATOM     12  H   UNL     1       9.776  -1.070  25.325  0.00  0.00    +0.000 HD
ATOM     13  C   UNL     1       9.272  -2.391  24.059  0.00  0.00    +0.000 C 
ATOM     14  O   UNL     1      10.189  -3.169  23.952  0.00  0.00    +0.000 OA
ATOM     15  N   UNL     1       7.995  -2.751  23.841  0.00  0.00    +0.000 N 
ATOM     16  C   UNL     1       7.743  -3.856  22.897  0.00  0.00    +0.000 C 
ATOM     17  C   UNL     1       7.744  -5.166  23.689  0.00  0.00    +0.000 C 
ATOM     18  N   UNL     1       7.745  -4.969  25.049  0.00  0.00    +0.000 NA
ATOM     19  C   UNL     1       8.918  -4.877  25.772  0.00  0.00    +0.000 C 
ATOM     20  C   UNL     1       6.765  -4.049  25.480  0.00  0.00    +0.000 C 
ATOM     21  C   UNL     1       7.031  -2.653  24.947  0.00  0.00    +0.000 C 
ENDBRANCH   8  11
BRANCH   3  22
ATOM     22  C   UNL     1       7.134   1.874  22.111  0.00  0.00    +0.000 C 
BRANCH  22  23
ATOM     23  C   UNL     1       6.711   0.837  23.079  0.00  0.00    +0.000 C 
BRANCH  23  24
ATOM     24  N   UNL     1       6.397   1.534  24.334  0.00  0.00    +0.000 N 
ATOM     25  H   UNL     1       5.864   2.330  24.281  0.00  0.00    +0.000 HD
ATOM     26  C   UNL     1       7.353   1.684  25.269  0.00  0.00    +0.000 C 
ATOM     27  O   UNL     1       7.644   0.734  25.989  0.00  0.00    +0.000 OA
ATOM     28  C   UNL     1       7.707   3.088  25.687  0.00  0.00    +0.000 C 
ENDBRANCH  23  24
ENDBRANCH  22  23
ENDBRANCH   3  22
TORSDOF 4
ENDMDL
MODEL 3
REMARK VINA RESULT:      -8.1      2.235      3.220
REMARK  Name = 
REMARK  6 active torsions:
REMARK  status: ('A' for Active; 'I' for Inactive)
REMARK    1  A    between atoms: C_4  and  C_5
REMARK    2  A    between atoms: C_5  and  C_8
REMARK    3  A    between atoms: C_8  and  N_11
REMARK    4  A    between atoms: C_13  and  C_15
REMARK    5  A    between atoms: C_24  and  N_25
REMARK    6  A    between atoms: N_36  and  C_37
REMARK                            x       y       z     vdW  Elec       q    Type
REMARK                         _______ _______ _______ _____ _____    ______ ____
ROOT
ATOM      1  C   UNL     1       8.137   2.611  24.959  0.00  0.00    +0.000 C 
ATOM      2  C   UNL     1       9.292   1.885  24.507  0.00  0.00    +0.000 C 
ATOM      3  C   UNL     1      10.509   2.017  23.736  0.00  0.00    +0.000 C 
ATOM      4  C   UNL     1      11.066   0.863  24.392  0.00  0.00    +0.000 C 
ATOM      5  N   UNL     1      10.287   0.355  25.519  0.00  0.00    +0.000 N 
ATOM      6  H   UNL     1      10.497   0.988  26.208  0.00  0.00    +0.000 HD
ATOM      7  C   UNL     1       9.109   0.474  25.053  0.00  0.00    +0.000 C 
ATOM      8  C   UNL     1       7.850   0.167  25.313  0.00  0.00    +0.000 C 
ATOM      9  C   UNL     1       7.078   1.523  24.995  0.00  0.00    +0.000 C 
ATOM     10  F   UNL     1       6.240   1.730  26.039  0.00  0.00    +0.000 F 
ENDROOT
BRANCH   8  11
ATOM     11  N   UNL     1       7.480  -0.801  24.319  0.00  0.00    +0.000 N 
ATOM     12  H   UNL     1       6.557  -0.649  24.145  0.00  0.00    +0.000 HD
ATOM     13  C   UNL     1       7.689  -2.001  24.847  0.00  0.00    +0.000 C 
ATOM     14  O   UNL     1       7.213  -2.375  25.893  0.00  0.00    +0.000 OA
ATOM     15  N   UNL     1       8.445  -2.801  24.075  0.00  0.00    +0.000 N 
ATOM     16  C   UNL     1       9.212  -3.873  24.738  0.00  0.00    +0.000 C 
ATOM     17  C   UNL     1       8.331  -5.125  24.785  0.00  0.00    +0.000 C 
ATOM     18  N   UNL     1       7.192  -5.007  24.025  0.00  0.00    +0.000 NA
ATOM     19  C   UNL     1       6.011  -4.518  24.550  0.00  0.00    +0.000 C 
ATOM     20  C   UNL     1       7.442  -4.541  22.716  0.00  0.00    +0.000 C 
ATOM     21  C   UNL     1       7.982  -3.123  22.718  0.00  0.00    +0.000 C 
ENDBRANCH   8  11
BRANCH   3  22
ATOM     22  C   UNL     1      10.115   2.083  22.224  0.00  0.00    +0.000 C 
BRANCH  22  23
ATOM     23  C   UNL     1       9.673   0.750  21.756  0.00  0.00    +0.000 C 
BRANCH  23  24
ATOM     24  N   UNL     1       8.539   0.975  20.849  0.00  0.00    +0.000 N 
ATOM     25  H   UNL     1       8.605   1.702  20.226  0.00  0.00    +0.000 HD
ATOM     26  C   UNL     1       7.282   0.887  21.319  0.00  0.00    +0.000 C 
ATOM     27  O   UNL     1       6.784  -0.220  21.500  0.00  0.00    +0.000 OA
ATOM     28  C   UNL     1       6.400   2.102  21.190  0.00  0.00    +0.000 C 
ENDBRANCH  23  24
ENDBRANCH  22  23
ENDBRANCH   3  22
TORSDOF 4
ENDMDL
MODEL 4
REMARK VINA RESULT:      -8.1      2.109      2.620
REMARK  Name = 
REMARK  6 active torsions:
REMARK  status: ('A' for Active; 'I' for Inactive)
REMARK    1  A    between atoms: C_4  and  C_5
REMARK    2  A    between atoms: C_5  and  C_8
REMARK    3  A    between atoms: C_8  and  N_11
REMARK    4  A    between atoms: C_13  and  C_15
REMARK    5  A    between atoms: C_24  and  N_25
REMARK    6  A    between atoms: N_36  and  C_37
REMARK                            x       y       z     vdW  Elec       q    Type
REMARK                         _______ _______ _______ _____ _____    ______ ____
ROOT
ATOM      1  C   UNL     1       9.955   0.306  25.134  0.00  0.00    +0.000 C 
ATOM      2  C   UNL     1       9.864  -0.198  23.791  0.00  0.00    +0.000 C 
ATOM      3  C   UNL     1      10.015   0.181  22.404  0.00  0.00    +0.000 C 
ATOM      4  C   UNL     1      10.174  -1.200  22.029  0.00  0.00    +0.000 C 
ATOM      5  N   UNL     1      10.304  -2.134  23.146  0.00  0.00    +0.000 N 
ATOM      6  H   UNL     1      11.210  -1.987  23.424  0.00  0.00    +0.000 HD
ATOM      7  C   UNL     1       9.438  -1.653  23.945  0.00  0.00    +0.000 C 
ATOM      8  C   UNL     1       8.821  -1.906  25.086  0.00  0.00    +0.000 C 
ATOM      9  C   UNL     1       8.889  -0.509  25.847  0.00  0.00    +0.000 C 
ATOM     10  F   UNL     1       9.292  -0.789  27.109  0.00  0.00    +0.000 F 
ENDROOT
BRANCH   8  11
ATOM     11  N   UNL     1       7.451  -2.155  24.733  0.00  0.00    +0.000 N 
ATOM     12  H   UNL     1       6.945  -1.952  25.512  0.00  0.00    +0.000 HD
ATOM     13  C   UNL     1       7.360  -3.439  24.408  0.00  0.00    +0.000 C 
ATOM     14  O   UNL     1       7.706  -4.347  25.126  0.00  0.00    +0.000 OA
ATOM     15  N   UNL     1       6.786  -3.649  23.211  0.00  0.00    +0.000 N 
ATOM     16  C   UNL     1       7.127  -4.891  22.491  0.00  0.00    +0.000 C 
ATOM     17  C   UNL     1       6.127  -5.971  22.911  0.00  0.00    +0.000 C 
ATOM     18  N   UNL     1       5.072  -5.471  23.637  0.00  0.00    +0.000 NA
ATOM     19  C   UNL     1       5.109  -5.390  25.015  0.00  0.00    +0.000 C 
ATOM     20  C   UNL     1       4.469  -4.345  23.039  0.00  0.00    +0.000 C 
ATOM     21  C   UNL     1       5.418  -3.162  22.984  0.00  0.00    +0.000 C 
ENDBRANCH   8  11
BRANCH   3  22
ATOM     22  C   UNL     1       8.796   1.079  22.014  0.00  0.00    +0.000 C 
BRANCH  22  23
ATOM     23  C   UNL     1       7.786   0.275  21.289  0.00  0.00    +0.000 C 
BRANCH  23  24
ATOM     24  N   UNL     1       7.435   1.030  20.078  0.00  0.00    +0.000 N 
ATOM     25  H   UNL     1       6.926   1.836  20.188  0.00  0.00    +0.000 HD
ATOM     26  C   UNL     1       7.020   0.372  18.980  0.00  0.00    +0.000 C 
ATOM     27  O   UNL     1       7.847  -0.188  18.267  0.00  0.00    +0.000 OA
ATOM     28  C   UNL     1       5.655   0.708  18.438  0.00  0.00    +0.000 C 
ENDBRANCH  23  24
ENDBRANCH  22  23
ENDBRANCH   3  22
TORSDOF 4
ENDMDL
MODEL 5
REMARK VINA RESULT:      -7.8      2.681      4.607
REMARK  Name = 
REMARK  6 active torsions:
REMARK  status: ('A' for Active; 'I' for Inactive)
REMARK    1  A    between atoms: C_4  and  C_5
REMARK    2  A    between atoms: C_5  and  C_8
REMARK    3  A    between atoms: C_8  and  N_11
REMARK    4  A    between atoms: C_13  and  C_15
REMARK    5  A    between atoms: C_24  and  N_25
REMARK    6  A    between atoms: N_36  and  C_37
REMARK                            x       y       z     vdW  Elec       q    Type
REMARK                         _______ _______ _______ _____ _____    ______ ____
ROOT
ATOM      1  C   UNL     1       7.599   0.872  19.705  0.00  0.00    +0.000 C 
ATOM      2  C   UNL     1       7.752   1.253  21.083  0.00  0.00    +0.000 C 
ATOM      3  C   UNL     1       8.497   2.126  21.962  0.00  0.00    +0.000 C 
ATOM      4  C   UNL     1       7.475   2.008  22.969  0.00  0.00    +0.000 C 
ATOM      5  N   UNL     1       6.257   1.323  22.537  0.00  0.00    +0.000 N 
ATOM      6  H   UNL     1       5.823   2.000  22.014  0.00  0.00    +0.000 HD
ATOM      7  C   UNL     1       6.759   0.382  21.844  0.00  0.00    +0.000 C 
ATOM      8  C   UNL     1       6.435  -0.730  21.209  0.00  0.00    +0.000 C 
ATOM      9  C   UNL     1       7.214  -0.592  19.826  0.00  0.00    +0.000 C 
ATOM     10  F   UNL     1       6.322  -0.915  18.860  0.00  0.00    +0.000 F 
ENDROOT
BRANCH   8  11
ATOM     11  N   UNL     1       7.044  -1.791  21.960  0.00  0.00    +0.000 N 
ATOM     12  H   UNL     1       7.835  -2.022  21.483  0.00  0.00    +0.000 HD
ATOM     13  C   UNL     1       6.177  -2.796  21.988  0.00  0.00    +0.000 C 
ATOM     14  O   UNL     1       5.691  -3.300  21.004  0.00  0.00    +0.000 OA
ATOM     15  N   UNL     1       5.925  -3.252  23.227  0.00  0.00    +0.000 N 
ATOM     16  C   UNL     1       4.630  -3.915  23.467  0.00  0.00    +0.000 C 
ATOM     17  C   UNL     1       4.807  -5.411  23.194  0.00  0.00    +0.000 C 
ATOM     18  N   UNL     1       6.123  -5.774  23.031  0.00  0.00    +0.000 NA
ATOM     19  C   UNL     1       6.730  -5.779  21.790  0.00  0.00    +0.000 C 
ATOM     20  C   UNL     1       6.966  -5.282  24.050  0.00  0.00    +0.000 C 
ATOM     21  C   UNL     1       7.040  -3.766  24.035  0.00  0.00    +0.000 C 
ENDBRANCH   8  11
BRANCH   3  22
ATOM     22  C   UNL     1       9.948   1.557  22.090  0.00  0.00    +0.000 C 
BRANCH  22  23
ATOM     23  C   UNL     1      10.412   1.663  23.492  0.00  0.00    +0.000 C 
BRANCH  23  24
ATOM     24  N   UNL     1      10.769   0.304  23.923  0.00  0.00    +0.000 N 
ATOM     25  H   UNL     1      11.667   0.008  23.765  0.00  0.00    +0.000 HD
ATOM     26  C   UNL     1       9.909  -0.709  23.711  0.00  0.00    +0.000 C 
ATOM     27  O   UNL     1       8.939  -0.839  24.452  0.00  0.00    +0.000 OA
ATOM     28  C   UNL     1      10.388  -1.870  22.880  0.00  0.00    +0.000 C 
ENDBRANCH  23  24
ENDBRANCH  22  23
ENDBRANCH   3  22
TORSDOF 4
ENDMDL
MODEL 6
REMARK VINA RESULT:      -7.5      2.883      3.925
REMARK  Name = 
REMARK  6 active torsions:
REMARK  status: ('A' for Active; 'I' for Inactive)
REMARK    1  A    between atoms: C_4  and  C_5
REMARK    2  A    between atoms: C_5  and  C_8
REMARK    3  A    between atoms: C_8  and  N_11
REMARK    4  A    between atoms: C_13  and  C_15
REMARK    5  A    between atoms: C_24  and  N_25
REMARK    6  A    between atoms: N_36  and  C_37
REMARK                            x       y       z     vdW  Elec       q    Type
REMARK                         _______ _______ _______ _____ _____    ______ ____
ROOT
ATOM      1  C   UNL     1      10.551  -0.334  23.163  0.00  0.00    +0.000 C 
ATOM      2  C   UNL     1       9.519   0.274  22.370  0.00  0.00    +0.000 C 
ATOM      3  C   UNL     1       8.943   1.550  22.009  0.00  0.00    +0.000 C 
ATOM      4  C   UNL     1       8.360   0.970  20.828  0.00  0.00    +0.000 C 
ATOM      5  N   UNL     1       8.791  -0.396  20.533  0.00  0.00    +0.000 N 
ATOM      6  H   UNL     1       9.666  -0.255  20.168  0.00  0.00    +0.000 HD
ATOM      7  C   UNL     1       8.796  -0.891  21.705  0.00  0.00    +0.000 C 
ATOM      8  C   UNL     1       8.930  -2.035  22.351  0.00  0.00    +0.000 C 
ATOM      9  C   UNL     1       9.913  -1.658  23.547  0.00  0.00    +0.000 C 
ATOM     10  F   UNL     1      10.853  -2.631  23.580  0.00  0.00    +0.000 F 
ENDROOT
BRANCH   8  11
ATOM     11  N   UNL     1       7.637  -2.315  22.908  0.00  0.00    +0.000 N 
ATOM     12  H   UNL     1       7.680  -2.028  23.814  0.00  0.00    +0.000 HD
ATOM     13  C   UNL     1       7.448  -3.625  22.816  0.00  0.00    +0.000 C 
ATOM     14  O   UNL     1       8.206  -4.453  23.263  0.00  0.00    +0.000 OA
ATOM     15  N   UNL     1       6.289  -3.960  22.222  0.00  0.00    +0.000 N 
ATOM     16  C   UNL     1       6.212  -5.273  21.554  0.00  0.00    +0.000 C 
ATOM     17  C   UNL     1       5.723  -6.298  22.580  0.00  0.00    +0.000 C 
ATOM     18  N   UNL     1       5.276  -5.719  23.744  0.00  0.00    +0.000 NA
ATOM     19  C   UNL     1       6.119  -5.491  24.815  0.00  0.00    +0.000 C 
ATOM     20  C   UNL     1       4.369  -4.660  23.527  0.00  0.00    +0.000 C 
ATOM     21  C   UNL     1       5.027  -3.494  22.813  0.00  0.00    +0.000 C 
ENDBRANCH   8  11
BRANCH   3  22
ATOM     22  C   UNL     1       8.134   2.079  23.238  0.00  0.00    +0.000 C 
BRANCH  22  23
ATOM     23  C   UNL     1       9.000   2.923  24.090  0.00  0.00    +0.000 C 
BRANCH  23  24
ATOM     24  N   UNL     1       9.768   3.791  23.185  0.00  0.00    +0.000 N 
ATOM     25  H   UNL     1      10.125   3.396  22.387  0.00  0.00    +0.000 HD
ATOM     26  C   UNL     1      10.647   4.672  23.695  0.00  0.00    +0.000 C 
ATOM     27  O   UNL     1      10.234   5.720  24.183  0.00  0.00    +0.000 OA
ATOM     28  C   UNL     1      12.086   4.552  23.264  0.00  0.00    +0.000 C 
ENDBRANCH  23  24
ENDBRANCH  22  23
ENDBRANCH   3  22
TORSDOF 4
ENDMDL
MODEL 7
REMARK VINA RESULT:      -7.3      3.171      7.310
REMARK  Name = 
REMARK  6 active torsions:
REMARK  status: ('A' for Active; 'I' for Inactive)
REMARK    1  A    between atoms: C_4  and  C_5
REMARK    2  A    between atoms: C_5  and  C_8
REMARK    3  A    between atoms: C_8  and  N_11
REMARK    4  A    between atoms: C_13  and  C_15
REMARK    5  A    between atoms: C_24  and  N_25
REMARK    6  A    between atoms: N_36  and  C_37
REMARK                            x       y       z     vdW  Elec       q    Type
REMARK                         _______ _______ _______ _____ _____    ______ ____
ROOT
ATOM      1  C   UNL     1       7.036  -5.248  23.694  0.00  0.00    +0.000 C 
ATOM      2  C   UNL     1       7.744  -4.897  24.893  0.00  0.00    +0.000 C 
ATOM      3  C   UNL     1       7.868  -5.222  26.297  0.00  0.00    +0.000 C 
ATOM      4  C   UNL     1       9.174  -4.619  26.337  0.00  0.00    +0.000 C 
ATOM      5  N   UNL     1       9.718  -4.235  25.035  0.00  0.00    +0.000 N 
ATOM      6  H   UNL     1       9.996  -5.081  24.678  0.00  0.00    +0.000 HD
ATOM      7  C   UNL     1       8.675  -3.762  24.483  0.00  0.00    +0.000 C 
ATOM      8  C   UNL     1       8.271  -3.109  23.408  0.00  0.00    +0.000 C 
ATOM      9  C   UNL     1       6.969  -3.915  22.968  0.00  0.00    +0.000 C 
ATOM     10  F   UNL     1       7.083  -4.111  21.633  0.00  0.00    +0.000 F 
ENDROOT
BRANCH   8  11
ATOM     11  N   UNL     1       7.857  -1.817  23.877  0.00  0.00    +0.000 N 
ATOM     12  H   UNL     1       7.071  -1.605  23.385  0.00  0.00    +0.000 HD
ATOM     13  C   UNL     1       8.846  -0.972  23.612  0.00  0.00    +0.000 C 
ATOM     14  O   UNL     1       9.322  -0.808  22.514  0.00  0.00    +0.000 OA
ATOM     15  N   UNL     1       9.242  -0.257  24.680  0.00  0.00    +0.000 N 
ATOM     16  C   UNL     1      10.625   0.254  24.692  0.00  0.00    +0.000 C 
ATOM     17  C   UNL     1      10.623   1.641  24.045  0.00  0.00    +0.000 C 
ATOM     18  N   UNL     1       9.356   2.134  23.840  0.00  0.00    +0.000 NA
ATOM     19  C   UNL     1       8.669   1.911  22.663  0.00  0.00    +0.000 C 
ATOM     20  C   UNL     1       8.531   2.042  24.981  0.00  0.00    +0.000 C 
ATOM     21  C   UNL     1       8.262   0.598  25.364  0.00  0.00    +0.000 C 
ENDBRANCH   8  11
BRANCH   3  22
ATOM     22  C   UNL     1       6.604  -4.668  27.033  0.00  0.00    +0.000 C 
BRANCH  22  23
ATOM     23  C   UNL     1       6.174  -5.615  28.086  0.00  0.00    +0.000 C 
BRANCH  23  24
ATOM     24  N   UNL     1       5.631  -6.794  27.398  0.00  0.00    +0.000 N 
ATOM     25  H   UNL     1       6.223  -7.291  26.829  0.00  0.00    +0.000 HD
ATOM     26  C   UNL     1       4.406  -6.736  26.845  0.00  0.00    +0.000 C 
ATOM     27  O   UNL     1       3.416  -6.828  27.565  0.00  0.00    +0.000 OA
ATOM     28  C   UNL     1       4.294  -7.001  25.366  0.00  0.00    +0.000 C 
ENDBRANCH  23  24
ENDBRANCH  22  23
ENDBRANCH   3  22
TORSDOF 4
ENDMDL
MODEL 8
REMARK VINA RESULT:      -7.3      2.783      6.553
REMARK  Name = 
REMARK  6 active torsions:
REMARK  status: ('A' for Active; 'I' for Inactive)
REMARK    1  A    between atoms: C_4  and  C_5
REMARK    2  A    between atoms: C_5  and  C_8
REMARK    3  A    between atoms: C_8  and  N_11
REMARK    4  A    between atoms: C_13  and  C_15
REMARK    5  A    between atoms: C_24  and  N_25
REMARK    6  A    between atoms: N_36  and  C_37
REMARK                            x       y       z     vdW  Elec       q    Type
REMARK                         _______ _______ _______ _____ _____    ______ ____
ROOT
ATOM      1  C   UNL     1       7.346  -5.508  26.781  0.00  0.00    +0.000 C 
ATOM      2  C   UNL     1       6.035  -5.213  26.272  0.00  0.00    +0.000 C 
ATOM      3  C   UNL     1       4.749  -5.808  25.983  0.00  0.00    +0.000 C 
ATOM      4  C   UNL     1       4.126  -4.511  26.012  0.00  0.00    +0.000 C 
ATOM      5  N   UNL     1       4.982  -3.423  26.482  0.00  0.00    +0.000 N 
ATOM      6  H   UNL     1       4.985  -3.567  27.430  0.00  0.00    +0.000 HD
ATOM      7  C   UNL     1       6.076  -3.733  25.911  0.00  0.00    +0.000 C 
ATOM      8  C   UNL     1       7.296  -3.279  25.681  0.00  0.00    +0.000 C 
ATOM      9  C   UNL     1       8.213  -4.544  25.989  0.00  0.00    +0.000 C 
ATOM     10  F   UNL     1       9.226  -4.092  26.766  0.00  0.00    +0.000 F 
ENDROOT
BRANCH   8  11
ATOM     11  N   UNL     1       7.349  -3.024  24.269  0.00  0.00    +0.000 N 
ATOM     12  H   UNL     1       7.846  -3.743  23.896  0.00  0.00    +0.000 HD
ATOM     13  C   UNL     1       7.969  -1.861  24.107  0.00  0.00    +0.000 C 
ATOM     14  O   UNL     1       9.065  -1.610  24.548  0.00  0.00    +0.000 OA
ATOM     15  N   UNL     1       7.284  -0.990  23.345  0.00  0.00    +0.000 N 
ATOM     16  C   UNL     1       7.537   0.449  23.548  0.00  0.00    +0.000 C 
ATOM     17  C   UNL     1       8.673   0.866  22.610  0.00  0.00    +0.000 C 
ATOM     18  N   UNL     1       8.994  -0.106  21.693  0.00  0.00    +0.000 NA
ATOM     19  C   UNL     1       9.957  -1.062  21.950  0.00  0.00    +0.000 C 
ATOM     20  C   UNL     1       7.870  -0.630  21.020  0.00  0.00    +0.000 C 
ATOM     21  C   UNL     1       6.942  -1.368  21.967  0.00  0.00    +0.000 C 
ENDBRANCH   8  11
BRANCH   3  22
ATOM     22  C   UNL     1       4.905  -6.697  24.707  0.00  0.00    +0.000 C 
BRANCH  22  23
ATOM     23  C   UNL     1       3.904  -6.305  23.690  0.00  0.00    +0.000 C 
BRANCH  23  24
ATOM     24  N   UNL     1       4.611  -6.240  22.403  0.00  0.00    +0.000 N 
ATOM     25  H   UNL     1       4.859  -7.069  21.988  0.00  0.00    +0.000 HD
ATOM     26  C   UNL     1       5.585  -5.329  22.224  0.00  0.00    +0.000 C 
ATOM     27  O   UNL     1       5.282  -4.161  21.999  0.00  0.00    +0.000 OA
ATOM     28  C   UNL     1       6.960  -5.836  21.873  0.00  0.00    +0.000 C 
ENDBRANCH  23  24
ENDBRANCH  22  23
ENDBRANCH   3  22
TORSDOF 4
ENDMDL
MODEL 9
REMARK VINA RESULT:      -7.2      3.158      6.845
REMARK  Name = 
REMARK  6 active torsions:
REMARK  status: ('A' for Active; 'I' for Inactive)
REMARK    1  A    between atoms: C_4  and  C_5
REMARK    2  A    between atoms: C_5  and  C_8
REMARK    3  A    between atoms: C_8  and  N_11
REMARK    4  A    between atoms: C_13  and  C_15
REMARK    5  A    between atoms: C_24  and  N_25
REMARK    6  A    between atoms: N_36  and  C_37
REMARK                            x       y       z     vdW  Elec       q    Type
REMARK                         _______ _______ _______ _____ _____    ______ ____
ROOT
ATOM      1  C   UNL     1       7.793  -0.141  19.649  0.00  0.00    +0.000 C 
ATOM      2  C   UNL     1       8.632  -0.042  20.811  0.00  0.00    +0.000 C 
ATOM      3  C   UNL     1       9.627  -0.756  21.580  0.00  0.00    +0.000 C 
ATOM      4  C   UNL     1      10.080   0.478  22.167  0.00  0.00    +0.000 C 
ATOM      5  N   UNL     1       9.509   1.689  21.580  0.00  0.00    +0.000 N 
ATOM      6  H   UNL     1      10.003   1.765  20.762  0.00  0.00    +0.000 HD
ATOM      7  C   UNL     1       8.303   1.316  21.419  0.00  0.00    +0.000 C 
ATOM      8  C   UNL     1       7.109   1.772  21.083  0.00  0.00    +0.000 C 
ATOM      9  C   UNL     1       6.575   0.662  20.072  0.00  0.00    +0.000 C 
ATOM     10  F   UNL     1       6.074   1.334  19.009  0.00  0.00    +0.000 F 
ENDROOT
BRANCH   8  11
ATOM     11  N   UNL     1       6.321   1.700  22.281  0.00  0.00    +0.000 N 
ATOM     12  H   UNL     1       5.432   1.525  21.993  0.00  0.00    +0.000 HD
ATOM     13  C   UNL     1       6.420   2.879  22.883  0.00  0.00    +0.000 C 
ATOM     14  O   UNL     1       6.158   3.934  22.356  0.00  0.00    +0.000 OA
ATOM     15  N   UNL     1       6.789   2.793  24.173  0.00  0.00    +0.000 N 
ATOM     16  C   UNL     1       7.474   3.954  24.772  0.00  0.00    +0.000 C 
ATOM     17  C   UNL     1       6.408   4.876  25.370  0.00  0.00    +0.000 C 
ATOM     18  N   UNL     1       5.160   4.301  25.403  0.00  0.00    +0.000 NA
ATOM     19  C   UNL     1       4.266   4.437  24.359  0.00  0.00    +0.000 C 
ATOM     20  C   UNL     1       5.159   3.003  25.957  0.00  0.00    +0.000 C 
ATOM     21  C   UNL     1       5.947   2.027  25.103  0.00  0.00    +0.000 C 
ENDBRANCH   8  11
BRANCH   3  22
ATOM     22  C   UNL     1       8.903  -1.903  22.357  0.00  0.00    +0.000 C 
BRANCH  22  23
ATOM     23  C   UNL     1       9.705  -2.302  23.536  0.00  0.00    +0.000 C 
BRANCH  23  24
ATOM     24  N   UNL     1       8.794  -3.007  24.448  0.00  0.00    +0.000 N 
ATOM     25  H   UNL     1       8.551  -2.566  25.265  0.00  0.00    +0.000 HD
ATOM     26  C   UNL     1       8.963  -4.323  24.672  0.00  0.00    +0.000 C 
ATOM     27  O   UNL     1       8.580  -5.130  23.830  0.00  0.00    +0.000 OA
ATOM     28  C   UNL     1       9.203  -4.766  26.092  0.00  0.00    +0.000 C 
ENDBRANCH  23  24
ENDBRANCH  22  23
ENDBRANCH   3  22
TORSDOF 4
ENDMDL
