MODEL 1
REMARK VINA RESULT:      -8.7      0.000      0.000
REMARK  Name = 
REMARK  4 active torsions:
REMARK  status: ('A' for Active; 'I' for Inactive)
REMARK    1  A    between atoms: O_2  and  C_3
REMARK    2  A    between atoms: C_12  and  N_13
REMARK    3  A    between atoms: C_15  and  C_17
REMARK    4  A    between atoms: C_36  and  C_38
REMARK                            x       y       z     vdW  Elec       q    Type
REMARK                         _______ _______ _______ _____ _____    ______ ____
ROOT
ATOM      1  C   UNL     1       9.016   1.726  23.359  0.00  0.00    +0.000 C 
ATOM      2  C   UNL     1       7.848   1.601  24.300  0.00  0.00    +0.000 C 
ATOM      3  C   UNL     1       7.999   0.445  25.258  0.00  0.00    +0.000 C 
ATOM      4  N   UNL     1       9.198  -0.340  24.945  0.00  0.00    +0.000 N 
ATOM      5  C   UNL     1       9.059  -1.531  24.360  0.00  0.00    +0.000 C 
ATOM      6  O   UNL     1       9.334  -1.609  23.175  0.00  0.00    +0.000 OA
ATOM      7  N   UNL     1       9.216  -2.567  25.194  0.00  0.00    +0.000 N 
ATOM      8  C   UNL     1       8.614  -2.554  26.535  0.00  0.00    +0.000 C 
ATOM      9  C   UNL     1       7.389  -3.461  26.523  0.00  0.00    +0.000 C 
ATOM     10  O   UNL     1       6.991  -3.743  25.257  0.00  0.00    +0.000 OA
ATOM     11  C   UNL     1       7.893  -4.477  24.549  0.00  0.00    +0.000 C 
ATOM     12  C   UNL     1       9.274  -3.925  24.609  0.00  0.00    +0.000 C 
ATOM     13  C   UNL     1      10.466   0.366  24.892  0.00  0.00    +0.000 C 
ATOM     14  C   UNL     1      10.325   1.660  24.121  0.00  0.00    +0.000 C 
ENDROOT
BRANCH  11  15
ATOM     15  C   UNL     1       7.408  -4.610  23.084  0.00  0.00    +0.000 A 
ATOM     16  C   UNL     1       6.160  -3.764  23.043  0.00  0.00    +0.000 A 
ATOM     17  C   UNL     1       4.768  -4.256  22.868  0.00  0.00    +0.000 A 
ATOM     18  C   UNL     1       4.717  -5.729  22.553  0.00  0.00    +0.000 A 
ATOM     19  F   UNL     1       3.954  -6.263  23.631  0.00  0.00    +0.000 F 
ATOM     20  C   UNL     1       5.867  -6.599  22.232  0.00  0.00    +0.000 A 
ATOM     21  C   UNL     1       7.249  -5.913  22.422  0.00  0.00    +0.000 A 
ENDBRANCH  11  15
BRANCH   1  24
ATOM     22  N   UNL     1       7.807   0.269  21.810  0.00  0.00    +0.000 N 
ATOM     23  H   UNL     1       7.853  -0.640  21.517  0.00  0.00    +0.000 HD
ATOM     24  C   UNL     1       8.983   0.694  22.290  0.00  0.00    +0.000 C 
ATOM     25  O   UNL     1      10.032   0.346  21.731  0.00  0.00    +0.000 OA
BRANCH  22  31
ATOM     26  C   UNL     1       7.197   0.240  19.433  0.00  0.00    +0.000 A 
ATOM     27  C   UNL     1       5.737   0.388  19.034  0.00  0.00    +0.000 A 
ATOM     28  C   UNL     1       4.726   1.351  19.568  0.00  0.00    +0.000 A 
ATOM     29  C   UNL     1       5.465   2.142  20.589  0.00  0.00    +0.000 A 
ATOM     30  C   UNL     1       6.738   2.278  21.164  0.00  0.00    +0.000 A 
ATOM     31  C   UNL     1       7.502   0.994  20.647  0.00  0.00    +0.000 A 
BRANCH  26  33
ATOM     32  H   UNL     1       7.535  -0.304  17.658  0.00  0.00    +0.000 HD
ATOM     33  O   UNL     1       7.777   0.411  18.219  0.00  0.00    +0.000 OA
ENDBRANCH  26  33
ENDBRANCH  22  31
ENDBRANCH   1  24
TORSDOF 4
ENDMDL
MODEL 2
REMARK VINA RESULT:      -7.7      2.397      6.316
REMARK  Name = 
REMARK  4 active torsions:
REMARK  status: ('A' for Active; 'I' for Inactive)
REMARK    1  A    between atoms: O_2  and  C_3
REMARK    2  A    between atoms: C_12  and  N_13
REMARK    3  A    between atoms: C_15  and  C_17
REMARK    4  A    between atoms: C_36  and  C_38
REMARK                            x       y       z     vdW  Elec       q    Type
REMARK                         _______ _______ _______ _____ _____    ______ ____
ROOT
ATOM      1  C   UNL     1       8.530  -2.768  25.749  0.00  0.00    +0.000 C 
ATOM      2  C   UNL     1       9.690  -2.672  24.796  0.00  0.00    +0.000 C 
ATOM      3  C   UNL     1       9.972  -1.253  24.369  0.00  0.00    +0.000 C 
ATOM      4  N   UNL     1       8.958  -0.336  24.902  0.00  0.00    +0.000 N 
ATOM      5  C   UNL     1       8.033   0.160  24.076  0.00  0.00    +0.000 C 
ATOM      6  O   UNL     1       6.908  -0.300  24.155  0.00  0.00    +0.000 OA
ATOM      7  N   UNL     1       8.257   1.428  23.709  0.00  0.00    +0.000 N 
ATOM      8  C   UNL     1       9.606   1.879  23.338  0.00  0.00    +0.000 C 
ATOM      9  C   UNL     1       9.670   2.010  21.820  0.00  0.00    +0.000 C 
ATOM     10  O   UNL     1       8.636   1.368  21.221  0.00  0.00    +0.000 OA
ATOM     11  C   UNL     1       7.418   1.908  21.501  0.00  0.00    +0.000 C 
ATOM     12  C   UNL     1       7.194   2.129  22.955  0.00  0.00    +0.000 C 
ATOM     13  C   UNL     1       8.742  -0.337  26.338  0.00  0.00    +0.000 C 
ATOM     14  C   UNL     1       8.670  -1.752  26.867  0.00  0.00    +0.000 C 
ENDROOT
BRANCH  11  15
ATOM     15  C   UNL     1       6.309   1.014  20.893  0.00  0.00    +0.000 A 
ATOM     16  C   UNL     1       7.074   0.005  20.074  0.00  0.00    +0.000 A 
ATOM     17  C   UNL     1       7.075  -0.106  18.590  0.00  0.00    +0.000 A 
ATOM     18  C   UNL     1       6.069   0.815  17.948  0.00  0.00    +0.000 A 
ATOM     19  F   UNL     1       6.877   1.647  17.120  0.00  0.00    +0.000 F 
ATOM     20  C   UNL     1       5.029   1.602  18.642  0.00  0.00    +0.000 A 
ATOM     21  C   UNL     1       5.144   1.571  20.191  0.00  0.00    +0.000 A 
ENDBRANCH  11  15
BRANCH   1  24
ATOM     22  N   UNL     1       7.080  -3.035  23.796  0.00  0.00    +0.000 N 
ATOM     23  H   UNL     1       6.445  -2.506  23.313  0.00  0.00    +0.000 HD
ATOM     24  C   UNL     1       7.225  -2.603  25.056  0.00  0.00    +0.000 C 
ATOM     25  O   UNL     1       6.231  -2.217  25.688  0.00  0.00    +0.000 OA
BRANCH  22  31
ATOM     26  C   UNL     1       5.119  -4.461  23.422  0.00  0.00    +0.000 A 
ATOM     27  C   UNL     1       4.981  -5.214  22.108  0.00  0.00    +0.000 A 
ATOM     28  C   UNL     1       6.029  -5.984  21.370  0.00  0.00    +0.000 A 
ATOM     29  C   UNL     1       7.251  -5.851  22.209  0.00  0.00    +0.000 A 
ATOM     30  C   UNL     1       7.703  -5.283  23.410  0.00  0.00    +0.000 A 
ATOM     31  C   UNL     1       6.518  -4.321  23.819  0.00  0.00    +0.000 A 
BRANCH  26  33
ATOM     32  H   UNL     1       3.994  -4.601  24.930  0.00  0.00    +0.000 HD
ATOM     33  O   UNL     1       4.144  -5.079  24.135  0.00  0.00    +0.000 OA
ENDBRANCH  26  33
ENDBRANCH  22  31
ENDBRANCH   1  24
TORSDOF 4
ENDMDL
MODEL 3
REMARK VINA RESULT:      -7.3      3.258      5.922
REMARK  Name = 
REMARK  4 active torsions:
REMARK  status: ('A' for Active; 'I' for Inactive)
REMARK    1  A    between atoms: O_2  and  C_3
REMARK    2  A    between atoms: C_12  and  N_13
REMARK    3  A    between atoms: C_15  and  C_17
REMARK    4  A    between atoms: C_36  and  C_38
REMARK                            x       y       z     vdW  Elec       q    Type
REMARK                         _______ _______ _______ _____ _____    ______ ____
ROOT
ATOM      1  C   UNL     1       7.102  -4.556  22.035  0.00  0.00    +0.000 C 
ATOM      2  C   UNL     1       7.914  -4.844  23.269  0.00  0.00    +0.000 C 
ATOM      3  C   UNL     1       7.054  -5.061  24.489  0.00  0.00    +0.000 C 
ATOM      4  N   UNL     1       5.641  -4.815  24.183  0.00  0.00    +0.000 N 
ATOM      5  C   UNL     1       5.066  -3.695  24.629  0.00  0.00    +0.000 C 
ATOM      6  O   UNL     1       4.857  -2.811  23.817  0.00  0.00    +0.000 OA
ATOM      7  N   UNL     1       4.279  -3.878  25.697  0.00  0.00    +0.000 N 
ATOM      8  C   UNL     1       4.702  -4.743  26.807  0.00  0.00    +0.000 C 
ATOM      9  C   UNL     1       5.138  -3.858  27.969  0.00  0.00    +0.000 C 
ATOM     10  O   UNL     1       5.349  -2.579  27.570  0.00  0.00    +0.000 OA
ATOM     11  C   UNL     1       4.223  -1.946  27.139  0.00  0.00    +0.000 C 
ATOM     12  C   UNL     1       3.447  -2.740  26.147  0.00  0.00    +0.000 C 
ATOM     13  C   UNL     1       5.054  -5.559  23.083  0.00  0.00    +0.000 C 
ATOM     14  C   UNL     1       5.980  -5.565  21.887  0.00  0.00    +0.000 C 
ENDROOT
BRANCH  11  15
ATOM     15  C   UNL     1       4.602  -0.557  26.570  0.00  0.00    +0.000 A 
ATOM     16  C   UNL     1       6.109  -0.586  26.532  0.00  0.00    +0.000 A 
ATOM     17  C   UNL     1       7.027   0.226  27.373  0.00  0.00    +0.000 A 
ATOM     18  C   UNL     1       6.291   1.254  28.194  0.00  0.00    +0.000 A 
ATOM     19  F   UNL     1       6.621   0.894  29.532  0.00  0.00    +0.000 F 
ATOM     20  C   UNL     1       4.864   1.616  28.075  0.00  0.00    +0.000 A 
ATOM     21  C   UNL     1       4.058   0.694  27.118  0.00  0.00    +0.000 A 
ENDBRANCH  11  15
BRANCH   1  24
ATOM     22  N   UNL     1       7.283  -2.175  22.565  0.00  0.00    +0.000 N 
ATOM     23  H   UNL     1       6.723  -1.490  22.930  0.00  0.00    +0.000 HD
ATOM     24  C   UNL     1       6.563  -3.172  22.035  0.00  0.00    +0.000 C 
ATOM     25  O   UNL     1       5.527  -2.909  21.406  0.00  0.00    +0.000 OA
BRANCH  22  31
ATOM     26  C   UNL     1       7.373  -0.377  20.897  0.00  0.00    +0.000 A 
ATOM     27  C   UNL     1       8.112   0.911  21.224  0.00  0.00    +0.000 A 
ATOM     28  C   UNL     1       9.448   1.070  21.875  0.00  0.00    +0.000 A 
ATOM     29  C   UNL     1       9.904  -0.322  22.138  0.00  0.00    +0.000 A 
ATOM     30  C   UNL     1       9.512  -1.658  21.964  0.00  0.00    +0.000 A 
ATOM     31  C   UNL     1       7.995  -1.533  21.539  0.00  0.00    +0.000 A 
BRANCH  26  33
ATOM     32  H   UNL     1       7.343   0.704  19.350  0.00  0.00    +0.000 HD
ATOM     33  O   UNL     1       7.200  -0.201  19.562  0.00  0.00    +0.000 OA
ENDBRANCH  26  33
ENDBRANCH  22  31
ENDBRANCH   1  24
TORSDOF 4
ENDMDL
MODEL 4
REMARK VINA RESULT:      -7.0      2.675      3.494
REMARK  Name = 
REMARK  4 active torsions:
REMARK  status: ('A' for Active; 'I' for Inactive)
REMARK    1  A    between atoms: O_2  and  C_3
REMARK    2  A    between atoms: C_12  and  N_13
REMARK    3  A    between atoms: C_15  and  C_17
REMARK    4  A    between atoms: C_36  and  C_38
REMARK                            x       y       z     vdW  Elec       q    Type
REMARK                         _______ _______ _______ _____ _____    ______ ____
ROOT
ATOM      1  C   UNL     1       8.941   2.388  23.109  0.00  0.00    +0.000 C 
ATOM      2  C   UNL     1       9.268   1.899  24.494  0.00  0.00    +0.000 C 
ATOM      3  C   UNL     1       9.601   0.428  24.525  0.00  0.00    +0.000 C 
ATOM      4  N   UNL     1       9.399  -0.181  23.206  0.00  0.00    +0.000 N 
ATOM      5  C   UNL     1       8.337  -0.965  23.007  0.00  0.00    +0.000 C 
ATOM      6  O   UNL     1       7.414  -0.505  22.359  0.00  0.00    +0.000 OA
ATOM      7  N   UNL     1       8.622  -2.274  23.006  0.00  0.00    +0.000 N 
ATOM      8  C   UNL     1       9.536  -2.848  24.005  0.00  0.00    +0.000 C 
ATOM      9  C   UNL     1       8.707  -3.592  25.045  0.00  0.00    +0.000 C 
ATOM     10  O   UNL     1       7.396  -3.246  24.979  0.00  0.00    +0.000 OA
ATOM     11  C   UNL     1       6.790  -3.614  23.817  0.00  0.00    +0.000 C 
ATOM     12  C   UNL     1       7.553  -3.215  22.604  0.00  0.00    +0.000 C 
ATOM     13  C   UNL     1      10.099   0.413  22.080  0.00  0.00    +0.000 C 
ATOM     14  C   UNL     1       9.987   1.922  22.116  0.00  0.00    +0.000 C 
ENDROOT
BRANCH  11  15
ATOM     15  C   UNL     1       5.352  -3.041  23.786  0.00  0.00    +0.000 A 
ATOM     16  C   UNL     1       5.356  -2.008  24.885  0.00  0.00    +0.000 A 
ATOM     17  C   UNL     1       4.605  -2.083  26.167  0.00  0.00    +0.000 A 
ATOM     18  C   UNL     1       3.661  -3.258  26.209  0.00  0.00    +0.000 A 
ATOM     19  F   UNL     1       4.129  -4.006  27.326  0.00  0.00    +0.000 F 
ATOM     20  C   UNL     1       3.311  -4.145  25.080  0.00  0.00    +0.000 A 
ATOM     21  C   UNL     1       4.159  -3.902  23.801  0.00  0.00    +0.000 A 
ENDBRANCH  11  15
BRANCH   1  24
ATOM     22  N   UNL     1       6.593   1.876  23.572  0.00  0.00    +0.000 N 
ATOM     23  H   UNL     1       5.960   1.200  23.335  0.00  0.00    +0.000 HD
ATOM     24  C   UNL     1       7.584   1.962  22.675  0.00  0.00    +0.000 C 
ATOM     25  O   UNL     1       7.328   1.843  21.469  0.00  0.00    +0.000 OA
BRANCH  22  31
ATOM     26  C   UNL     1       4.616   3.089  22.772  0.00  0.00    +0.000 A 
ATOM     27  C   UNL     1       3.393   3.202  23.670  0.00  0.00    +0.000 A 
ATOM     28  C   UNL     1       3.345   3.524  25.129  0.00  0.00    +0.000 A 
ATOM     29  C   UNL     1       4.769   3.711  25.518  0.00  0.00    +0.000 A 
ATOM     30  C   UNL     1       6.066   3.701  24.981  0.00  0.00    +0.000 A 
ATOM     31  C   UNL     1       5.854   3.069  23.548  0.00  0.00    +0.000 A 
BRANCH  26  33
ATOM     32  H   UNL     1       4.562   4.853  22.105  0.00  0.00    +0.000 HD
ATOM     33  O   UNL     1       4.281   4.001  21.825  0.00  0.00    +0.000 OA
ENDBRANCH  26  33
ENDBRANCH  22  31
ENDBRANCH   1  24
TORSDOF 4
ENDMDL
MODEL 5
REMARK VINA RESULT:      -7.0      3.053      7.115
REMARK  Name = 
REMARK  4 active torsions:
REMARK  status: ('A' for Active; 'I' for Inactive)
REMARK    1  A    between atoms: O_2  and  C_3
REMARK    2  A    between atoms: C_12  and  N_13
REMARK    3  A    between atoms: C_15  and  C_17
REMARK    4  A    between atoms: C_36  and  C_38
REMARK                            x       y       z     vdW  Elec       q    Type
REMARK                         _______ _______ _______ _____ _____    ______ ____
ROOT
ATOM      1  C   UNL     1       7.272  -5.148  25.277  0.00  0.00    +0.000 C 
ATOM      2  C   UNL     1       6.984  -4.867  23.828  0.00  0.00    +0.000 C 
ATOM      3  C   UNL     1       8.047  -4.013  23.181  0.00  0.00    +0.000 C 
ATOM      4  N   UNL     1       9.036  -3.572  24.171  0.00  0.00    +0.000 N 
ATOM      5  C   UNL     1       9.017  -2.303  24.587  0.00  0.00    +0.000 C 
ATOM      6  O   UNL     1       8.574  -2.084  25.700  0.00  0.00    +0.000 OA
ATOM      7  N   UNL     1       9.972  -1.540  24.040  0.00  0.00    +0.000 N 
ATOM      8  C   UNL     1      10.284  -1.632  22.607  0.00  0.00    +0.000 C 
ATOM      9  C   UNL     1       9.685  -0.419  21.904  0.00  0.00    +0.000 C 
ATOM     10  O   UNL     1       8.766   0.205  22.683  0.00  0.00    +0.000 OA
ATOM     11  C   UNL     1       9.291   0.762  23.810  0.00  0.00    +0.000 C 
ATOM     12  C   UNL     1      10.158  -0.173  24.577  0.00  0.00    +0.000 C 
ATOM     13  C   UNL     1       9.700  -4.596  24.958  0.00  0.00    +0.000 C 
ATOM     14  C   UNL     1       8.703  -5.619  25.457  0.00  0.00    +0.000 C 
ENDROOT
BRANCH  11  15
ATOM     15  C   UNL     1       8.143   1.310  24.693  0.00  0.00    +0.000 A 
ATOM     16  C   UNL     1       6.913   1.110  23.843  0.00  0.00    +0.000 A 
ATOM     17  C   UNL     1       6.083   2.181  23.228  0.00  0.00    +0.000 A 
ATOM     18  C   UNL     1       6.497   3.557  23.684  0.00  0.00    +0.000 A 
ATOM     19  F   UNL     1       6.861   4.203  22.468  0.00  0.00    +0.000 F 
ATOM     20  C   UNL     1       7.454   3.875  24.764  0.00  0.00    +0.000 A 
ATOM     21  C   UNL     1       8.201   2.635  25.328  0.00  0.00    +0.000 A 
ENDBRANCH  11  15
BRANCH   1  24
ATOM     22  N   UNL     1       5.975  -3.155  25.851  0.00  0.00    +0.000 N 
ATOM     23  H   UNL     1       6.151  -2.255  26.125  0.00  0.00    +0.000 HD
ATOM     24  C   UNL     1       7.000  -3.967  26.138  0.00  0.00    +0.000 C 
ATOM     25  O   UNL     1       7.614  -3.823  27.205  0.00  0.00    +0.000 OA
BRANCH  22  31
ATOM     26  C   UNL     1       4.572  -2.780  27.828  0.00  0.00    +0.000 A 
ATOM     27  C   UNL     1       3.287  -1.977  27.693  0.00  0.00    +0.000 A 
ATOM     28  C   UNL     1       2.244  -2.075  26.627  0.00  0.00    +0.000 A 
ATOM     29  C   UNL     1       2.740  -3.141  25.715  0.00  0.00    +0.000 A 
ATOM     30  C   UNL     1       3.804  -4.043  25.555  0.00  0.00    +0.000 A 
ATOM     31  C   UNL     1       4.862  -3.540  26.615  0.00  0.00    +0.000 A 
BRANCH  26  33
ATOM     32  H   UNL     1       4.190  -2.599  29.667  0.00  0.00    +0.000 HD
ATOM     33  O   UNL     1       4.380  -3.297  29.069  0.00  0.00    +0.000 OA
ENDBRANCH  26  33
ENDBRANCH  22  31
ENDBRANCH   1  24
TORSDOF 4
ENDMDL
MODEL 6
REMARK VINA RESULT:      -6.9      2.210      6.157
REMARK  Name = 
REMARK  4 active torsions:
REMARK  status: ('A' for Active; 'I' for Inactive)
REMARK    1  A    between atoms: O_2  and  C_3
REMARK    2  A    between atoms: C_12  and  N_13
REMARK    3  A    between atoms: C_15  and  C_17
REMARK    4  A    between atoms: C_36  and  C_38
REMARK                            x       y       z     vdW  Elec       q    Type
REMARK                         _______ _______ _______ _____ _____    ______ ____
ROOT
ATOM      1  C   UNL     1       7.258  -2.096  26.579  0.00  0.00    +0.000 C 
ATOM      2  C   UNL     1       8.724  -1.760  26.516  0.00  0.00    +0.000 C 
ATOM      3  C   UNL     1       8.984  -0.425  25.863  0.00  0.00    +0.000 C 
ATOM      4  N   UNL     1       7.739   0.153  25.344  0.00  0.00    +0.000 N 
ATOM      5  C   UNL     1       7.520   0.148  24.027  0.00  0.00    +0.000 C 
ATOM      6  O   UNL     1       6.714  -0.657  23.597  0.00  0.00    +0.000 OA
ATOM      7  N   UNL     1       7.722   1.334  23.439  0.00  0.00    +0.000 N 
ATOM      8  C   UNL     1       8.887   2.160  23.787  0.00  0.00    +0.000 C 
ATOM      9  C   UNL     1       9.910   2.050  22.662  0.00  0.00    +0.000 C 
ATOM     10  O   UNL     1       9.646   0.995  21.850  0.00  0.00    +0.000 OA
ATOM     11  C   UNL     1       8.478   1.113  21.160  0.00  0.00    +0.000 C 
ATOM     12  C   UNL     1       7.322   1.481  22.022  0.00  0.00    +0.000 C 
ATOM     13  C   UNL     1       6.637   0.317  26.275  0.00  0.00    +0.000 C 
ATOM     14  C   UNL     1       6.464  -0.924  27.123  0.00  0.00    +0.000 C 
ENDROOT
BRANCH  11  15
ATOM     15  C   UNL     1       8.204  -0.201  20.388  0.00  0.00    +0.000 A 
ATOM     16  C   UNL     1       7.925   0.263  18.981  0.00  0.00    +0.000 A 
ATOM     17  C   UNL     1       6.620   0.192  18.272  0.00  0.00    +0.000 A 
ATOM     18  C   UNL     1       5.584  -0.572  19.057  0.00  0.00    +0.000 A 
ATOM     19  F   UNL     1       4.554   0.392  19.254  0.00  0.00    +0.000 F 
ATOM     20  C   UNL     1       5.818  -1.363  20.283  0.00  0.00    +0.000 A 
ATOM     21  C   UNL     1       7.250  -1.212  20.867  0.00  0.00    +0.000 A 
ENDBRANCH  11  15
BRANCH   1  24
ATOM     22  N   UNL     1       7.535  -3.116  24.372  0.00  0.00    +0.000 N 
ATOM     23  H   UNL     1       7.275  -2.927  23.471  0.00  0.00    +0.000 HD
ATOM     24  C   UNL     1       6.727  -2.517  25.257  0.00  0.00    +0.000 C 
ATOM     25  O   UNL     1       5.509  -2.464  25.032  0.00  0.00    +0.000 OA
BRANCH  22  31
ATOM     26  C   UNL     1       6.644  -5.019  25.639  0.00  0.00    +0.000 A 
ATOM     27  C   UNL     1       5.325  -5.647  25.216  0.00  0.00    +0.000 A 
ATOM     28  C   UNL     1       4.868  -5.994  23.836  0.00  0.00    +0.000 A 
ATOM     29  C   UNL     1       5.995  -5.585  22.955  0.00  0.00    +0.000 A 
ATOM     30  C   UNL     1       7.282  -5.028  23.003  0.00  0.00    +0.000 A 
ATOM     31  C   UNL     1       7.389  -4.507  24.492  0.00  0.00    +0.000 A 
BRANCH  26  33
ATOM     32  H   UNL     1       6.796  -5.732  27.380  0.00  0.00    +0.000 HD
ATOM     33  O   UNL     1       7.071  -5.966  26.512  0.00  0.00    +0.000 OA
ENDBRANCH  26  33
ENDBRANCH  22  31
ENDBRANCH   1  24
TORSDOF 4
ENDMDL
MODEL 7
REMARK VINA RESULT:      -6.9      2.393      4.541
REMARK  Name = 
REMARK  4 active torsions:
REMARK  status: ('A' for Active; 'I' for Inactive)
REMARK    1  A    between atoms: O_2  and  C_3
REMARK    2  A    between atoms: C_12  and  N_13
REMARK    3  A    between atoms: C_15  and  C_17
REMARK    4  A    between atoms: C_36  and  C_38
REMARK                            x       y       z     vdW  Elec       q    Type
REMARK                         _______ _______ _______ _____ _____    ______ ____
ROOT
ATOM      1  C   UNL     1       8.539   0.901  21.510  0.00  0.00    +0.000 C 
ATOM      2  C   UNL     1       9.591  -0.167  21.632  0.00  0.00    +0.000 C 
ATOM      3  C   UNL     1       9.012  -1.559  21.580  0.00  0.00    +0.000 C 
ATOM      4  N   UNL     1       7.546  -1.513  21.545  0.00  0.00    +0.000 N 
ATOM      5  C   UNL     1       6.860  -1.840  22.643  0.00  0.00    +0.000 C 
ATOM      6  O   UNL     1       6.354  -0.932  23.279  0.00  0.00    +0.000 OA
ATOM      7  N   UNL     1       6.317  -3.064  22.600  0.00  0.00    +0.000 N 
ATOM      8  C   UNL     1       7.080  -4.209  22.082  0.00  0.00    +0.000 C 
ATOM      9  C   UNL     1       7.539  -5.057  23.263  0.00  0.00    +0.000 C 
ATOM     10  O   UNL     1       7.437  -4.378  24.433  0.00  0.00    +0.000 OA
ATOM     11  C   UNL     1       6.156  -4.076  24.783  0.00  0.00    +0.000 C 
ATOM     12  C   UNL     1       5.381  -3.445  23.680  0.00  0.00    +0.000 C 
ATOM     13  C   UNL     1       6.925  -0.730  20.492  0.00  0.00    +0.000 C 
ATOM     14  C   UNL     1       7.613   0.609  20.345  0.00  0.00    +0.000 C 
ENDROOT
BRANCH  11  15
ATOM     15  C   UNL     1       6.168  -3.178  26.044  0.00  0.00    +0.000 A 
ATOM     16  C   UNL     1       6.494  -4.136  27.162  0.00  0.00    +0.000 A 
ATOM     17  C   UNL     1       5.580  -4.554  28.258  0.00  0.00    +0.000 A 
ATOM     18  C   UNL     1       4.290  -3.774  28.256  0.00  0.00    +0.000 A 
ATOM     19  F   UNL     1       3.303  -4.787  28.084  0.00  0.00    +0.000 F 
ATOM     20  C   UNL     1       3.983  -2.585  27.434  0.00  0.00    +0.000 A 
ATOM     21  C   UNL     1       5.065  -2.260  26.368  0.00  0.00    +0.000 A 
ENDBRANCH  11  15
BRANCH   1  24
ATOM     22  N   UNL     1       8.364   0.896  23.951  0.00  0.00    +0.000 N 
ATOM     23  H   UNL     1       7.758   0.565  24.613  0.00  0.00    +0.000 HD
ATOM     24  C   UNL     1       7.761   1.061  22.766  0.00  0.00    +0.000 C 
ATOM     25  O   UNL     1       6.603   1.503  22.727  0.00  0.00    +0.000 OA
BRANCH  22  31
ATOM     26  C   UNL     1       9.191   3.155  23.468  0.00  0.00    +0.000 A 
ATOM     27  C   UNL     1       8.205   4.310  23.382  0.00  0.00    +0.000 A 
ATOM     28  C   UNL     1       7.064   4.621  24.296  0.00  0.00    +0.000 A 
ATOM     29  C   UNL     1       7.102   3.543  25.321  0.00  0.00    +0.000 A 
ATOM     30  C   UNL     1       7.833   2.404  25.693  0.00  0.00    +0.000 A 
ATOM     31  C   UNL     1       8.761   2.151  24.438  0.00  0.00    +0.000 A 
BRANCH  26  33
ATOM     32  H   UNL     1      10.693   3.841  24.381  0.00  0.00    +0.000 HD
ATOM     33  O   UNL     1      10.352   3.857  23.506  0.00  0.00    +0.000 OA
ENDBRANCH  26  33
ENDBRANCH  22  31
ENDBRANCH   1  24
TORSDOF 4
ENDMDL
MODEL 8
REMARK VINA RESULT:      -6.8      2.551      3.703
REMARK  Name = 
REMARK  4 active torsions:
REMARK  status: ('A' for Active; 'I' for Inactive)
REMARK    1  A    between atoms: O_2  and  C_3
REMARK    2  A    between atoms: C_12  and  N_13
REMARK    3  A    between atoms: C_15  and  C_17
REMARK    4  A    between atoms: C_36  and  C_38
REMARK                            x       y       z     vdW  Elec       q    Type
REMARK                         _______ _______ _______ _____ _____    ______ ____
ROOT
ATOM      1  C   UNL     1       9.130   0.764  22.705  0.00  0.00    +0.000 C 
ATOM      2  C   UNL     1       9.863   0.582  24.006  0.00  0.00    +0.000 C 
ATOM      3  C   UNL     1      10.005  -0.869  24.392  0.00  0.00    +0.000 C 
ATOM      4  N   UNL     1       9.279  -1.732  23.454  0.00  0.00    +0.000 N 
ATOM      5  C   UNL     1       8.129  -2.289  23.839  0.00  0.00    +0.000 C 
ATOM      6  O   UNL     1       7.099  -1.817  23.390  0.00  0.00    +0.000 OA
ATOM      7  N   UNL     1       8.234  -3.585  24.160  0.00  0.00    +0.000 N 
ATOM      8  C   UNL     1       9.364  -4.074  24.964  0.00  0.00    +0.000 C 
ATOM      9  C   UNL     1       8.871  -4.331  26.383  0.00  0.00    +0.000 C 
ATOM     10  O   UNL     1       7.674  -3.735  26.611  0.00  0.00    +0.000 OA
ATOM     11  C   UNL     1       6.657  -4.242  25.862  0.00  0.00    +0.000 C 
ATOM     12  C   UNL     1       6.987  -4.340  24.414  0.00  0.00    +0.000 C 
ATOM     13  C   UNL     1       9.604  -1.610  22.043  0.00  0.00    +0.000 C 
ATOM     14  C   UNL     1       9.695  -0.155  21.640  0.00  0.00    +0.000 C 
ENDROOT
BRANCH  11  15
ATOM     15  C   UNL     1       5.381  -3.395  26.089  0.00  0.00    +0.000 A 
ATOM     16  C   UNL     1       4.794  -3.967  27.355  0.00  0.00    +0.000 A 
ATOM     17  C   UNL     1       3.524  -4.732  27.469  0.00  0.00    +0.000 A 
ATOM     18  C   UNL     1       2.748  -4.749  26.177  0.00  0.00    +0.000 A 
ATOM     19  F   UNL     1       2.662  -6.137  25.871  0.00  0.00    +0.000 F 
ATOM     20  C   UNL     1       3.039  -3.952  24.967  0.00  0.00    +0.000 A 
ATOM     21  C   UNL     1       4.382  -3.175  25.032  0.00  0.00    +0.000 A 
ENDBRANCH  11  15
BRANCH   1  24
ATOM     22  N   UNL     1       7.054   0.913  23.990  0.00  0.00    +0.000 N 
ATOM     23  H   UNL     1       6.300   0.354  24.177  0.00  0.00    +0.000 HD
ATOM     24  C   UNL     1       7.668   0.550  22.856  0.00  0.00    +0.000 C 
ATOM     25  O   UNL     1       6.990   0.189  21.883  0.00  0.00    +0.000 OA
BRANCH  22  31
ATOM     26  C   UNL     1       5.050   2.303  23.714  0.00  0.00    +0.000 A 
ATOM     27  C   UNL     1       4.452   3.002  24.926  0.00  0.00    +0.000 A 
ATOM     28  C   UNL     1       5.164   3.752  26.005  0.00  0.00    +0.000 A 
ATOM     29  C   UNL     1       6.603   3.666  25.633  0.00  0.00    +0.000 A 
ATOM     30  C   UNL     1       7.454   3.151  24.642  0.00  0.00    +0.000 A 
ATOM     31  C   UNL     1       6.503   2.193  23.819  0.00  0.00    +0.000 A 
BRANCH  26  33
ATOM     32  H   UNL     1       4.613   2.578  21.899  0.00  0.00    +0.000 HD
ATOM     33  O   UNL     1       4.365   2.939  22.731  0.00  0.00    +0.000 OA
ENDBRANCH  26  33
ENDBRANCH  22  31
ENDBRANCH   1  24
TORSDOF 4
ENDMDL
MODEL 9
REMARK VINA RESULT:      -6.7      3.455      5.308
REMARK  Name = 
REMARK  4 active torsions:
REMARK  status: ('A' for Active; 'I' for Inactive)
REMARK    1  A    between atoms: O_2  and  C_3
REMARK    2  A    between atoms: C_12  and  N_13
REMARK    3  A    between atoms: C_15  and  C_17
REMARK    4  A    between atoms: C_36  and  C_38
REMARK                            x       y       z     vdW  Elec       q    Type
REMARK                         _______ _______ _______ _____ _____    ______ ____
ROOT
ATOM      1  C   UNL     1       9.661   0.736  22.084  0.00  0.00    +0.000 C 
ATOM      2  C   UNL     1      10.374   0.308  23.338  0.00  0.00    +0.000 C 
ATOM      3  C   UNL     1       9.745  -0.905  23.977  0.00  0.00    +0.000 C 
ATOM      4  N   UNL     1       8.515  -1.287  23.273  0.00  0.00    +0.000 N 
ATOM      5  C   UNL     1       7.335  -1.030  23.842  0.00  0.00    +0.000 C 
ATOM      6  O   UNL     1       6.686  -0.103  23.391  0.00  0.00    +0.000 OA
ATOM      7  N   UNL     1       6.752  -2.104  24.391  0.00  0.00    +0.000 N 
ATOM      8  C   UNL     1       7.534  -3.064  25.184  0.00  0.00    +0.000 C 
ATOM      9  C   UNL     1       7.229  -2.831  26.659  0.00  0.00    +0.000 C 
ATOM     10  O   UNL     1       6.627  -1.632  26.861  0.00  0.00    +0.000 OA
ATOM     11  C   UNL     1       5.391  -1.537  26.298  0.00  0.00    +0.000 C 
ATOM     12  C   UNL     1       5.360  -1.965  24.874  0.00  0.00    +0.000 C 
ATOM     13  C   UNL     1       8.609  -1.531  21.845  0.00  0.00    +0.000 C 
ATOM     14  C   UNL     1       9.427  -0.451  21.170  0.00  0.00    +0.000 C 
ENDROOT
BRANCH  11  15
ATOM     15  C   UNL     1       4.865  -0.089  26.458  0.00  0.00    +0.000 A 
ATOM     16  C   UNL     1       6.066   0.673  26.961  0.00  0.00    +0.000 A 
ATOM     17  C   UNL     1       6.226   1.271  28.313  0.00  0.00    +0.000 A 
ATOM     18  C   UNL     1       4.960   1.192  29.128  0.00  0.00    +0.000 A 
ATOM     19  F   UNL     1       5.354   0.425  30.261  0.00  0.00    +0.000 F 
ATOM     20  C   UNL     1       3.627   0.782  28.641  0.00  0.00    +0.000 A 
ATOM     21  C   UNL     1       3.629   0.224  27.191  0.00  0.00    +0.000 A 
ENDBRANCH  11  15
BRANCH   1  24
ATOM     22  N   UNL     1       8.269   2.187  23.478  0.00  0.00    +0.000 N 
ATOM     23  H   UNL     1       7.375   2.190  23.818  0.00  0.00    +0.000 HD
ATOM     24  C   UNL     1       8.378   1.425  22.382  0.00  0.00    +0.000 C 
ATOM     25  O   UNL     1       7.466   1.427  21.543  0.00  0.00    +0.000 OA
BRANCH  22  31
ATOM     26  C   UNL     1       7.364   4.356  22.773  0.00  0.00    +0.000 A 
ATOM     27  C   UNL     1       7.112   5.436  23.814  0.00  0.00    +0.000 A 
ATOM     28  C   UNL     1       7.999   5.858  24.940  0.00  0.00    +0.000 A 
ATOM     29  C   UNL     1       9.196   4.983  24.822  0.00  0.00    +0.000 A 
ATOM     30  C   UNL     1       9.736   3.960  24.027  0.00  0.00    +0.000 A 
ATOM     31  C   UNL     1       8.512   3.525  23.127  0.00  0.00    +0.000 A 
BRANCH  26  33
ATOM     32  H   UNL     1       7.161   4.527  20.905  0.00  0.00    +0.000 HD
ATOM     33  O   UNL     1       7.232   5.101  21.646  0.00  0.00    +0.000 OA
ENDBRANCH  26  33
ENDBRANCH  22  31
ENDBRANCH   1  24
TORSDOF 4
ENDMDL
