MODEL 1
REMARK VINA RESULT:      -8.7      0.000      0.000
REMARK  Name = 
REMARK  6 active torsions:
REMARK  status: ('A' for Active; 'I' for Inactive)
REMARK    1  A    between atoms: C_7  and  C_8
REMARK    2  A    between atoms: C_24  and  C_26
REMARK    3  A    between atoms: C_26  and  C_29
REMARK    4  A    between atoms: C_38  and  S_39
REMARK    5  A    between atoms: S_39  and  N_42
REMARK    6  A    between atoms: C_50  and  C_52
REMARK                            x       y       z     vdW  Elec       q    Type
REMARK                         _______ _______ _______ _____ _____    ______ ____
ROOT
ATOM      1  C   UNL     1       8.792  -2.412  22.318  0.00  0.00    +0.000 C 
ENDROOT
BRANCH   1  11
ATOM      2  C   UNL     1       6.212  -3.831  25.463  0.00  0.00    +0.000 C 
ATOM      3  C   UNL     1       6.202  -5.316  24.882  0.00  0.00    +0.000 A 
ATOM      4  C   UNL     1       5.129  -5.497  24.411  0.00  0.00    +0.000 A 
ATOM      5  C   UNL     1       4.239  -5.253  23.130  0.00  0.00    +0.000 A 
ATOM      6  C   UNL     1       5.339  -5.541  22.141  0.00  0.00    +0.000 A 
ATOM      7  C   UNL     1       6.686  -5.574  22.195  0.00  0.00    +0.000 A 
ATOM      8  C   UNL     1       7.210  -5.485  23.642  0.00  0.00    +0.000 A 
ATOM      9  C   UNL     1       8.364  -5.102  23.923  0.00  0.00    +0.000 C 
ATOM     10  N   UNL     1       8.348  -3.812  24.110  0.00  0.00    +0.000 N 
ATOM     11  C   UNL     1       9.159  -2.755  23.674  0.00  0.00    +0.000 C 
ATOM     12  O   UNL     1      10.299  -3.037  24.035  0.00  0.00    +0.000 OA
ATOM     13  C   UNL     1       7.380  -3.265  24.801  0.00  0.00    +0.000 C 
BRANCH   2  17
ATOM     14  C   UNL     1       4.665  -5.577  28.981  0.00  0.00    +0.000 A 
ATOM     15  C   UNL     1       4.176  -4.436  28.249  0.00  0.00    +0.000 A 
ATOM     16  C   UNL     1       4.815  -3.416  27.355  0.00  0.00    +0.000 A 
ATOM     17  C   UNL     1       6.179  -4.120  26.961  0.00  0.00    +0.000 A 
ATOM     18  C   UNL     1       6.905  -5.134  27.542  0.00  0.00    +0.000 A 
ATOM     19  C   UNL     1       5.918  -6.011  28.363  0.00  0.00    +0.000 A 
ENDBRANCH   2  17
ENDBRANCH   1  11
BRANCH   1  20
ATOM     20  C   UNL     1       7.950  -1.196  22.081  0.00  0.00    +0.000 A 
ATOM     21  C   UNL     1       6.632  -1.869  21.607  0.00  0.00    +0.000 A 
ATOM     22  C   UNL     1       5.875  -1.628  20.379  0.00  0.00    +0.000 A 
ATOM     23  C   UNL     1       6.570  -0.449  19.736  0.00  0.00    +0.000 A 
ATOM     24  C   UNL     1       7.772   0.262  19.877  0.00  0.00    +0.000 A 
ATOM     25  C   UNL     1       8.364  -0.125  21.234  0.00  0.00    +0.000 A 
BRANCH  25  26
ATOM     26  S   UNL     1       8.342   1.475  22.098  0.00  0.00    +0.000 S 
ATOM     27  O   UNL     1       7.453   2.308  21.344  0.00  0.00    +0.000 OA
ATOM     28  O   UNL     1       9.747   1.942  21.995  0.00  0.00    +0.000 OA
BRANCH  26  29
ATOM     29  N   UNL     1       7.952   1.316  23.591  0.00  0.00    +0.000 NA
ATOM     30  C   UNL     1       6.651   1.583  23.980  0.00  0.00    +0.000 C 
ATOM     31  C   UNL     1       6.101   0.318  24.752  0.00  0.00    +0.000 C 
ATOM     32  N   UNL     1       6.977   0.266  25.925  0.00  0.00    +0.000 N 
ATOM     33  C   UNL     1       6.444   0.541  27.127  0.00  0.00    +0.000 C 
ATOM     34  O   UNL     1       5.377   0.005  27.447  0.00  0.00    +0.000 OA
ATOM     35  C   UNL     1       8.389   0.169  25.704  0.00  0.00    +0.000 C 
ATOM     36  C   UNL     1       8.856   1.162  24.622  0.00  0.00    +0.000 C 
BRANCH  33  37
ATOM     37  C   UNL     1       6.900   1.778  27.846  0.00  0.00    +0.000 C 
ATOM     38 CL   UNL     1       7.350   1.388  29.519  0.00  0.00    +0.000 Cl
ENDBRANCH  33  37
ENDBRANCH  26  29
ENDBRANCH  25  26
ENDBRANCH   1  20
TORSDOF 6
ENDMDL
MODEL 2
REMARK VINA RESULT:      -8.5      2.833      6.566
REMARK  Name = 
REMARK  6 active torsions:
REMARK  status: ('A' for Active; 'I' for Inactive)
REMARK    1  A    between atoms: C_7  and  C_8
REMARK    2  A    between atoms: C_24  and  C_26
REMARK    3  A    between atoms: C_26  and  C_29
REMARK    4  A    between atoms: C_38  and  S_39
REMARK    5  A    between atoms: S_39  and  N_42
REMARK    6  A    between atoms: C_50  and  C_52
REMARK                            x       y       z     vdW  Elec       q    Type
REMARK                         _______ _______ _______ _____ _____    ______ ____
ROOT
ATOM      1  C   UNL     1       7.636  -2.992  24.264  0.00  0.00    +0.000 C 
ENDROOT
BRANCH   1  11
ATOM      2  C   UNL     1       7.479   0.597  21.885  0.00  0.00    +0.000 C 
ATOM      3  C   UNL     1       9.067   0.668  21.759  0.00  0.00    +0.000 A 
ATOM      4  C   UNL     1       9.429   1.567  22.443  0.00  0.00    +0.000 A 
ATOM      5  C   UNL     1       9.774   1.986  23.925  0.00  0.00    +0.000 A 
ATOM      6  C   UNL     1      10.483   0.701  24.270  0.00  0.00    +0.000 A 
ATOM      7  C   UNL     1      10.501  -0.545  23.758  0.00  0.00    +0.000 A 
ATOM      8  C   UNL     1       9.781  -0.623  22.397  0.00  0.00    +0.000 A 
ATOM      9  C   UNL     1       9.324  -1.687  21.931  0.00  0.00    +0.000 C 
ATOM     10  N   UNL     1       8.085  -1.819  22.316  0.00  0.00    +0.000 N 
ATOM     11  C   UNL     1       7.341  -2.880  22.853  0.00  0.00    +0.000 C 
ATOM     12  O   UNL     1       7.444  -3.802  22.047  0.00  0.00    +0.000 OA
ATOM     13  C   UNL     1       7.279  -0.789  22.287  0.00  0.00    +0.000 C 
BRANCH   2  17
ATOM     14  C   UNL     1       5.562   0.369  18.131  0.00  0.00    +0.000 A 
ATOM     15  C   UNL     1       6.793  -0.250  18.556  0.00  0.00    +0.000 A 
ATOM     16  C   UNL     1       7.835   0.092  19.578  0.00  0.00    +0.000 A 
ATOM     17  C   UNL     1       7.069   1.119  20.511  0.00  0.00    +0.000 A 
ATOM     18  C   UNL     1       5.960   1.908  20.312  0.00  0.00    +0.000 A 
ATOM     19  C   UNL     1       5.091   1.234  19.213  0.00  0.00    +0.000 A 
ENDBRANCH   2  17
ENDBRANCH   1  11
BRANCH   1  20
ATOM     20  C   UNL     1       6.520  -3.303  25.215  0.00  0.00    +0.000 A 
ATOM     21  C   UNL     1       6.607  -4.854  25.234  0.00  0.00    +0.000 A 
ATOM     22  C   UNL     1       5.552  -5.830  24.961  0.00  0.00    +0.000 A 
ATOM     23  C   UNL     1       4.299  -4.996  24.817  0.00  0.00    +0.000 A 
ATOM     24  C   UNL     1       3.953  -3.645  24.662  0.00  0.00    +0.000 A 
ATOM     25  C   UNL     1       5.191  -2.822  25.027  0.00  0.00    +0.000 A 
BRANCH  25  26
ATOM     26  S   UNL     1       4.588  -1.899  26.473  0.00  0.00    +0.000 S 
ATOM     27  O   UNL     1       4.870  -2.730  27.606  0.00  0.00    +0.000 OA
ATOM     28  O   UNL     1       3.128  -1.788  26.227  0.00  0.00    +0.000 OA
BRANCH  26  29
ATOM     29  N   UNL     1       5.214  -0.482  26.551  0.00  0.00    +0.000 NA
ATOM     30  C   UNL     1       4.851   0.359  27.588  0.00  0.00    +0.000 C 
ATOM     31  C   UNL     1       6.170   0.844  28.310  0.00  0.00    +0.000 C 
ATOM     32  N   UNL     1       6.839   1.607  27.254  0.00  0.00    +0.000 N 
ATOM     33  C   UNL     1       6.935   2.939  27.397  0.00  0.00    +0.000 C 
ATOM     34  O   UNL     1       7.318   3.401  28.477  0.00  0.00    +0.000 OA
ATOM     35  C   UNL     1       7.135   0.933  26.025  0.00  0.00    +0.000 C 
ATOM     36  C   UNL     1       5.928   0.114  25.531  0.00  0.00    +0.000 C 
BRANCH  33  37
ATOM     37  C   UNL     1       6.182   3.816  26.438  0.00  0.00    +0.000 C 
ATOM     38 CL   UNL     1       7.285   4.475  25.211  0.00  0.00    +0.000 Cl
ENDBRANCH  33  37
ENDBRANCH  26  29
ENDBRANCH  25  26
ENDBRANCH   1  20
TORSDOF 6
ENDMDL
MODEL 3
REMARK VINA RESULT:      -8.4      2.925      7.274
REMARK  Name = 
REMARK  6 active torsions:
REMARK  status: ('A' for Active; 'I' for Inactive)
REMARK    1  A    between atoms: C_7  and  C_8
REMARK    2  A    between atoms: C_24  and  C_26
REMARK    3  A    between atoms: C_26  and  C_29
REMARK    4  A    between atoms: C_38  and  S_39
REMARK    5  A    between atoms: S_39  and  N_42
REMARK    6  A    between atoms: C_50  and  C_52
REMARK                            x       y       z     vdW  Elec       q    Type
REMARK                         _______ _______ _______ _____ _____    ______ ____
ROOT
ATOM      1  C   UNL     1       9.586  -1.691  24.359  0.00  0.00    +0.000 C 
ENDROOT
BRANCH   1  11
ATOM      2  C   UNL     1       7.242   0.935  21.874  0.00  0.00    +0.000 C 
ATOM      3  C   UNL     1       8.170   2.190  22.203  0.00  0.00    +0.000 A 
ATOM      4  C   UNL     1       7.548   2.902  22.920  0.00  0.00    +0.000 A 
ATOM      5  C   UNL     1       7.115   3.141  24.419  0.00  0.00    +0.000 A 
ATOM      6  C   UNL     1       8.456   2.786  25.008  0.00  0.00    +0.000 A 
ATOM      7  C   UNL     1       9.536   2.103  24.579  0.00  0.00    +0.000 A 
ATOM      8  C   UNL     1       9.455   1.777  23.074  0.00  0.00    +0.000 A 
ATOM      9  C   UNL     1      10.099   0.848  22.546  0.00  0.00    +0.000 C 
ATOM     10  N   UNL     1       9.373  -0.235  22.568  0.00  0.00    +0.000 N 
ATOM     11  C   UNL     1       9.626  -1.570  22.918  0.00  0.00    +0.000 C 
ATOM     12  O   UNL     1      10.570  -1.926  22.217  0.00  0.00    +0.000 OA
ATOM     13  C   UNL     1       8.102  -0.175  22.264  0.00  0.00    +0.000 C 
BRANCH   2  17
ATOM     14  C   UNL     1       5.690  -0.003  18.062  0.00  0.00    +0.000 A 
ATOM     15  C   UNL     1       6.947  -0.398  18.648  0.00  0.00    +0.000 A 
ATOM     16  C   UNL     1       7.850   0.200  19.684  0.00  0.00    +0.000 A 
ATOM     17  C   UNL     1       6.890   1.225  20.418  0.00  0.00    +0.000 A 
ATOM     18  C   UNL     1       5.713   1.832  20.042  0.00  0.00    +0.000 A 
ATOM     19  C   UNL     1       5.029   0.920  18.985  0.00  0.00    +0.000 A 
ENDBRANCH   2  17
ENDBRANCH   1  11
BRANCH   1  20
ATOM     20  C   UNL     1       8.467  -2.463  24.989  0.00  0.00    +0.000 A 
ATOM     21  C   UNL     1       9.072  -3.893  24.954  0.00  0.00    +0.000 A 
ATOM     22  C   UNL     1       8.499  -5.113  24.382  0.00  0.00    +0.000 A 
ATOM     23  C   UNL     1       7.099  -4.713  23.975  0.00  0.00    +0.000 A 
ATOM     24  C   UNL     1       6.354  -3.535  23.806  0.00  0.00    +0.000 A 
ATOM     25  C   UNL     1       7.127  -2.413  24.503  0.00  0.00    +0.000 A 
BRANCH  25  26
ATOM     26  S   UNL     1       5.948  -1.926  25.800  0.00  0.00    +0.000 S 
ATOM     27  O   UNL     1       5.000  -1.066  25.156  0.00  0.00    +0.000 OA
ATOM     28  O   UNL     1       6.791  -1.181  26.769  0.00  0.00    +0.000 OA
BRANCH  26  29
ATOM     29  N   UNL     1       5.318  -3.161  26.496  0.00  0.00    +0.000 NA
ATOM     30  C   UNL     1       3.951  -3.356  26.412  0.00  0.00    +0.000 C 
ATOM     31  C   UNL     1       3.698  -4.813  25.853  0.00  0.00    +0.000 C 
ATOM     32  N   UNL     1       4.263  -5.653  26.911  0.00  0.00    +0.000 N 
ATOM     33  C   UNL     1       3.421  -6.392  27.652  0.00  0.00    +0.000 C 
ATOM     34  O   UNL     1       2.550  -7.060  27.084  0.00  0.00    +0.000 OA
ATOM     35  C   UNL     1       5.640  -5.460  27.258  0.00  0.00    +0.000 C 
ATOM     36  C   UNL     1       5.974  -3.963  27.407  0.00  0.00    +0.000 C 
BRANCH  33  37
ATOM     37  C   UNL     1       3.271  -6.060  29.109  0.00  0.00    +0.000 C 
ATOM     38 CL   UNL     1       3.000  -7.540  30.053  0.00  0.00    +0.000 Cl
ENDBRANCH  33  37
ENDBRANCH  26  29
ENDBRANCH  25  26
ENDBRANCH   1  20
TORSDOF 6
ENDMDL
MODEL 4
REMARK VINA RESULT:      -8.1      2.657      6.731
REMARK  Name = 
REMARK  6 active torsions:
REMARK  status: ('A' for Active; 'I' for Inactive)
REMARK    1  A    between atoms: C_7  and  C_8
REMARK    2  A    between atoms: C_24  and  C_26
REMARK    3  A    between atoms: C_26  and  C_29
REMARK    4  A    between atoms: C_38  and  S_39
REMARK    5  A    between atoms: S_39  and  N_42
REMARK    6  A    between atoms: C_50  and  C_52
REMARK                            x       y       z     vdW  Elec       q    Type
REMARK                         _______ _______ _______ _____ _____    ______ ____
ROOT
ATOM      1  C   UNL     1       9.378  -1.866  24.392  0.00  0.00    +0.000 C 
ENDROOT
BRANCH   1  11
ATOM      2  C   UNL     1       7.083   0.868  21.979  0.00  0.00    +0.000 C 
ATOM      3  C   UNL     1       7.951   2.121  22.447  0.00  0.00    +0.000 A 
ATOM      4  C   UNL     1       7.271   2.761  23.178  0.00  0.00    +0.000 A 
ATOM      5  C   UNL     1       6.752   2.877  24.665  0.00  0.00    +0.000 A 
ATOM      6  C   UNL     1       8.071   2.517  25.299  0.00  0.00    +0.000 A 
ATOM      7  C   UNL     1       9.194   1.899  24.881  0.00  0.00    +0.000 A 
ATOM      8  C   UNL     1       9.202   1.683  23.355  0.00  0.00    +0.000 A 
ATOM      9  C   UNL     1       9.902   0.814  22.797  0.00  0.00    +0.000 C 
ATOM     10  N   UNL     1       9.212  -0.288  22.702  0.00  0.00    +0.000 N 
ATOM     11  C   UNL     1       9.490  -1.637  22.968  0.00  0.00    +0.000 C 
ATOM     12  O   UNL     1      10.480  -1.914  22.295  0.00  0.00    +0.000 OA
ATOM     13  C   UNL     1       7.957  -0.243  22.334  0.00  0.00    +0.000 C 
BRANCH   2  17
ATOM     14  C   UNL     1       5.786   0.163  18.024  0.00  0.00    +0.000 A 
ATOM     15  C   UNL     1       7.025  -0.225  18.651  0.00  0.00    +0.000 A 
ATOM     16  C   UNL     1       7.842   0.329  19.779  0.00  0.00    +0.000 A 
ATOM     17  C   UNL     1       6.798   1.255  20.531  0.00  0.00    +0.000 A 
ATOM     18  C   UNL     1       5.618   1.840  20.133  0.00  0.00    +0.000 A 
ATOM     19  C   UNL     1       5.034   0.984  18.974  0.00  0.00    +0.000 A 
ENDBRANCH   2  17
ENDBRANCH   1  11
BRANCH   1  20
ATOM     20  C   UNL     1       8.191  -2.615  24.914  0.00  0.00    +0.000 A 
ATOM     21  C   UNL     1       8.793  -3.195  26.224  0.00  0.00    +0.000 A 
ATOM     22  C   UNL     1       8.839  -4.588  26.669  0.00  0.00    +0.000 A 
ATOM     23  C   UNL     1       8.016  -5.335  25.643  0.00  0.00    +0.000 A 
ATOM     24  C   UNL     1       7.465  -5.104  24.373  0.00  0.00    +0.000 A 
ATOM     25  C   UNL     1       7.495  -3.592  24.141  0.00  0.00    +0.000 A 
BRANCH  25  26
ATOM     26  S   UNL     1       5.719  -3.219  24.010  0.00  0.00    +0.000 S 
ATOM     27  O   UNL     1       5.056  -4.489  24.045  0.00  0.00    +0.000 OA
ATOM     28  O   UNL     1       5.600  -2.577  22.678  0.00  0.00    +0.000 OA
BRANCH  26  29
ATOM     29  N   UNL     1       5.258  -2.229  25.111  0.00  0.00    +0.000 NA
ATOM     30  C   UNL     1       4.385  -2.670  26.091  0.00  0.00    +0.000 C 
ATOM     31  C   UNL     1       5.028  -2.352  27.499  0.00  0.00    +0.000 C 
ATOM     32  N   UNL     1       5.081  -0.889  27.493  0.00  0.00    +0.000 N 
ATOM     33  C   UNL     1       4.272  -0.222  28.333  0.00  0.00    +0.000 C 
ATOM     34  O   UNL     1       4.208  -0.577  29.514  0.00  0.00    +0.000 OA
ATOM     35  C   UNL     1       5.802  -0.248  26.434  0.00  0.00    +0.000 C 
ATOM     36  C   UNL     1       5.453  -0.864  25.065  0.00  0.00    +0.000 C 
BRANCH  33  37
ATOM     37  C   UNL     1       3.174   0.620  27.749  0.00  0.00    +0.000 C 
ATOM     38 CL   UNL     1       1.767  -0.391  27.355  0.00  0.00    +0.000 Cl
ENDBRANCH  33  37
ENDBRANCH  26  29
ENDBRANCH  25  26
ENDBRANCH   1  20
TORSDOF 6
ENDMDL
MODEL 5
REMARK VINA RESULT:      -7.8      2.744      6.701
REMARK  Name = 
REMARK  6 active torsions:
REMARK  status: ('A' for Active; 'I' for Inactive)
REMARK    1  A    between atoms: C_7  and  C_8
REMARK    2  A    between atoms: C_24  and  C_26
REMARK    3  A    between atoms: C_26  and  C_29
REMARK    4  A    between atoms: C_38  and  S_39
REMARK    5  A    between atoms: S_39  and  N_42
REMARK    6  A    between atoms: C_50  and  C_52
REMARK                            x       y       z     vdW  Elec       q    Type
REMARK                         _______ _______ _______ _____ _____    ______ ____
ROOT
ATOM      1  C   UNL     1       9.239  -1.580  24.433  0.00  0.00    +0.000 C 
ENDROOT
BRANCH   1  11
ATOM      2  C   UNL     1       7.148   1.118  21.804  0.00  0.00    +0.000 C 
ATOM      3  C   UNL     1       8.223   2.276  22.020  0.00  0.00    +0.000 A 
ATOM      4  C   UNL     1       7.708   3.105  22.694  0.00  0.00    +0.000 A 
ATOM      5  C   UNL     1       7.347   3.501  24.179  0.00  0.00    +0.000 A 
ATOM      6  C   UNL     1       8.653   3.034  24.768  0.00  0.00    +0.000 A 
ATOM      7  C   UNL     1       9.634   2.200  24.370  0.00  0.00    +0.000 A 
ATOM      8  C   UNL     1       9.475   1.779  22.896  0.00  0.00    +0.000 A 
ATOM      9  C   UNL     1       9.992   0.745  22.427  0.00  0.00    +0.000 C 
ATOM     10  N   UNL     1       9.147  -0.241  22.543  0.00  0.00    +0.000 N 
ATOM     11  C   UNL     1       9.254  -1.567  22.987  0.00  0.00    +0.000 C 
ATOM     12  O   UNL     1      10.131  -2.081  22.297  0.00  0.00    +0.000 OA
ATOM     13  C   UNL     1       7.883  -0.054  22.260  0.00  0.00    +0.000 C 
BRANCH   2  17
ATOM     14  C   UNL     1       5.691  -0.028  18.011  0.00  0.00    +0.000 A 
ATOM     15  C   UNL     1       6.964  -0.327  18.618  0.00  0.00    +0.000 A 
ATOM     16  C   UNL     1       7.819   0.357  19.642  0.00  0.00    +0.000 A 
ATOM     17  C   UNL     1       6.791   1.342  20.338  0.00  0.00    +0.000 A 
ATOM     18  C   UNL     1       5.584   1.864  19.934  0.00  0.00    +0.000 A 
ATOM     19  C   UNL     1       4.966   0.880  18.901  0.00  0.00    +0.000 A 
ENDBRANCH   2  17
ENDBRANCH   1  11
BRANCH   1  20
ATOM     20  C   UNL     1       8.317  -2.525  25.140  0.00  0.00    +0.000 A 
ATOM     21  C   UNL     1       9.228  -3.782  25.218  0.00  0.00    +0.000 A 
ATOM     22  C   UNL     1       8.946  -5.143  24.759  0.00  0.00    +0.000 A 
ATOM     23  C   UNL     1       7.495  -5.102  24.337  0.00  0.00    +0.000 A 
ATOM     24  C   UNL     1       6.507  -4.140  24.077  0.00  0.00    +0.000 A 
ATOM     25  C   UNL     1       7.003  -2.818  24.667  0.00  0.00    +0.000 A 
BRANCH  25  26
ATOM     26  S   UNL     1       5.736  -2.498  25.932  0.00  0.00    +0.000 S 
ATOM     27  O   UNL     1       5.935  -3.499  26.938  0.00  0.00    +0.000 OA
ATOM     28  O   UNL     1       4.461  -2.704  25.202  0.00  0.00    +0.000 OA
BRANCH  26  29
ATOM     29  N   UNL     1       5.808  -1.042  26.460  0.00  0.00    +0.000 NA
ATOM     30  C   UNL     1       6.022  -0.010  25.563  0.00  0.00    +0.000 C 
ATOM     31  C   UNL     1       4.870   1.054  25.755  0.00  0.00    +0.000 C 
ATOM     32  N   UNL     1       5.103   1.520  27.123  0.00  0.00    +0.000 N 
ATOM     33  C   UNL     1       5.536   2.780  27.299  0.00  0.00    +0.000 C 
ATOM     34  O   UNL     1       4.973   3.698  26.694  0.00  0.00    +0.000 OA
ATOM     35  C   UNL     1       5.094   0.546  28.174  0.00  0.00    +0.000 C 
ATOM     36  C   UNL     1       5.919  -0.698  27.792  0.00  0.00    +0.000 C 
BRANCH  33  37
ATOM     37  C   UNL     1       6.917   2.990  27.853  0.00  0.00    +0.000 C 
ATOM     38 CL   UNL     1       6.920   4.350  28.996  0.00  0.00    +0.000 Cl
ENDBRANCH  33  37
ENDBRANCH  26  29
ENDBRANCH  25  26
ENDBRANCH   1  20
TORSDOF 6
ENDMDL
MODEL 6
REMARK VINA RESULT:      -7.8      2.004      2.862
REMARK  Name = 
REMARK  6 active torsions:
REMARK  status: ('A' for Active; 'I' for Inactive)
REMARK    1  A    between atoms: C_7  and  C_8
REMARK    2  A    between atoms: C_24  and  C_26
REMARK    3  A    between atoms: C_26  and  C_29
REMARK    4  A    between atoms: C_38  and  S_39
REMARK    5  A    between atoms: S_39  and  N_42
REMARK    6  A    between atoms: C_50  and  C_52
REMARK                            x       y       z     vdW  Elec       q    Type
REMARK                         _______ _______ _______ _____ _____    ______ ____
ROOT
ATOM      1  C   UNL     1       8.501  -3.036  23.273  0.00  0.00    +0.000 C 
ENDROOT
BRANCH   1  11
ATOM      2  C   UNL     1       5.881  -4.078  26.531  0.00  0.00    +0.000 C 
ATOM      3  C   UNL     1       5.250  -5.301  25.726  0.00  0.00    +0.000 A 
ATOM      4  C   UNL     1       4.150  -4.983  25.417  0.00  0.00    +0.000 A 
ATOM      5  C   UNL     1       3.305  -4.171  24.358  0.00  0.00    +0.000 A 
ATOM      6  C   UNL     1       4.114  -4.614  23.167  0.00  0.00    +0.000 A 
ATOM      7  C   UNL     1       5.345  -5.136  22.990  0.00  0.00    +0.000 A 
ATOM      8  C   UNL     1       5.996  -5.550  24.325  0.00  0.00    +0.000 A 
ATOM      9  C   UNL     1       7.229  -5.673  24.468  0.00  0.00    +0.000 C 
ATOM     10  N   UNL     1       7.725  -4.534  24.863  0.00  0.00    +0.000 N 
ATOM     11  C   UNL     1       8.834  -3.768  24.475  0.00  0.00    +0.000 C 
ATOM     12  O   UNL     1       9.808  -4.508  24.590  0.00  0.00    +0.000 OA
ATOM     13  C   UNL     1       7.109  -3.838  25.784  0.00  0.00    +0.000 C 
BRANCH   2  17
ATOM     14  C   UNL     1       4.219  -6.154  29.809  0.00  0.00    +0.000 A 
ATOM     15  C   UNL     1       3.938  -4.816  29.351  0.00  0.00    +0.000 A 
ATOM     16  C   UNL     1       4.723  -3.784  28.599  0.00  0.00    +0.000 A 
ATOM     17  C   UNL     1       5.880  -4.648  27.946  0.00  0.00    +0.000 A 
ATOM     18  C   UNL     1       6.409  -5.880  28.255  0.00  0.00    +0.000 A 
ATOM     19  C   UNL     1       5.311  -6.692  28.997  0.00  0.00    +0.000 A 
ENDBRANCH   2  17
ENDBRANCH   1  11
BRANCH   1  20
ATOM     20  C   UNL     1       8.444  -1.540  23.328  0.00  0.00    +0.000 A 
ATOM     21  C   UNL     1       7.369  -1.272  22.238  0.00  0.00    +0.000 A 
ATOM     22  C   UNL     1       7.461  -0.408  21.060  0.00  0.00    +0.000 A 
ATOM     23  C   UNL     1       8.784   0.306  21.222  0.00  0.00    +0.000 A 
ATOM     24  C   UNL     1       9.942   0.200  22.009  0.00  0.00    +0.000 A 
ATOM     25  C   UNL     1       9.601  -0.719  23.184  0.00  0.00    +0.000 A 
BRANCH  25  26
ATOM     26  S   UNL     1       9.812   0.414  24.591  0.00  0.00    +0.000 S 
ATOM     27  O   UNL     1      11.190   0.805  24.567  0.00  0.00    +0.000 OA
ATOM     28  O   UNL     1       9.506  -0.437  25.767  0.00  0.00    +0.000 OA
BRANCH  26  29
ATOM     29  N   UNL     1       8.813   1.599  24.528  0.00  0.00    +0.000 NA
ATOM     30  C   UNL     1       9.299   2.881  24.340  0.00  0.00    +0.000 C 
ATOM     31  C   UNL     1       8.553   3.510  23.097  0.00  0.00    +0.000 C 
ATOM     32  N   UNL     1       7.165   3.561  23.562  0.00  0.00    +0.000 N 
ATOM     33  C   UNL     1       6.618   4.766  23.797  0.00  0.00    +0.000 C 
ATOM     34  O   UNL     1       6.751   5.660  22.954  0.00  0.00    +0.000 OA
ATOM     35  C   UNL     1       6.550   2.334  23.973  0.00  0.00    +0.000 C 
ATOM     36  C   UNL     1       7.483   1.519  24.889  0.00  0.00    +0.000 C 
BRANCH  33  37
ATOM     37  C   UNL     1       6.256   5.123  25.210  0.00  0.00    +0.000 C 
ATOM     38 CL   UNL     1       7.718   5.520  26.138  0.00  0.00    +0.000 Cl
ENDBRANCH  33  37
ENDBRANCH  26  29
ENDBRANCH  25  26
ENDBRANCH   1  20
TORSDOF 6
ENDMDL
MODEL 7
REMARK VINA RESULT:      -7.7      2.652      4.552
REMARK  Name = 
REMARK  6 active torsions:
REMARK  status: ('A' for Active; 'I' for Inactive)
REMARK    1  A    between atoms: C_7  and  C_8
REMARK    2  A    between atoms: C_24  and  C_26
REMARK    3  A    between atoms: C_26  and  C_29
REMARK    4  A    between atoms: C_38  and  S_39
REMARK    5  A    between atoms: S_39  and  N_42
REMARK    6  A    between atoms: C_50  and  C_52
REMARK                            x       y       z     vdW  Elec       q    Type
REMARK                         _______ _______ _______ _____ _____    ______ ____
ROOT
ATOM      1  C   UNL     1       9.345   1.968  24.200  0.00  0.00    +0.000 C 
ENDROOT
BRANCH   1  11
ATOM      2  C   UNL     1       6.946  -1.549  23.536  0.00  0.00    +0.000 C 
ATOM      3  C   UNL     1       7.776  -1.957  22.236  0.00  0.00    +0.000 A 
ATOM      4  C   UNL     1       7.080  -1.744  21.300  0.00  0.00    +0.000 A 
ATOM      5  C   UNL     1       6.568  -0.618  20.319  0.00  0.00    +0.000 A 
ATOM      6  C   UNL     1       7.901   0.072  20.192  0.00  0.00    +0.000 A 
ATOM      7  C   UNL     1       9.041   0.085  20.912  0.00  0.00    +0.000 A 
ATOM      8  C   UNL     1       9.046  -1.000  22.008  0.00  0.00    +0.000 A 
ATOM      9  C   UNL     1       9.771  -0.935  23.022  0.00  0.00    +0.000 C 
ATOM     10  N   UNL     1       9.116  -0.327  23.971  0.00  0.00    +0.000 N 
ATOM     11  C   UNL     1       9.439   0.694  24.877  0.00  0.00    +0.000 C 
ATOM     12  O   UNL     1      10.434   0.301  25.483  0.00  0.00    +0.000 OA
ATOM     13  C   UNL     1       7.858  -0.616  24.185  0.00  0.00    +0.000 C 
BRANCH   2  17
ATOM     14  C   UNL     1       5.781  -5.601  23.324  0.00  0.00    +0.000 A 
ATOM     15  C   UNL     1       4.957  -4.420  23.263  0.00  0.00    +0.000 A 
ATOM     16  C   UNL     1       5.088  -3.026  23.800  0.00  0.00    +0.000 A 
ATOM     17  C   UNL     1       6.639  -2.928  24.111  0.00  0.00    +0.000 A 
ATOM     18  C   UNL     1       7.608  -3.883  24.322  0.00  0.00    +0.000 A 
ATOM     19  C   UNL     1       7.156  -5.182  23.598  0.00  0.00    +0.000 A 
ENDBRANCH   2  17
ENDBRANCH   1  11
BRANCH   1  20
ATOM     20  C   UNL     1       8.089   2.772  24.343  0.00  0.00    +0.000 A 
ATOM     21  C   UNL     1       7.485   2.584  22.924  0.00  0.00    +0.000 A 
ATOM     22  C   UNL     1       7.059   3.608  21.970  0.00  0.00    +0.000 A 
ATOM     23  C   UNL     1       7.181   4.906  22.736  0.00  0.00    +0.000 A 
ATOM     24  C   UNL     1       7.758   5.367  23.930  0.00  0.00    +0.000 A 
ATOM     25  C   UNL     1       8.090   4.133  24.771  0.00  0.00    +0.000 A 
BRANCH  25  26
ATOM     26  S   UNL     1       7.020   4.394  26.219  0.00  0.00    +0.000 S 
ATOM     27  O   UNL     1       6.112   5.437  25.844  0.00  0.00    +0.000 OA
ATOM     28  O   UNL     1       7.966   4.845  27.269  0.00  0.00    +0.000 OA
BRANCH  26  29
ATOM     29  N   UNL     1       6.330   3.079  26.666  0.00  0.00    +0.000 NA
ATOM     30  C   UNL     1       5.038   2.819  26.245  0.00  0.00    +0.000 C 
ATOM     31  C   UNL     1       5.025   1.398  25.554  0.00  0.00    +0.000 C 
ATOM     32  N   UNL     1       5.381   0.510  26.663  0.00  0.00    +0.000 N 
ATOM     33  C   UNL     1       4.440  -0.326  27.134  0.00  0.00    +0.000 C 
ATOM     34  O   UNL     1       3.775  -0.993  26.334  0.00  0.00    +0.000 OA
ATOM     35  C   UNL     1       6.620   0.749  27.341  0.00  0.00    +0.000 C 
ATOM     36  C   UNL     1       6.807   2.245  27.657  0.00  0.00    +0.000 C 
BRANCH  33  37
ATOM     37  C   UNL     1       3.929  -0.113  28.530  0.00  0.00    +0.000 C 
ATOM     38 CL   UNL     1       3.970  -1.639  29.439  0.00  0.00    +0.000 Cl
ENDBRANCH  33  37
ENDBRANCH  26  29
ENDBRANCH  25  26
ENDBRANCH   1  20
TORSDOF 6
ENDMDL
MODEL 8
REMARK VINA RESULT:      -7.5      2.422      3.244
REMARK  Name = 
REMARK  6 active torsions:
REMARK  status: ('A' for Active; 'I' for Inactive)
REMARK    1  A    between atoms: C_7  and  C_8
REMARK    2  A    between atoms: C_24  and  C_26
REMARK    3  A    between atoms: C_26  and  C_29
REMARK    4  A    between atoms: C_38  and  S_39
REMARK    5  A    between atoms: S_39  and  N_42
REMARK    6  A    between atoms: C_50  and  C_52
REMARK                            x       y       z     vdW  Elec       q    Type
REMARK                         _______ _______ _______ _____ _____    ______ ____
ROOT
ATOM      1  C   UNL     1       8.401  -1.915  24.207  0.00  0.00    +0.000 C 
ENDROOT
BRANCH   1  11
ATOM      2  C   UNL     1       4.683  -4.070  24.512  0.00  0.00    +0.000 C 
ATOM      3  C   UNL     1       5.413  -5.485  24.419  0.00  0.00    +0.000 A 
ATOM      4  C   UNL     1       5.169  -5.932  23.348  0.00  0.00    +0.000 A 
ATOM      5  C   UNL     1       5.583  -5.895  21.825  0.00  0.00    +0.000 A 
ATOM      6  C   UNL     1       7.066  -5.847  22.086  0.00  0.00    +0.000 A 
ATOM      7  C   UNL     1       7.839  -5.520  23.141  0.00  0.00    +0.000 A 
ATOM      8  C   UNL     1       7.013  -5.339  24.430  0.00  0.00    +0.000 A 
ATOM      9  C   UNL     1       7.415  -4.670  25.404  0.00  0.00    +0.000 C 
ATOM     10  N   UNL     1       7.012  -3.438  25.266  0.00  0.00    +0.000 N 
ATOM     11  C   UNL     1       7.634  -2.189  25.403  0.00  0.00    +0.000 C 
ATOM     12  O   UNL     1       8.093  -2.167  26.542  0.00  0.00    +0.000 OA
ATOM     13  C   UNL     1       5.789  -3.192  24.868  0.00  0.00    +0.000 C 
BRANCH   2  17
ATOM     14  C   UNL     1       1.582  -6.464  26.086  0.00  0.00    +0.000 A 
ATOM     15  C   UNL     1       1.572  -5.631  24.909  0.00  0.00    +0.000 A 
ATOM     16  C   UNL     1       2.317  -4.398  24.496  0.00  0.00    +0.000 A 
ATOM     17  C   UNL     1       3.556  -4.404  25.484  0.00  0.00    +0.000 A 
ATOM     18  C   UNL     1       3.774  -5.012  26.699  0.00  0.00    +0.000 A 
ATOM     19  C   UNL     1       2.862  -6.269  26.769  0.00  0.00    +0.000 A 
ENDBRANCH   2  17
ENDBRANCH   1  11
BRANCH   1  20
ATOM     20  C   UNL     1       8.147  -0.641  23.461  0.00  0.00    +0.000 A 
ATOM     21  C   UNL     1       7.064  -1.127  22.458  0.00  0.00    +0.000 A 
ATOM     22  C   UNL     1       7.059  -1.025  20.999  0.00  0.00    +0.000 A 
ATOM     23  C   UNL     1       8.275  -0.184  20.680  0.00  0.00    +0.000 A 
ATOM     24  C   UNL     1       9.424   0.286  21.334  0.00  0.00    +0.000 A 
ATOM     25  C   UNL     1       9.189   0.106  22.835  0.00  0.00    +0.000 A 
BRANCH  25  26
ATOM     26  S   UNL     1       9.229   1.832  23.408  0.00  0.00    +0.000 S 
ATOM     27  O   UNL     1      10.172   2.498  22.559  0.00  0.00    +0.000 OA
ATOM     28  O   UNL     1       9.731   1.721  24.800  0.00  0.00    +0.000 OA
BRANCH  26  29
ATOM     29  N   UNL     1       7.814   2.468  23.411  0.00  0.00    +0.000 NA
ATOM     30  C   UNL     1       7.391   3.175  22.299  0.00  0.00    +0.000 C 
ATOM     31  C   UNL     1       6.009   2.570  21.830  0.00  0.00    +0.000 C 
ATOM     32  N   UNL     1       5.140   2.860  22.973  0.00  0.00    +0.000 N 
ATOM     33  C   UNL     1       4.164   3.769  22.812  0.00  0.00    +0.000 C 
ATOM     34  O   UNL     1       3.439   3.702  21.813  0.00  0.00    +0.000 OA
ATOM     35  C   UNL     1       5.525   2.351  24.255  0.00  0.00    +0.000 C 
ATOM     36  C   UNL     1       7.020   2.600  24.531  0.00  0.00    +0.000 C 
BRANCH  33  37
ATOM     37  C   UNL     1       4.251   5.056  23.582  0.00  0.00    +0.000 C 
ATOM     38 CL   UNL     1       3.120   5.031  24.952  0.00  0.00    +0.000 Cl
ENDBRANCH  33  37
ENDBRANCH  26  29
ENDBRANCH  25  26
ENDBRANCH   1  20
TORSDOF 6
ENDMDL
MODEL 9
REMARK VINA RESULT:      -7.5      2.988      7.032
REMARK  Name = 
REMARK  6 active torsions:
REMARK  status: ('A' for Active; 'I' for Inactive)
REMARK    1  A    between atoms: C_7  and  C_8
REMARK    2  A    between atoms: C_24  and  C_26
REMARK    3  A    between atoms: C_26  and  C_29
REMARK    4  A    between atoms: C_38  and  S_39
REMARK    5  A    between atoms: S_39  and  N_42
REMARK    6  A    between atoms: C_50  and  C_52
REMARK                            x       y       z     vdW  Elec       q    Type
REMARK                         _______ _______ _______ _____ _____    ______ ____
ROOT
ATOM      1  C   UNL     1       9.740   0.731  24.097  0.00  0.00    +0.000 C 
ENDROOT
BRANCH   1  11
ATOM      2  C   UNL     1       5.937   2.696  23.607  0.00  0.00    +0.000 C 
ATOM      3  C   UNL     1       5.808   2.991  25.168  0.00  0.00    +0.000 A 
ATOM      4  C   UNL     1       4.971   2.264  25.591  0.00  0.00    +0.000 A 
ATOM      5  C   UNL     1       4.694   0.794  26.097  0.00  0.00    +0.000 A 
ATOM      6  C   UNL     1       5.986   0.666  26.862  0.00  0.00    +0.000 A 
ATOM      7  C   UNL     1       7.174   1.303  26.842  0.00  0.00    +0.000 A 
ATOM      8  C   UNL     1       7.135   2.575  25.972  0.00  0.00    +0.000 A 
ATOM      9  C   UNL     1       8.159   3.093  25.483  0.00  0.00    +0.000 C 
ATOM     10  N   UNL     1       8.366   2.586  24.300  0.00  0.00    +0.000 N 
ATOM     11  C   UNL     1       9.496   2.082  23.640  0.00  0.00    +0.000 C 
ATOM     12  O   UNL     1      10.329   2.984  23.665  0.00  0.00    +0.000 OA
ATOM     13  C   UNL     1       7.361   2.419  23.477  0.00  0.00    +0.000 C 
BRANCH   2  17
ATOM     14  C   UNL     1       2.811   5.484  23.083  0.00  0.00    +0.000 A 
ATOM     15  C   UNL     1       2.959   4.173  22.502  0.00  0.00    +0.000 A 
ATOM     16  C   UNL     1       4.135   3.308  22.163  0.00  0.00    +0.000 A 
ATOM     17  C   UNL     1       5.292   3.954  23.033  0.00  0.00    +0.000 A 
ATOM     18  C   UNL     1       5.445   5.197  23.601  0.00  0.00    +0.000 A 
ATOM     19  C   UNL     1       4.025   5.784  23.843  0.00  0.00    +0.000 A 
ENDBRANCH   2  17
ENDBRANCH   1  11
BRANCH   1  20
ATOM     20  C   UNL     1       9.396  -0.412  23.193  0.00  0.00    +0.000 A 
ATOM     21  C   UNL     1       9.531   0.286  21.811  0.00  0.00    +0.000 A 
ATOM     22  C   UNL     1       8.548   0.368  20.731  0.00  0.00    +0.000 A 
ATOM     23  C   UNL     1       7.418  -0.527  21.185  0.00  0.00    +0.000 A 
ATOM     24  C   UNL     1       7.000  -1.171  22.360  0.00  0.00    +0.000 A 
ATOM     25  C   UNL     1       8.190  -1.162  23.322  0.00  0.00    +0.000 A 
BRANCH  25  26
ATOM     26  S   UNL     1       8.509  -2.943  23.507  0.00  0.00    +0.000 S 
ATOM     27  O   UNL     1       9.932  -3.070  23.617  0.00  0.00    +0.000 OA
ATOM     28  O   UNL     1       8.006  -3.517  22.234  0.00  0.00    +0.000 OA
BRANCH  26  29
ATOM     29  N   UNL     1       7.722  -3.546  24.699  0.00  0.00    +0.000 NA
ATOM     30  C   UNL     1       7.813  -4.904  24.949  0.00  0.00    +0.000 C 
ATOM     31  C   UNL     1       8.249  -5.096  26.456  0.00  0.00    +0.000 C 
ATOM     32  N   UNL     1       7.113  -4.526  27.183  0.00  0.00    +0.000 N 
ATOM     33  C   UNL     1       6.327  -5.359  27.885  0.00  0.00    +0.000 C 
ATOM     34  O   UNL     1       6.851  -6.195  28.629  0.00  0.00    +0.000 OA
ATOM     35  C   UNL     1       6.759  -3.164  26.912  0.00  0.00    +0.000 C 
ATOM     36  C   UNL     1       6.733  -2.883  25.398  0.00  0.00    +0.000 C 
BRANCH  33  37
ATOM     37  C   UNL     1       4.907  -5.549  27.436  0.00  0.00    +0.000 C 
ATOM     38 CL   UNL     1       4.834  -6.729  26.109  0.00  0.00    +0.000 Cl
ENDBRANCH  33  37
ENDBRANCH  26  29
ENDBRANCH  25  26
ENDBRANCH   1  20
TORSDOF 6
ENDMDL
