MODEL 1
REMARK VINA RESULT:      -8.8      0.000      0.000
REMARK  Name = 
REMARK  6 active torsions:
REMARK  status: ('A' for Active; 'I' for Inactive)
REMARK    1  A    between atoms: C_3  and  C_4
REMARK    2  A    between atoms: C_4  and  C_7
REMARK    3  A    between atoms: C_7  and  N_10
REMARK    4  A    between atoms: N_14  and  C_16
REMARK    5  A    between atoms: C_33  and  N_34
REMARK    6  A    between atoms: C_45  and  C_47
REMARK                            x       y       z     vdW  Elec       q    Type
REMARK                         _______ _______ _______ _____ _____    ______ ____
ROOT
ATOM      1  C   UNL     1       6.337   1.198  19.391  0.00  0.00    +0.000 C 
ATOM      2  C   UNL     1       7.104   0.411  20.590  0.00  0.00    +0.000 C 
ATOM      3  C   UNL     1       6.628  -0.889  20.741  0.00  0.00    +0.000 C 
ATOM      4  N   UNL     1       5.702  -1.144  19.637  0.00  0.00    +0.000 N 
ATOM      5  H   UNL     1       6.228  -1.738  19.083  0.00  0.00    +0.000 HD
ATOM      6  C   UNL     1       5.261   0.126  19.025  0.00  0.00    +0.000 C 
ENDROOT
BRANCH   3   7
ATOM      7  N   UNL     1       6.089  -1.587  21.798  0.00  0.00    +0.000 N 
ATOM      8  H   UNL     1       5.198  -1.327  21.961  0.00  0.00    +0.000 HD
ATOM      9  C   UNL     1       6.212  -2.889  21.632  0.00  0.00    +0.000 C 
ATOM     10  O   UNL     1       5.684  -3.485  20.719  0.00  0.00    +0.000 OA
ATOM     11  N   UNL     1       6.634  -3.542  22.757  0.00  0.00    +0.000 N 
ATOM     12  C   UNL     1       5.929  -3.270  23.993  0.00  0.00    +0.000 C 
ATOM     13  C   UNL     1       6.352  -4.071  25.162  0.00  0.00    +0.000 C 
ATOM     14  C   UNL     1       7.313  -5.191  25.003  0.00  0.00    +0.000 C 
ATOM     15  C   UNL     1       7.999  -5.312  23.680  0.00  0.00    +0.000 C 
ATOM     16  C   UNL     1       7.082  -4.925  22.534  0.00  0.00    +0.000 C 
BRANCH  14  17
ATOM     17  C   UNL     1       8.362  -5.095  26.105  0.00  0.00    +0.000 C 
ATOM     18  O   UNL     1       7.987  -5.154  27.278  0.00  0.00    +0.000 OA
ATOM     19  N   UNL     1       9.593  -5.574  25.806  0.00  0.00    +0.000 N 
ATOM     20  H   UNL     1       9.558  -6.534  25.800  0.00  0.00    +0.000 HD
ATOM     21  H   UNL     1      10.233  -5.157  26.392  0.00  0.00    +0.000 HD
ENDBRANCH  14  17
ENDBRANCH   3   7
BRANCH   2  22
ATOM     22  C   UNL     1       8.401   1.120  20.928  0.00  0.00    +0.000 C 
BRANCH  22  23
ATOM     23  C   UNL     1       8.096   1.995  22.136  0.00  0.00    +0.000 C 
BRANCH  23  24
ATOM     24  N   UNL     1       9.098   3.012  22.392  0.00  0.00    +0.000 N 
ATOM     25  H   UNL     1       8.871   3.944  22.339  0.00  0.00    +0.000 HD
ATOM     26  C   UNL     1       9.936   2.823  23.440  0.00  0.00    +0.000 C 
ATOM     27  O   UNL     1      11.130   2.899  23.315  0.00  0.00    +0.000 OA
ATOM     28  N   UNL     1       9.338   2.121  24.412  0.00  0.00    +0.000 N 
ATOM     29  H   UNL     1       9.010   2.706  25.088  0.00  0.00    +0.000 HD
BRANCH  28  30
ATOM     30  C   UNL     1       9.717   0.750  24.708  0.00  0.00    +0.000 C 
ATOM     31  C   UNL     1       8.486  -0.050  25.069  0.00  0.00    +0.000 C 
ATOM     32  C   UNL     1       8.844  -1.481  25.393  0.00  0.00    +0.000 C 
ATOM     33  C   UNL     1       9.739  -2.111  24.364  0.00  0.00    +0.000 C 
ATOM     34  C   UNL     1       9.943  -1.227  23.155  0.00  0.00    +0.000 C 
ATOM     35  C   UNL     1      10.510   0.123  23.605  0.00  0.00    +0.000 C 
ENDBRANCH  28  30
ENDBRANCH  23  24
ENDBRANCH  22  23
ENDBRANCH   2  22
TORSDOF 6
ENDMDL
MODEL 2
REMARK VINA RESULT:      -8.4      1.855      3.045
REMARK  Name = 
REMARK  6 active torsions:
REMARK  status: ('A' for Active; 'I' for Inactive)
REMARK    1  A    between atoms: C_3  and  C_4
REMARK    2  A    between atoms: C_4  and  C_7
REMARK    3  A    between atoms: C_7  and  N_10
REMARK    4  A    between atoms: N_14  and  C_16
REMARK    5  A    between atoms: C_33  and  N_34
REMARK    6  A    between atoms: C_45  and  C_47
REMARK                            x       y       z     vdW  Elec       q    Type
REMARK                         _______ _______ _______ _____ _____    ______ ____
ROOT
ATOM      1  C   UNL     1       8.497   0.789  20.830  0.00  0.00    +0.000 C 
ATOM      2  C   UNL     1       8.456  -0.615  21.651  0.00  0.00    +0.000 C 
ATOM      3  C   UNL     1       7.173  -1.153  21.688  0.00  0.00    +0.000 C 
ATOM      4  N   UNL     1       6.330  -0.330  20.820  0.00  0.00    +0.000 N 
ATOM      5  H   UNL     1       6.212  -0.918  20.060  0.00  0.00    +0.000 HD
ATOM      6  C   UNL     1       6.970   0.976  20.561  0.00  0.00    +0.000 C 
ENDROOT
BRANCH   3   7
ATOM      7  N   UNL     1       6.331  -1.531  22.710  0.00  0.00    +0.000 N 
ATOM      8  H   UNL     1       5.572  -0.973  22.753  0.00  0.00    +0.000 HD
ATOM      9  C   UNL     1       6.013  -2.808  22.629  0.00  0.00    +0.000 C 
ATOM     10  O   UNL     1       5.399  -3.271  21.693  0.00  0.00    +0.000 OA
ATOM     11  N   UNL     1       6.079  -3.460  23.829  0.00  0.00    +0.000 N 
ATOM     12  C   UNL     1       5.398  -2.857  24.957  0.00  0.00    +0.000 C 
ATOM     13  C   UNL     1       5.410  -3.646  26.208  0.00  0.00    +0.000 C 
ATOM     14  C   UNL     1       5.937  -5.033  26.223  0.00  0.00    +0.000 C 
ATOM     15  C   UNL     1       6.659  -5.496  24.999  0.00  0.00    +0.000 C 
ATOM     16  C   UNL     1       6.041  -4.928  23.734  0.00  0.00    +0.000 C 
BRANCH  14  17
ATOM     17  C   UNL     1       6.849  -5.196  27.435  0.00  0.00    +0.000 C 
ATOM     18  O   UNL     1       6.330  -5.365  28.539  0.00  0.00    +0.000 OA
ATOM     19  N   UNL     1       8.055  -5.766  27.205  0.00  0.00    +0.000 N 
ATOM     20  H   UNL     1       7.931  -6.707  27.060  0.00  0.00    +0.000 HD
ATOM     21  H   UNL     1       8.656  -5.502  27.910  0.00  0.00    +0.000 HD
ENDBRANCH  14  17
ENDBRANCH   3   7
BRANCH   2  22
ATOM     22  C   UNL     1       9.857  -1.182  21.776  0.00  0.00    +0.000 C 
BRANCH  22  23
ATOM     23  C   UNL     1      10.407  -0.652  23.093  0.00  0.00    +0.000 C 
BRANCH  23  24
ATOM     24  N   UNL     1       9.695  -1.132  24.261  0.00  0.00    +0.000 N 
ATOM     25  H   UNL     1      10.095  -1.781  24.844  0.00  0.00    +0.000 HD
ATOM     26  C   UNL     1       9.027  -0.221  25.012  0.00  0.00    +0.000 C 
ATOM     27  O   UNL     1       7.871  -0.373  25.306  0.00  0.00    +0.000 OA
ATOM     28  N   UNL     1       9.626   0.977  24.956  0.00  0.00    +0.000 N 
ATOM     29  H   UNL     1      10.177   1.105  25.722  0.00  0.00    +0.000 HD
BRANCH  28  30
ATOM     30  C   UNL     1       9.029   2.097  24.250  0.00  0.00    +0.000 C 
ATOM     31  C   UNL     1       8.205   2.923  25.213  0.00  0.00    +0.000 C 
ATOM     32  C   UNL     1       7.560   4.093  24.510  0.00  0.00    +0.000 C 
ATOM     33  C   UNL     1       8.523   4.872  23.660  0.00  0.00    +0.000 C 
ATOM     34  C   UNL     1       9.953   4.408  23.830  0.00  0.00    +0.000 C 
ATOM     35  C   UNL     1      10.041   2.914  23.510  0.00  0.00    +0.000 C 
ENDBRANCH  28  30
ENDBRANCH  23  24
ENDBRANCH  22  23
ENDBRANCH   2  22
TORSDOF 6
ENDMDL
MODEL 3
REMARK VINA RESULT:      -8.1      1.843      6.960
REMARK  Name = 
REMARK  6 active torsions:
REMARK  status: ('A' for Active; 'I' for Inactive)
REMARK    1  A    between atoms: C_3  and  C_4
REMARK    2  A    between atoms: C_4  and  C_7
REMARK    3  A    between atoms: C_7  and  N_10
REMARK    4  A    between atoms: N_14  and  C_16
REMARK    5  A    between atoms: C_33  and  N_34
REMARK    6  A    between atoms: C_45  and  C_47
REMARK                            x       y       z     vdW  Elec       q    Type
REMARK                         _______ _______ _______ _____ _____    ______ ____
ROOT
ATOM      1  C   UNL     1       7.228  -0.413  27.281  0.00  0.00    +0.000 C 
ATOM      2  C   UNL     1       8.011  -0.281  25.861  0.00  0.00    +0.000 C 
ATOM      3  C   UNL     1       8.042   1.036  25.410  0.00  0.00    +0.000 C 
ATOM      4  N   UNL     1       7.490   1.874  26.474  0.00  0.00    +0.000 N 
ATOM      5  H   UNL     1       8.290   2.304  26.809  0.00  0.00    +0.000 HD
ATOM      6  C   UNL     1       6.719   1.056  27.432  0.00  0.00    +0.000 C 
ENDROOT
BRANCH   3   7
ATOM      7  N   UNL     1       7.628   1.653  24.250  0.00  0.00    +0.000 N 
ATOM      8  H   UNL     1       7.427   2.561  24.398  0.00  0.00    +0.000 HD
ATOM      9  C   UNL     1       8.497   1.481  23.273  0.00  0.00    +0.000 C 
ATOM     10  O   UNL     1       9.630   1.906  23.323  0.00  0.00    +0.000 OA
ATOM     11  N   UNL     1       7.914   1.148  22.082  0.00  0.00    +0.000 N 
ATOM     12  C   UNL     1       6.815   1.972  21.621  0.00  0.00    +0.000 C 
ATOM     13  C   UNL     1       6.282   1.638  20.282  0.00  0.00    +0.000 C 
ATOM     14  C   UNL     1       6.965   0.638  19.424  0.00  0.00    +0.000 C 
ATOM     15  C   UNL     1       8.050  -0.171  20.059  0.00  0.00    +0.000 C 
ATOM     16  C   UNL     1       8.846   0.646  21.060  0.00  0.00    +0.000 C 
BRANCH  14  17
ATOM     17  C   UNL     1       5.915  -0.302  18.840  0.00  0.00    +0.000 C 
ATOM     18  O   UNL     1       5.910  -0.489  17.622  0.00  0.00    +0.000 OA
ATOM     19  N   UNL     1       5.503  -1.313  19.641  0.00  0.00    +0.000 N 
ATOM     20  H   UNL     1       6.198  -1.973  19.688  0.00  0.00    +0.000 HD
ATOM     21  H   UNL     1       4.634  -1.603  19.342  0.00  0.00    +0.000 HD
ENDBRANCH  14  17
ENDBRANCH   3   7
BRANCH   2  22
ATOM     22  C   UNL     1       8.863  -1.513  25.624  0.00  0.00    +0.000 C 
BRANCH  22  23
ATOM     23  C   UNL     1       8.155  -2.655  26.339  0.00  0.00    +0.000 C 
BRANCH  23  24
ATOM     24  N   UNL     1       8.997  -3.812  26.574  0.00  0.00    +0.000 N 
ATOM     25  H   UNL     1       9.097  -4.170  27.460  0.00  0.00    +0.000 HD
ATOM     26  C   UNL     1       8.921  -4.838  25.692  0.00  0.00    +0.000 C 
ATOM     27  O   UNL     1       9.904  -5.300  25.176  0.00  0.00    +0.000 OA
ATOM     28  N   UNL     1       7.696  -4.918  25.154  0.00  0.00    +0.000 N 
ATOM     29  H   UNL     1       7.181  -5.582  25.603  0.00  0.00    +0.000 HD
BRANCH  28  30
ATOM     30  C   UNL     1       7.447  -4.571  23.766  0.00  0.00    +0.000 C 
ATOM     31  C   UNL     1       7.316  -5.833  22.943  0.00  0.00    +0.000 C 
ATOM     32  C   UNL     1       7.066  -5.510  21.490  0.00  0.00    +0.000 C 
ATOM     33  C   UNL     1       5.972  -4.500  21.291  0.00  0.00    +0.000 C 
ATOM     34  C   UNL     1       5.257  -4.159  22.580  0.00  0.00    +0.000 C 
ATOM     35  C   UNL     1       6.276  -3.653  23.604  0.00  0.00    +0.000 C 
ENDBRANCH  28  30
ENDBRANCH  23  24
ENDBRANCH  22  23
ENDBRANCH   2  22
TORSDOF 6
ENDMDL
MODEL 4
REMARK VINA RESULT:      -7.9      1.870      2.790
REMARK  Name = 
REMARK  6 active torsions:
REMARK  status: ('A' for Active; 'I' for Inactive)
REMARK    1  A    between atoms: C_3  and  C_4
REMARK    2  A    between atoms: C_4  and  C_7
REMARK    3  A    between atoms: C_7  and  N_10
REMARK    4  A    between atoms: N_14  and  C_16
REMARK    5  A    between atoms: C_33  and  N_34
REMARK    6  A    between atoms: C_45  and  C_47
REMARK                            x       y       z     vdW  Elec       q    Type
REMARK                         _______ _______ _______ _____ _____    ______ ____
ROOT
ATOM      1  C   UNL     1       7.744   1.015  20.191  0.00  0.00    +0.000 C 
ATOM      2  C   UNL     1       8.113  -0.146  21.270  0.00  0.00    +0.000 C 
ATOM      3  C   UNL     1       7.091  -1.084  21.388  0.00  0.00    +0.000 C 
ATOM      4  N   UNL     1       6.096  -0.776  20.360  0.00  0.00    +0.000 N 
ATOM      5  H   UNL     1       6.251  -1.492  19.727  0.00  0.00    +0.000 HD
ATOM      6  C   UNL     1       6.273   0.604  19.863  0.00  0.00    +0.000 C 
ENDROOT
BRANCH   3   7
ATOM      7  N   UNL     1       6.343  -1.546  22.448  0.00  0.00    +0.000 N 
ATOM      8  H   UNL     1       5.542  -1.058  22.541  0.00  0.00    +0.000 HD
ATOM      9  C   UNL     1       6.134  -2.845  22.364  0.00  0.00    +0.000 C 
ATOM     10  O   UNL     1       5.512  -3.350  21.455  0.00  0.00    +0.000 OA
ATOM     11  N   UNL     1       6.323  -3.502  23.547  0.00  0.00    +0.000 N 
ATOM     12  C   UNL     1       5.657  -2.974  24.720  0.00  0.00    +0.000 C 
ATOM     13  C   UNL     1       5.808  -3.773  25.956  0.00  0.00    +0.000 C 
ATOM     14  C   UNL     1       6.453  -5.108  25.920  0.00  0.00    +0.000 C 
ATOM     15  C   UNL     1       7.144  -5.492  24.651  0.00  0.00    +0.000 C 
ATOM     16  C   UNL     1       6.409  -4.966  23.431  0.00  0.00    +0.000 C 
BRANCH  14  17
ATOM     17  C   UNL     1       7.442  -5.204  27.077  0.00  0.00    +0.000 C 
ATOM     18  O   UNL     1       7.159  -5.932  28.030  0.00  0.00    +0.000 OA
ATOM     19  N   UNL     1       8.750  -5.046  26.764  0.00  0.00    +0.000 N 
ATOM     20  H   UNL     1       9.059  -5.838  26.317  0.00  0.00    +0.000 HD
ATOM     21  H   UNL     1       9.222  -4.771  27.557  0.00  0.00    +0.000 HD
ENDBRANCH  14  17
ENDBRANCH   3   7
BRANCH   2  22
ATOM     22  C   UNL     1       9.607  -0.155  21.529  0.00  0.00    +0.000 C 
BRANCH  22  23
ATOM     23  C   UNL     1       9.774   0.118  23.017  0.00  0.00    +0.000 C 
BRANCH  23  24
ATOM     24  N   UNL     1      10.141  -1.051  23.792  0.00  0.00    +0.000 N 
ATOM     25  H   UNL     1      11.060  -1.321  23.862  0.00  0.00    +0.000 HD
ATOM     26  C   UNL     1       9.539  -1.228  24.993  0.00  0.00    +0.000 C 
ATOM     27  O   UNL     1       9.003  -2.264  25.283  0.00  0.00    +0.000 OA
ATOM     28  N   UNL     1       9.222  -0.050  25.548  0.00  0.00    +0.000 N 
ATOM     29  H   UNL     1       9.882   0.203  26.186  0.00  0.00    +0.000 HD
BRANCH  28  30
ATOM     30  C   UNL     1       7.843   0.395  25.661  0.00  0.00    +0.000 C 
ATOM     31  C   UNL     1       7.229  -0.175  26.921  0.00  0.00    +0.000 C 
ATOM     32  C   UNL     1       5.790   0.259  27.067  0.00  0.00    +0.000 C 
ATOM     33  C   UNL     1       5.599   1.736  26.872  0.00  0.00    +0.000 C 
ATOM     34  C   UNL     1       6.910   2.478  26.738  0.00  0.00    +0.000 C 
ATOM     35  C   UNL     1       7.711   1.883  25.577  0.00  0.00    +0.000 C 
ENDBRANCH  28  30
ENDBRANCH  23  24
ENDBRANCH  22  23
ENDBRANCH   2  22
TORSDOF 6
ENDMDL
MODEL 5
REMARK VINA RESULT:      -7.8      1.625      2.929
REMARK  Name = 
REMARK  6 active torsions:
REMARK  status: ('A' for Active; 'I' for Inactive)
REMARK    1  A    between atoms: C_3  and  C_4
REMARK    2  A    between atoms: C_4  and  C_7
REMARK    3  A    between atoms: C_7  and  N_10
REMARK    4  A    between atoms: N_14  and  C_16
REMARK    5  A    between atoms: C_33  and  N_34
REMARK    6  A    between atoms: C_45  and  C_47
REMARK                            x       y       z     vdW  Elec       q    Type
REMARK                         _______ _______ _______ _____ _____    ______ ____
ROOT
ATOM      1  C   UNL     1       6.906   0.759  19.513  0.00  0.00    +0.000 C 
ATOM      2  C   UNL     1       7.445  -0.341  20.583  0.00  0.00    +0.000 C 
ATOM      3  C   UNL     1       6.579  -1.425  20.689  0.00  0.00    +0.000 C 
ATOM      4  N   UNL     1       5.551  -1.264  19.660  0.00  0.00    +0.000 N 
ATOM      5  H   UNL     1       5.815  -1.943  19.022  0.00  0.00    +0.000 HD
ATOM      6  C   UNL     1       5.515   0.131  19.175  0.00  0.00    +0.000 C 
ENDROOT
BRANCH   3   7
ATOM      7  N   UNL     1       5.908  -2.006  21.742  0.00  0.00    +0.000 N 
ATOM      8  H   UNL     1       4.998  -1.762  21.746  0.00  0.00    +0.000 HD
ATOM      9  C   UNL     1       6.078  -3.314  21.763  0.00  0.00    +0.000 C 
ATOM     10  O   UNL     1       5.696  -4.038  20.869  0.00  0.00    +0.000 OA
ATOM     11  N   UNL     1       6.348  -3.806  23.009  0.00  0.00    +0.000 N 
ATOM     12  C   UNL     1       5.470  -3.409  24.091  0.00  0.00    +0.000 C 
ATOM     13  C   UNL     1       5.739  -4.043  25.400  0.00  0.00    +0.000 C 
ATOM     14  C   UNL     1       6.733  -5.138  25.520  0.00  0.00    +0.000 C 
ATOM     15  C   UNL     1       7.602  -5.396  24.331  0.00  0.00    +0.000 C 
ATOM     16  C   UNL     1       6.849  -5.189  23.030  0.00  0.00    +0.000 C 
BRANCH  14  17
ATOM     17  C   UNL     1       7.613  -4.867  26.735  0.00  0.00    +0.000 C 
ATOM     18  O   UNL     1       7.508  -5.610  27.713  0.00  0.00    +0.000 OA
ATOM     19  N   UNL     1       8.823  -4.309  26.488  0.00  0.00    +0.000 N 
ATOM     20  H   UNL     1       9.399  -4.977  26.107  0.00  0.00    +0.000 HD
ATOM     21  H   UNL     1       9.124  -3.867  27.289  0.00  0.00    +0.000 HD
ENDBRANCH  14  17
ENDBRANCH   3   7
BRANCH   2  22
ATOM     22  C   UNL     1       8.922  -0.123  20.848  0.00  0.00    +0.000 C 
BRANCH  22  23
ATOM     23  C   UNL     1       9.025   0.316  22.302  0.00  0.00    +0.000 C 
BRANCH  23  24
ATOM     24  N   UNL     1      10.298   0.921  22.644  0.00  0.00    +0.000 N 
ATOM     25  H   UNL     1      11.071   0.772  22.094  0.00  0.00    +0.000 HD
ATOM     26  C   UNL     1      10.294   2.212  23.055  0.00  0.00    +0.000 C 
ATOM     27  O   UNL     1      10.834   2.551  24.075  0.00  0.00    +0.000 OA
ATOM     28  N   UNL     1       9.286   2.892  22.491  0.00  0.00    +0.000 N 
ATOM     29  H   UNL     1       9.600   3.383  21.738  0.00  0.00    +0.000 HD
BRANCH  28  30
ATOM     30  C   UNL     1       8.135   3.330  23.261  0.00  0.00    +0.000 C 
ATOM     31  C   UNL     1       8.473   4.609  23.994  0.00  0.00    +0.000 C 
ATOM     32  C   UNL     1       7.300   5.090  24.815  0.00  0.00    +0.000 C 
ATOM     33  C   UNL     1       6.012   5.116  24.041  0.00  0.00    +0.000 C 
ATOM     34  C   UNL     1       6.212   4.814  22.573  0.00  0.00    +0.000 C 
ATOM     35  C   UNL     1       6.899   3.454  22.426  0.00  0.00    +0.000 C 
ENDBRANCH  28  30
ENDBRANCH  23  24
ENDBRANCH  22  23
ENDBRANCH   2  22
TORSDOF 6
ENDMDL
MODEL 6
REMARK VINA RESULT:      -7.8      2.071      6.821
REMARK  Name = 
REMARK  6 active torsions:
REMARK  status: ('A' for Active; 'I' for Inactive)
REMARK    1  A    between atoms: C_3  and  C_4
REMARK    2  A    between atoms: C_4  and  C_7
REMARK    3  A    between atoms: C_7  and  N_10
REMARK    4  A    between atoms: N_14  and  C_16
REMARK    5  A    between atoms: C_33  and  N_34
REMARK    6  A    between atoms: C_45  and  C_47
REMARK                            x       y       z     vdW  Elec       q    Type
REMARK                         _______ _______ _______ _____ _____    ______ ____
ROOT
ATOM      1  C   UNL     1       7.895  -1.303  26.853  0.00  0.00    +0.000 C 
ATOM      2  C   UNL     1       8.607  -0.788  25.485  0.00  0.00    +0.000 C 
ATOM      3  C   UNL     1       8.372   0.565  25.258  0.00  0.00    +0.000 C 
ATOM      4  N   UNL     1       7.689   1.092  26.440  0.00  0.00    +0.000 N 
ATOM      5  H   UNL     1       8.396   1.608  26.852  0.00  0.00    +0.000 HD
ATOM      6  C   UNL     1       7.111  -0.008  27.239  0.00  0.00    +0.000 C 
ENDROOT
BRANCH   3   7
ATOM      7  N   UNL     1       7.822   1.272  24.212  0.00  0.00    +0.000 N 
ATOM      8  H   UNL     1       7.571   2.140  24.479  0.00  0.00    +0.000 HD
ATOM      9  C   UNL     1       8.618   1.278  23.160  0.00  0.00    +0.000 C 
ATOM     10  O   UNL     1       9.719   1.784  23.176  0.00  0.00    +0.000 OA
ATOM     11  N   UNL     1       7.965   1.034  21.984  0.00  0.00    +0.000 N 
ATOM     12  C   UNL     1       6.777   1.814  21.704  0.00  0.00    +0.000 C 
ATOM     13  C   UNL     1       6.160   1.589  20.378  0.00  0.00    +0.000 C 
ATOM     14  C   UNL     1       6.839   0.748  19.362  0.00  0.00    +0.000 C 
ATOM     15  C   UNL     1       8.027  -0.038  19.817  0.00  0.00    +0.000 C 
ATOM     16  C   UNL     1       8.843   0.723  20.846  0.00  0.00    +0.000 C 
BRANCH  14  17
ATOM     17  C   UNL     1       5.814  -0.202  18.751  0.00  0.00    +0.000 C 
ATOM     18  O   UNL     1       5.798  -0.336  17.526  0.00  0.00    +0.000 OA
ATOM     19  N   UNL     1       5.449  -1.261  19.512  0.00  0.00    +0.000 N 
ATOM     20  H   UNL     1       6.167  -1.898  19.520  0.00  0.00    +0.000 HD
ATOM     21  H   UNL     1       4.587  -1.568  19.212  0.00  0.00    +0.000 HD
ENDBRANCH  14  17
ENDBRANCH   3   7
BRANCH   2  22
ATOM     22  C   UNL     1       9.679  -1.773  25.057  0.00  0.00    +0.000 C 
BRANCH  22  23
ATOM     23  C   UNL     1       8.966  -2.833  24.229  0.00  0.00    +0.000 C 
BRANCH  23  24
ATOM     24  N   UNL     1       8.486  -2.352  22.948  0.00  0.00    +0.000 N 
ATOM     25  H   UNL     1       9.062  -2.357  22.180  0.00  0.00    +0.000 HD
ATOM     26  C   UNL     1       7.239  -2.716  22.564  0.00  0.00    +0.000 C 
ATOM     27  O   UNL     1       6.428  -1.904  22.204  0.00  0.00    +0.000 OA
ATOM     28  N   UNL     1       6.912  -3.914  23.068  0.00  0.00    +0.000 N 
ATOM     29  H   UNL     1       7.051  -4.595  22.417  0.00  0.00    +0.000 HD
BRANCH  28  30
ATOM     30  C   UNL     1       5.918  -4.056  24.118  0.00  0.00    +0.000 C 
ATOM     31  C   UNL     1       4.556  -4.276  23.500  0.00  0.00    +0.000 C 
ATOM     32  C   UNL     1       3.494  -4.419  24.565  0.00  0.00    +0.000 C 
ATOM     33  C   UNL     1       3.871  -5.391  25.646  0.00  0.00    +0.000 C 
ATOM     34  C   UNL     1       5.154  -6.130  25.339  0.00  0.00    +0.000 C 
ATOM     35  C   UNL     1       6.279  -5.116  25.111  0.00  0.00    +0.000 C 
ENDBRANCH  28  30
ENDBRANCH  23  24
ENDBRANCH  22  23
ENDBRANCH   2  22
TORSDOF 6
ENDMDL
MODEL 7
REMARK VINA RESULT:      -7.7      2.701      7.645
REMARK  Name = 
REMARK  6 active torsions:
REMARK  status: ('A' for Active; 'I' for Inactive)
REMARK    1  A    between atoms: C_3  and  C_4
REMARK    2  A    between atoms: C_4  and  C_7
REMARK    3  A    between atoms: C_7  and  N_10
REMARK    4  A    between atoms: N_14  and  C_16
REMARK    5  A    between atoms: C_33  and  N_34
REMARK    6  A    between atoms: C_45  and  C_47
REMARK                            x       y       z     vdW  Elec       q    Type
REMARK                         _______ _______ _______ _____ _____    ______ ____
ROOT
ATOM      1  C   UNL     1       6.780  -4.016  26.043  0.00  0.00    +0.000 C 
ATOM      2  C   UNL     1       7.769  -3.217  25.029  0.00  0.00    +0.000 C 
ATOM      3  C   UNL     1       7.857  -1.866  25.351  0.00  0.00    +0.000 C 
ATOM      4  N   UNL     1       7.141  -1.672  26.613  0.00  0.00    +0.000 N 
ATOM      5  H   UNL     1       7.876  -1.542  27.228  0.00  0.00    +0.000 HD
ATOM      6  C   UNL     1       6.240  -2.811  26.879  0.00  0.00    +0.000 C 
ENDROOT
BRANCH   3   7
ATOM      7  N   UNL     1       7.621  -0.705  24.651  0.00  0.00    +0.000 N 
ATOM      8  H   UNL     1       7.498   0.027  25.231  0.00  0.00    +0.000 HD
ATOM      9  C   UNL     1       8.558  -0.482  23.751  0.00  0.00    +0.000 C 
ATOM     10  O   UNL     1       9.718  -0.294  24.047  0.00  0.00    +0.000 OA
ATOM     11  N   UNL     1       8.064  -0.096  22.536  0.00  0.00    +0.000 N 
ATOM     12  C   UNL     1       7.101   0.987  22.519  0.00  0.00    +0.000 C 
ATOM     13  C   UNL     1       6.669   1.439  21.179  0.00  0.00    +0.000 C 
ATOM     14  C   UNL     1       7.329   0.919  19.956  0.00  0.00    +0.000 C 
ATOM     15  C   UNL     1       8.262  -0.236  20.130  0.00  0.00    +0.000 C 
ATOM     16  C   UNL     1       9.035  -0.142  21.433  0.00  0.00    +0.000 C 
BRANCH  14  17
ATOM     17  C   UNL     1       6.253   0.545  18.941  0.00  0.00    +0.000 C 
ATOM     18  O   UNL     1       6.492   0.716  17.745  0.00  0.00    +0.000 OA
ATOM     19  N   UNL     1       5.431  -0.474  19.287  0.00  0.00    +0.000 N 
ATOM     20  H   UNL     1       5.914  -1.300  19.213  0.00  0.00    +0.000 HD
ATOM     21  H   UNL     1       4.614  -0.390  18.783  0.00  0.00    +0.000 HD
ENDBRANCH  14  17
ENDBRANCH   3   7
BRANCH   2  22
ATOM     22  C   UNL     1       8.659  -4.201  24.294  0.00  0.00    +0.000 C 
BRANCH  22  23
ATOM     23  C   UNL     1       7.723  -5.232  23.678  0.00  0.00    +0.000 C 
BRANCH  23  24
ATOM     24  N   UNL     1       7.332  -4.930  22.315  0.00  0.00    +0.000 N 
ATOM     25  H   UNL     1       7.891  -5.189  21.579  0.00  0.00    +0.000 HD
ATOM     26  C   UNL     1       6.035  -5.128  21.972  0.00  0.00    +0.000 C 
ATOM     27  O   UNL     1       5.386  -4.267  21.439  0.00  0.00    +0.000 OA
ATOM     28  N   UNL     1       5.497  -6.125  22.687  0.00  0.00    +0.000 N 
ATOM     29  H   UNL     1       5.504  -6.933  22.183  0.00  0.00    +0.000 HD
BRANCH  28  30
ATOM     30  C   UNL     1       4.502  -5.877  23.716  0.00  0.00    +0.000 C 
ATOM     31  C   UNL     1       3.119  -5.912  23.103  0.00  0.00    +0.000 C 
ATOM     32  C   UNL     1       2.057  -5.647  24.143  0.00  0.00    +0.000 C 
ATOM     33  C   UNL     1       2.229  -6.477  25.383  0.00  0.00    +0.000 C 
ATOM     34  C   UNL     1       3.327  -7.508  25.243  0.00  0.00    +0.000 C 
ATOM     35  C   UNL     1       4.638  -6.804  24.883  0.00  0.00    +0.000 C 
ENDBRANCH  28  30
ENDBRANCH  23  24
ENDBRANCH  22  23
ENDBRANCH   2  22
TORSDOF 6
ENDMDL
MODEL 8
REMARK VINA RESULT:      -7.3      2.485      5.109
REMARK  Name = 
REMARK  6 active torsions:
REMARK  status: ('A' for Active; 'I' for Inactive)
REMARK    1  A    between atoms: C_3  and  C_4
REMARK    2  A    between atoms: C_4  and  C_7
REMARK    3  A    between atoms: C_7  and  N_10
REMARK    4  A    between atoms: N_14  and  C_16
REMARK    5  A    between atoms: C_33  and  N_34
REMARK    6  A    between atoms: C_45  and  C_47
REMARK                            x       y       z     vdW  Elec       q    Type
REMARK                         _______ _______ _______ _____ _____    ______ ____
ROOT
ATOM      1  C   UNL     1       9.518   1.973  23.843  0.00  0.00    +0.000 C 
ATOM      2  C   UNL     1       8.451   1.006  24.599  0.00  0.00    +0.000 C 
ATOM      3  C   UNL     1       9.088   0.050  25.385  0.00  0.00    +0.000 C 
ATOM      4  N   UNL     1      10.518   0.364  25.380  0.00  0.00    +0.000 N 
ATOM      5  H   UNL     1      10.636   0.718  26.273  0.00  0.00    +0.000 HD
ATOM      6  C   UNL     1      10.848   1.263  24.255  0.00  0.00    +0.000 C 
ENDROOT
BRANCH   3   7
ATOM      7  N   UNL     1       9.049  -1.326  25.427  0.00  0.00    +0.000 N 
ATOM      8  H   UNL     1       9.710  -1.671  26.003  0.00  0.00    +0.000 HD
ATOM      9  C   UNL     1       7.842  -1.768  25.723  0.00  0.00    +0.000 C 
ATOM     10  O   UNL     1       7.299  -1.528  26.779  0.00  0.00    +0.000 OA
ATOM     11  N   UNL     1       7.438  -2.809  24.936  0.00  0.00    +0.000 N 
ATOM     12  C   UNL     1       8.347  -3.928  24.788  0.00  0.00    +0.000 C 
ATOM     13  C   UNL     1       7.829  -5.076  24.011  0.00  0.00    +0.000 C 
ATOM     14  C   UNL     1       6.409  -5.118  23.579  0.00  0.00    +0.000 C 
ATOM     15  C   UNL     1       5.612  -3.866  23.753  0.00  0.00    +0.000 C 
ATOM     16  C   UNL     1       6.003  -3.121  25.017  0.00  0.00    +0.000 C 
BRANCH  14  17
ATOM     17  C   UNL     1       6.356  -5.547  22.117  0.00  0.00    +0.000 C 
ATOM     18  O   UNL     1       7.415  -5.635  21.493  0.00  0.00    +0.000 OA
ATOM     19  N   UNL     1       5.344  -6.378  21.772  0.00  0.00    +0.000 N 
ATOM     20  H   UNL     1       5.533  -7.255  22.115  0.00  0.00    +0.000 HD
ATOM     21  H   UNL     1       5.192  -6.296  20.824  0.00  0.00    +0.000 HD
ENDBRANCH  14  17
ENDBRANCH   3   7
BRANCH   2  22
ATOM     22  C   UNL     1       7.080   1.654  24.606  0.00  0.00    +0.000 C 
BRANCH  22  23
ATOM     23  C   UNL     1       7.150   2.790  23.595  0.00  0.00    +0.000 C 
BRANCH  23  24
ATOM     24  N   UNL     1       5.920   3.548  23.477  0.00  0.00    +0.000 N 
ATOM     25  H   UNL     1       5.900   4.483  23.698  0.00  0.00    +0.000 HD
ATOM     26  C   UNL     1       5.153   3.341  22.379  0.00  0.00    +0.000 C 
ATOM     27  O   UNL     1       3.980   3.088  22.468  0.00  0.00    +0.000 OA
ATOM     28  N   UNL     1       5.906   2.996  21.326  0.00  0.00    +0.000 N 
ATOM     29  H   UNL     1       6.069   3.755  20.774  0.00  0.00    +0.000 HD
BRANCH  28  30
ATOM     30  C   UNL     1       5.890   1.648  20.784  0.00  0.00    +0.000 C 
ATOM     31  C   UNL     1       5.287   1.668  19.397  0.00  0.00    +0.000 C 
ATOM     32  C   UNL     1       5.245   0.279  18.804  0.00  0.00    +0.000 C 
ATOM     33  C   UNL     1       6.552  -0.452  18.924  0.00  0.00    +0.000 C 
ATOM     34  C   UNL     1       7.660   0.426  19.462  0.00  0.00    +0.000 C 
ATOM     35  C   UNL     1       7.238   0.999  20.817  0.00  0.00    +0.000 C 
ENDBRANCH  28  30
ENDBRANCH  23  24
ENDBRANCH  22  23
ENDBRANCH   2  22
TORSDOF 6
ENDMDL
MODEL 9
REMARK VINA RESULT:      -7.2      2.486      7.215
REMARK  Name = 
REMARK  6 active torsions:
REMARK  status: ('A' for Active; 'I' for Inactive)
REMARK    1  A    between atoms: C_3  and  C_4
REMARK    2  A    between atoms: C_4  and  C_7
REMARK    3  A    between atoms: C_7  and  N_10
REMARK    4  A    between atoms: N_14  and  C_16
REMARK    5  A    between atoms: C_33  and  N_34
REMARK    6  A    between atoms: C_45  and  C_47
REMARK                            x       y       z     vdW  Elec       q    Type
REMARK                         _______ _______ _______ _____ _____    ______ ____
ROOT
ATOM      1  C   UNL     1       5.536   0.091  28.424  0.00  0.00    +0.000 C 
ATOM      2  C   UNL     1       6.084  -0.450  26.992  0.00  0.00    +0.000 C 
ATOM      3  C   UNL     1       7.301   0.134  26.652  0.00  0.00    +0.000 C 
ATOM      4  N   UNL     1       7.743   0.922  27.803  0.00  0.00    +0.000 N 
ATOM      5  H   UNL     1       8.463   0.371  28.142  0.00  0.00    +0.000 HD
ATOM      6  C   UNL     1       6.614   1.183  28.718  0.00  0.00    +0.000 C 
ENDROOT
BRANCH   3   7
ATOM      7  N   UNL     1       7.736   0.859  25.564  0.00  0.00    +0.000 N 
ATOM      8  H   UNL     1       8.010   1.724  25.817  0.00  0.00    +0.000 HD
ATOM      9  C   UNL     1       8.667   0.211  24.891  0.00  0.00    +0.000 C 
ATOM     10  O   UNL     1       9.741  -0.077  25.373  0.00  0.00    +0.000 OA
ATOM     11  N   UNL     1       8.481   0.247  23.538  0.00  0.00    +0.000 N 
ATOM     12  C   UNL     1       8.246   1.540  22.928  0.00  0.00    +0.000 C 
ATOM     13  C   UNL     1       8.151   1.545  21.452  0.00  0.00    +0.000 C 
ATOM     14  C   UNL     1       8.457   0.321  20.670  0.00  0.00    +0.000 C 
ATOM     15  C   UNL     1       8.625  -0.950  21.440  0.00  0.00    +0.000 C 
ATOM     16  C   UNL     1       9.301  -0.710  22.778  0.00  0.00    +0.000 C 
BRANCH  14  17
ATOM     17  C   UNL     1       7.370   0.129  19.618  0.00  0.00    +0.000 C 
ATOM     18  O   UNL     1       7.707   0.042  18.436  0.00  0.00    +0.000 OA
ATOM     19  N   UNL     1       6.263  -0.544  20.014  0.00  0.00    +0.000 N 
ATOM     20  H   UNL     1       6.479  -1.477  20.091  0.00  0.00    +0.000 HD
ATOM     21  H   UNL     1       5.536  -0.303  19.432  0.00  0.00    +0.000 HD
ENDBRANCH  14  17
ENDBRANCH   3   7
BRANCH   2  22
ATOM     22  C   UNL     1       5.376  -1.739  26.620  0.00  0.00    +0.000 C 
BRANCH  22  23
ATOM     23  C   UNL     1       6.475  -2.751  26.329  0.00  0.00    +0.000 C 
BRANCH  23  24
ATOM     24  N   UNL     1       6.556  -3.825  27.299  0.00  0.00    +0.000 N 
ATOM     25  H   UNL     1       6.044  -3.788  28.111  0.00  0.00    +0.000 HD
ATOM     26  C   UNL     1       6.550  -5.098  26.834  0.00  0.00    +0.000 C 
ATOM     27  O   UNL     1       7.391  -5.893  27.163  0.00  0.00    +0.000 OA
ATOM     28  N   UNL     1       5.851  -5.189  25.695  0.00  0.00    +0.000 N 
ATOM     29  H   UNL     1       4.970  -5.505  25.873  0.00  0.00    +0.000 HD
BRANCH  28  30
ATOM     30  C   UNL     1       6.501  -5.422  24.416  0.00  0.00    +0.000 C 
ATOM     31  C   UNL     1       5.498  -5.982  23.433  0.00  0.00    +0.000 C 
ATOM     32  C   UNL     1       6.141  -6.246  22.092  0.00  0.00    +0.000 C 
ATOM     33  C   UNL     1       6.952  -5.086  21.590  0.00  0.00    +0.000 C 
ATOM     34  C   UNL     1       6.806  -3.857  22.459  0.00  0.00    +0.000 C 
ATOM     35  C   UNL     1       7.200  -4.205  23.897  0.00  0.00    +0.000 C 
ENDBRANCH  28  30
ENDBRANCH  23  24
ENDBRANCH  22  23
ENDBRANCH   2  22
TORSDOF 6
ENDMDL
