MODEL 1
REMARK VINA RESULT:      -8.6      0.000      0.000
REMARK  Name = 
REMARK  7 active torsions:
REMARK  status: ('A' for Active; 'I' for Inactive)
REMARK    1  A    between atoms: O_2  and  C_3
REMARK    2  A    between atoms: C_12  and  N_13
REMARK    3  A    between atoms: C_15  and  C_17
REMARK    4  A    between atoms: C_26  and  C_28
REMARK    5  A    between atoms: C_28  and  C_31
REMARK    6  A    between atoms: N_33  and  C_35
REMARK    7  A    between atoms: C_35  and  C_38
REMARK                            x       y       z     vdW  Elec       q    Type
REMARK                         _______ _______ _______ _____ _____    ______ ____
ROOT
ATOM      1  C   UNL     1       5.551  -3.249  22.645  0.00  0.00    +0.000 C 
ATOM      2  C   UNL     1       5.863  -4.637  22.234  0.00  0.00    +0.000 C 
ATOM      3  C   UNL     1       5.972  -5.711  23.276  0.00  0.00    +0.000 C 
ATOM      4  N   UNL     1       5.627  -5.203  24.595  0.00  0.00    +0.000 N 
ATOM      5  C   UNL     1       6.342  -5.535  25.670  0.00  0.00    +0.000 C 
ATOM      6  O   UNL     1       5.978  -6.497  26.356  0.00  0.00    +0.000 OA
ATOM      7  C   UNL     1       4.489  -4.312  24.659  0.00  0.00    +0.000 C 
ATOM      8  C   UNL     1       4.940  -3.000  23.953  0.00  0.00    +0.000 C 
ENDROOT
BRANCH   1  11
ATOM      9  N   UNL     1       6.635  -1.185  21.779  0.00  0.00    +0.000 N 
ATOM     10  H   UNL     1       7.269  -0.551  22.079  0.00  0.00    +0.000 HD
ATOM     11  C   UNL     1       6.754  -2.364  22.346  0.00  0.00    +0.000 C 
ATOM     12  O   UNL     1       7.882  -2.907  22.271  0.00  0.00    +0.000 OA
BRANCH   9  18
ATOM     13  C   UNL     1       5.608  -1.477  19.572  0.00  0.00    +0.000 A 
ATOM     14  C   UNL     1       5.321  -0.251  18.715  0.00  0.00    +0.000 A 
ATOM     15  C   UNL     1       6.201   0.931  18.478  0.00  0.00    +0.000 A 
ATOM     16  C   UNL     1       7.434   0.644  19.259  0.00  0.00    +0.000 A 
ATOM     17  C   UNL     1       8.008  -0.331  20.086  0.00  0.00    +0.000 A 
ATOM     18  C   UNL     1       6.802  -1.310  20.392  0.00  0.00    +0.000 A 
BRANCH  13  20
ATOM     19  H   UNL     1       5.502  -2.085  17.781  0.00  0.00    +0.000 HD
ATOM     20  O   UNL     1       5.404  -2.439  18.642  0.00  0.00    +0.000 OA
ENDBRANCH  13  20
ENDBRANCH   9  18
ENDBRANCH   1  11
BRANCH   5  21
ATOM     21  C   UNL     1       7.293  -4.526  26.238  0.00  0.00    +0.000 C 
BRANCH  21  22
ATOM     22  C   UNL     1       8.434  -4.213  25.335  0.00  0.00    +0.000 C 
ATOM     23  O   UNL     1       8.889  -5.094  24.580  0.00  0.00    +0.000 OA
ATOM     24  N   UNL     1       8.885  -2.972  25.202  0.00  0.00    +0.000 N 
ATOM     25  H   UNL     1       9.849  -2.993  25.084  0.00  0.00    +0.000 HD
BRANCH  24  26
ATOM     26  C   UNL     1       8.185  -1.763  25.400  0.00  0.00    +0.000 C 
BRANCH  26  27
ATOM     27  C   UNL     1       9.137  -0.557  25.384  0.00  0.00    +0.000 A 
ATOM     28  C   UNL     1      10.011  -0.888  24.182  0.00  0.00    +0.000 A 
ATOM     29  C   UNL     1      10.195  -0.116  22.973  0.00  0.00    +0.000 A 
ATOM     30  C   UNL     1       9.629   1.251  23.087  0.00  0.00    +0.000 A 
ATOM     31  C   UNL     1       8.809   1.810  24.315  0.00  0.00    +0.000 A 
ATOM     32  C   UNL     1       8.768   0.834  25.492  0.00  0.00    +0.000 A 
ATOM     33  O   UNL     1       9.265   3.116  24.444  0.00  0.00    +0.000 OA
ATOM     34  C   UNL     1      10.265   3.442  23.493  0.00  0.00    +0.000 C 
ATOM     35  O   UNL     1      10.512   2.300  22.672  0.00  0.00    +0.000 OA
ENDBRANCH  26  27
ENDBRANCH  24  26
ENDBRANCH  21  22
ENDBRANCH   5  21
TORSDOF 7
ENDMDL
MODEL 2
REMARK VINA RESULT:      -7.9      2.366      5.797
REMARK  Name = 
REMARK  7 active torsions:
REMARK  status: ('A' for Active; 'I' for Inactive)
REMARK    1  A    between atoms: O_2  and  C_3
REMARK    2  A    between atoms: C_12  and  N_13
REMARK    3  A    between atoms: C_15  and  C_17
REMARK    4  A    between atoms: C_26  and  C_28
REMARK    5  A    between atoms: C_28  and  C_31
REMARK    6  A    between atoms: N_33  and  C_35
REMARK    7  A    between atoms: C_35  and  C_38
REMARK                            x       y       z     vdW  Elec       q    Type
REMARK                         _______ _______ _______ _____ _____    ______ ____
ROOT
ATOM      1  C   UNL     1       6.839  -4.118  23.564  0.00  0.00    +0.000 C 
ATOM      2  C   UNL     1       7.722  -3.446  22.584  0.00  0.00    +0.000 C 
ATOM      3  C   UNL     1       8.667  -2.378  23.050  0.00  0.00    +0.000 C 
ATOM      4  N   UNL     1       8.636  -2.242  24.499  0.00  0.00    +0.000 N 
ATOM      5  C   UNL     1       8.639  -1.041  25.078  0.00  0.00    +0.000 C 
ATOM      6  O   UNL     1       9.717  -0.550  25.429  0.00  0.00    +0.000 OA
ATOM      7  C   UNL     1       8.582  -3.474  25.255  0.00  0.00    +0.000 C 
ATOM      8  C   UNL     1       7.168  -4.070  24.991  0.00  0.00    +0.000 C 
ENDROOT
BRANCH   1  11
ATOM      9  N   UNL     1       4.413  -3.992  24.097  0.00  0.00    +0.000 N 
ATOM     10  H   UNL     1       3.726  -3.343  24.072  0.00  0.00    +0.000 HD
ATOM     11  C   UNL     1       5.392  -3.760  23.252  0.00  0.00    +0.000 C 
ATOM     12  O   UNL     1       5.067  -3.613  22.050  0.00  0.00    +0.000 OA
BRANCH   9  18
ATOM     13  C   UNL     1       4.364  -6.417  24.455  0.00  0.00    +0.000 A 
ATOM     14  C   UNL     1       3.407  -6.999  25.486  0.00  0.00    +0.000 A 
ATOM     15  C   UNL     1       1.978  -6.636  25.721  0.00  0.00    +0.000 A 
ATOM     16  C   UNL     1       1.687  -5.581  24.714  0.00  0.00    +0.000 A 
ATOM     17  C   UNL     1       2.286  -4.869  23.665  0.00  0.00    +0.000 A 
ATOM     18  C   UNL     1       3.821  -5.229  23.806  0.00  0.00    +0.000 A 
BRANCH  13  20
ATOM     19  H   UNL     1       4.389  -7.597  22.974  0.00  0.00    +0.000 HD
ATOM     20  O   UNL     1       4.740  -7.563  23.841  0.00  0.00    +0.000 OA
ENDBRANCH  13  20
ENDBRANCH   9  18
ENDBRANCH   1  11
BRANCH   5  21
ATOM     21  C   UNL     1       7.356  -0.517  25.647  0.00  0.00    +0.000 C 
BRANCH  21  22
ATOM     22  C   UNL     1       6.255  -0.433  24.648  0.00  0.00    +0.000 C 
ATOM     23  O   UNL     1       5.172  -1.009  24.867  0.00  0.00    +0.000 OA
ATOM     24  N   UNL     1       6.343   0.368  23.594  0.00  0.00    +0.000 N 
ATOM     25  H   UNL     1       5.910  -0.055  22.834  0.00  0.00    +0.000 HD
BRANCH  24  26
ATOM     26  C   UNL     1       7.102   1.549  23.455  0.00  0.00    +0.000 C 
BRANCH  26  27
ATOM     27  C   UNL     1       7.182   1.994  21.987  0.00  0.00    +0.000 A 
ATOM     28  C   UNL     1       8.307   1.107  21.471  0.00  0.00    +0.000 A 
ATOM     29  C   UNL     1       8.257   0.130  20.407  0.00  0.00    +0.000 A 
ATOM     30  C   UNL     1       7.007   0.228  19.613  0.00  0.00    +0.000 A 
ATOM     31  C   UNL     1       5.790   1.185  19.922  0.00  0.00    +0.000 A 
ATOM     32  C   UNL     1       6.077   2.152  21.072  0.00  0.00    +0.000 A 
ATOM     33  O   UNL     1       5.389   1.619  18.665  0.00  0.00    +0.000 OA
ATOM     34  C   UNL     1       6.193   1.091  17.622  0.00  0.00    +0.000 C 
ATOM     35  O   UNL     1       7.201   0.256  18.193  0.00  0.00    +0.000 OA
ENDBRANCH  26  27
ENDBRANCH  24  26
ENDBRANCH  21  22
ENDBRANCH   5  21
TORSDOF 7
ENDMDL
MODEL 3
REMARK VINA RESULT:      -7.7      2.520      6.595
REMARK  Name = 
REMARK  7 active torsions:
REMARK  status: ('A' for Active; 'I' for Inactive)
REMARK    1  A    between atoms: O_2  and  C_3
REMARK    2  A    between atoms: C_12  and  N_13
REMARK    3  A    between atoms: C_15  and  C_17
REMARK    4  A    between atoms: C_26  and  C_28
REMARK    5  A    between atoms: C_28  and  C_31
REMARK    6  A    between atoms: N_33  and  C_35
REMARK    7  A    between atoms: C_35  and  C_38
REMARK                            x       y       z     vdW  Elec       q    Type
REMARK                         _______ _______ _______ _____ _____    ______ ____
ROOT
ATOM      1  C   UNL     1       6.734  -4.736  25.000  0.00  0.00    +0.000 C 
ATOM      2  C   UNL     1       6.613  -4.513  23.541  0.00  0.00    +0.000 C 
ATOM      3  C   UNL     1       7.664  -3.718  22.825  0.00  0.00    +0.000 C 
ATOM      4  N   UNL     1       8.757  -3.362  23.718  0.00  0.00    +0.000 N 
ATOM      5  C   UNL     1       9.297  -2.144  23.693  0.00  0.00    +0.000 C 
ATOM      6  O   UNL     1      10.300  -1.949  22.996  0.00  0.00    +0.000 OA
ATOM      7  C   UNL     1       9.196  -4.393  24.633  0.00  0.00    +0.000 C 
ATOM      8  C   UNL     1       8.035  -4.572  25.654  0.00  0.00    +0.000 C 
ENDROOT
BRANCH   1  11
ATOM      9  N   UNL     1       5.593  -3.799  27.002  0.00  0.00    +0.000 N 
ATOM     10  H   UNL     1       5.181  -2.986  27.254  0.00  0.00    +0.000 HD
ATOM     11  C   UNL     1       5.593  -4.014  25.706  0.00  0.00    +0.000 C 
ATOM     12  O   UNL     1       4.477  -3.974  25.135  0.00  0.00    +0.000 OA
BRANCH   9  18
ATOM     13  C   UNL     1       5.632  -6.050  27.971  0.00  0.00    +0.000 A 
ATOM     14  C   UNL     1       5.855  -6.214  29.468  0.00  0.00    +0.000 A 
ATOM     15  C   UNL     1       5.247  -5.424  30.580  0.00  0.00    +0.000 A 
ATOM     16  C   UNL     1       4.361  -4.441  29.901  0.00  0.00    +0.000 A 
ATOM     17  C   UNL     1       3.926  -4.050  28.626  0.00  0.00    +0.000 A 
ATOM     18  C   UNL     1       4.901  -4.830  27.652  0.00  0.00    +0.000 A 
BRANCH  13  20
ATOM     19  H   UNL     1       5.489  -7.897  28.366  0.00  0.00    +0.000 HD
ATOM     20  O   UNL     1       5.250  -7.314  27.673  0.00  0.00    +0.000 OA
ENDBRANCH  13  20
ENDBRANCH   9  18
ENDBRANCH   1  11
BRANCH   5  21
ATOM     21  C   UNL     1       8.946  -1.181  24.786  0.00  0.00    +0.000 C 
BRANCH  21  22
ATOM     22  C   UNL     1       7.572  -0.620  24.663  0.00  0.00    +0.000 C 
ATOM     23  O   UNL     1       6.659  -1.049  25.394  0.00  0.00    +0.000 OA
ATOM     24  N   UNL     1       7.325   0.433  23.896  0.00  0.00    +0.000 N 
ATOM     25  H   UNL     1       6.448   0.335  23.490  0.00  0.00    +0.000 HD
BRANCH  24  26
ATOM     26  C   UNL     1       8.213   1.459  23.509  0.00  0.00    +0.000 C 
BRANCH  26  27
ATOM     27  C   UNL     1       8.013   1.847  22.036  0.00  0.00    +0.000 A 
ATOM     28  C   UNL     1       8.908   0.831  21.340  0.00  0.00    +0.000 A 
ATOM     29  C   UNL     1       8.533  -0.167  20.364  0.00  0.00    +0.000 A 
ATOM     30  C   UNL     1       7.155   0.037  19.852  0.00  0.00    +0.000 A 
ATOM     31  C   UNL     1       6.133   1.126  20.363  0.00  0.00    +0.000 A 
ATOM     32  C   UNL     1       6.756   2.093  21.372  0.00  0.00    +0.000 A 
ATOM     33  O   UNL     1       5.511   1.561  19.200  0.00  0.00    +0.000 OA
ATOM     34  C   UNL     1       6.012   0.918  18.039  0.00  0.00    +0.000 C 
ATOM     35  O   UNL     1       7.036  -0.000  18.425  0.00  0.00    +0.000 OA
ENDBRANCH  26  27
ENDBRANCH  24  26
ENDBRANCH  21  22
ENDBRANCH   5  21
TORSDOF 7
ENDMDL
MODEL 4
REMARK VINA RESULT:      -7.6      2.270      5.764
REMARK  Name = 
REMARK  7 active torsions:
REMARK  status: ('A' for Active; 'I' for Inactive)
REMARK    1  A    between atoms: O_2  and  C_3
REMARK    2  A    between atoms: C_12  and  N_13
REMARK    3  A    between atoms: C_15  and  C_17
REMARK    4  A    between atoms: C_26  and  C_28
REMARK    5  A    between atoms: C_28  and  C_31
REMARK    6  A    between atoms: N_33  and  C_35
REMARK    7  A    between atoms: C_35  and  C_38
REMARK                            x       y       z     vdW  Elec       q    Type
REMARK                         _______ _______ _______ _____ _____    ______ ____
ROOT
ATOM      1  C   UNL     1      10.211   0.715  23.069  0.00  0.00    +0.000 C 
ATOM      2  C   UNL     1       9.693   2.032  23.504  0.00  0.00    +0.000 C 
ATOM      3  C   UNL     1       8.738   2.106  24.658  0.00  0.00    +0.000 C 
ATOM      4  N   UNL     1       8.544   0.799  25.268  0.00  0.00    +0.000 N 
ATOM      5  C   UNL     1       7.333   0.384  25.639  0.00  0.00    +0.000 C 
ATOM      6  O   UNL     1       6.970   0.568  26.806  0.00  0.00    +0.000 OA
ATOM      7  C   UNL     1       9.730  -0.014  25.425  0.00  0.00    +0.000 C 
ATOM      8  C   UNL     1      10.151  -0.428  23.984  0.00  0.00    +0.000 C 
ENDROOT
BRANCH   1  11
ATOM      9  N   UNL     1       8.870   1.228  21.037  0.00  0.00    +0.000 N 
ATOM     10  H   UNL     1       9.001   1.246  20.101  0.00  0.00    +0.000 HD
ATOM     11  C   UNL     1       9.684   0.415  21.671  0.00  0.00    +0.000 C 
ATOM     12  O   UNL     1       9.699  -0.776  21.278  0.00  0.00    +0.000 OA
BRANCH   9  18
ATOM     13  C   UNL     1       6.590   1.856  21.685  0.00  0.00    +0.000 A 
ATOM     14  C   UNL     1       5.569   2.177  20.603  0.00  0.00    +0.000 A 
ATOM     15  C   UNL     1       5.323   1.444  19.325  0.00  0.00    +0.000 A 
ATOM     16  C   UNL     1       6.293   0.317  19.345  0.00  0.00    +0.000 A 
ATOM     17  C   UNL     1       7.297  -0.254  20.140  0.00  0.00    +0.000 A 
ATOM     18  C   UNL     1       7.543   0.836  21.261  0.00  0.00    +0.000 A 
BRANCH  13  20
ATOM     19  H   UNL     1       5.033   2.363  22.637  0.00  0.00    +0.000 HD
ATOM     20  O   UNL     1       5.756   1.779  22.749  0.00  0.00    +0.000 OA
ENDBRANCH  13  20
ENDBRANCH   9  18
ENDBRANCH   1  11
BRANCH   5  21
ATOM     21  C   UNL     1       6.629  -0.625  24.785  0.00  0.00    +0.000 C 
BRANCH  21  22
ATOM     22  C   UNL     1       5.830  -1.609  25.568  0.00  0.00    +0.000 C 
ATOM     23  O   UNL     1       4.621  -1.770  25.313  0.00  0.00    +0.000 OA
ATOM     24  N   UNL     1       6.408  -2.432  26.432  0.00  0.00    +0.000 N 
ATOM     25  H   UNL     1       5.816  -2.569  27.189  0.00  0.00    +0.000 HD
BRANCH  24  26
ATOM     26  C   UNL     1       7.739  -2.902  26.433  0.00  0.00    +0.000 C 
BRANCH  26  27
ATOM     27  C   UNL     1       7.928  -4.048  25.427  0.00  0.00    +0.000 A 
ATOM     28  C   UNL     1       6.821  -5.003  25.856  0.00  0.00    +0.000 A 
ATOM     29  C   UNL     1       5.704  -5.482  25.074  0.00  0.00    +0.000 A 
ATOM     30  C   UNL     1       5.848  -5.160  23.632  0.00  0.00    +0.000 A 
ATOM     31  C   UNL     1       7.003  -4.296  22.990  0.00  0.00    +0.000 A 
ATOM     32  C   UNL     1       8.091  -3.923  23.998  0.00  0.00    +0.000 A 
ATOM     33  O   UNL     1       7.282  -4.957  21.801  0.00  0.00    +0.000 OA
ATOM     34  C   UNL     1       6.487  -6.118  21.621  0.00  0.00    +0.000 C 
ATOM     35  O   UNL     1       5.621  -6.264  22.747  0.00  0.00    +0.000 OA
ENDBRANCH  26  27
ENDBRANCH  24  26
ENDBRANCH  21  22
ENDBRANCH   5  21
TORSDOF 7
ENDMDL
MODEL 5
REMARK VINA RESULT:      -7.2      2.122      5.964
REMARK  Name = 
REMARK  7 active torsions:
REMARK  status: ('A' for Active; 'I' for Inactive)
REMARK    1  A    between atoms: O_2  and  C_3
REMARK    2  A    between atoms: C_12  and  N_13
REMARK    3  A    between atoms: C_15  and  C_17
REMARK    4  A    between atoms: C_26  and  C_28
REMARK    5  A    between atoms: C_28  and  C_31
REMARK    6  A    between atoms: N_33  and  C_35
REMARK    7  A    between atoms: C_35  and  C_38
REMARK                            x       y       z     vdW  Elec       q    Type
REMARK                         _______ _______ _______ _____ _____    ______ ____
ROOT
ATOM      1  C   UNL     1      10.050   0.704  22.691  0.00  0.00    +0.000 C 
ATOM      2  C   UNL     1       9.215   1.864  23.079  0.00  0.00    +0.000 C 
ATOM      3  C   UNL     1       8.519   1.862  24.408  0.00  0.00    +0.000 C 
ATOM      4  N   UNL     1       8.885   0.693  25.194  0.00  0.00    +0.000 N 
ATOM      5  C   UNL     1       7.969   0.012  25.883  0.00  0.00    +0.000 C 
ATOM      6  O   UNL     1       7.787   0.292  27.073  0.00  0.00    +0.000 OA
ATOM      7  C   UNL     1      10.281   0.314  25.162  0.00  0.00    +0.000 C 
ATOM      8  C   UNL     1      10.541  -0.215  23.721  0.00  0.00    +0.000 C 
ENDROOT
BRANCH   1  11
ATOM      9  N   UNL     1       8.649   0.648  20.635  0.00  0.00    +0.000 N 
ATOM     10  H   UNL     1       8.721   0.322  19.751  0.00  0.00    +0.000 HD
ATOM     11  C   UNL     1       9.404   0.008  21.500  0.00  0.00    +0.000 C 
ATOM     12  O   UNL     1       9.256  -1.236  21.553  0.00  0.00    +0.000 OA
BRANCH   9  18
ATOM     13  C   UNL     1       6.533   1.762  21.175  0.00  0.00    +0.000 A 
ATOM     14  C   UNL     1       5.483   1.936  20.086  0.00  0.00    +0.000 A 
ATOM     15  C   UNL     1       5.042   0.938  19.068  0.00  0.00    +0.000 A 
ATOM     16  C   UNL     1       5.849  -0.277  19.357  0.00  0.00    +0.000 A 
ATOM     17  C   UNL     1       6.825  -0.763  20.239  0.00  0.00    +0.000 A 
ATOM     18  C   UNL     1       7.303   0.535  21.009  0.00  0.00    +0.000 A 
BRANCH  13  20
ATOM     19  H   UNL     1       5.203   2.800  22.036  0.00  0.00    +0.000 HD
ATOM     20  O   UNL     1       5.782   2.096  22.250  0.00  0.00    +0.000 OA
ENDBRANCH  13  20
ENDBRANCH   9  18
ENDBRANCH   1  11
BRANCH   5  21
ATOM     21  C   UNL     1       7.494  -1.301  25.341  0.00  0.00    +0.000 C 
BRANCH  21  22
ATOM     22  C   UNL     1       6.335  -1.175  24.415  0.00  0.00    +0.000 C 
ATOM     23  O   UNL     1       5.845  -0.053  24.182  0.00  0.00    +0.000 OA
ATOM     24  N   UNL     1       5.903  -2.211  23.709  0.00  0.00    +0.000 N 
ATOM     25  H   UNL     1       4.937  -2.164  23.629  0.00  0.00    +0.000 HD
BRANCH  24  26
ATOM     26  C   UNL     1       6.630  -3.347  23.292  0.00  0.00    +0.000 C 
BRANCH  26  27
ATOM     27  C   UNL     1       6.334  -4.560  24.188  0.00  0.00    +0.000 A 
ATOM     28  C   UNL     1       7.742  -4.979  24.590  0.00  0.00    +0.000 A 
ATOM     29  C   UNL     1       8.302  -5.061  25.920  0.00  0.00    +0.000 A 
ATOM     30  C   UNL     1       7.265  -4.944  26.975  0.00  0.00    +0.000 A 
ATOM     31  C   UNL     1       5.734  -4.645  26.734  0.00  0.00    +0.000 A 
ATOM     32  C   UNL     1       5.361  -4.630  25.251  0.00  0.00    +0.000 A 
ATOM     33  O   UNL     1       5.093  -5.462  27.657  0.00  0.00    +0.000 OA
ATOM     34  C   UNL     1       6.001  -6.242  28.419  0.00  0.00    +0.000 C 
ATOM     35  O   UNL     1       7.332  -5.950  27.993  0.00  0.00    +0.000 OA
ENDBRANCH  26  27
ENDBRANCH  24  26
ENDBRANCH  21  22
ENDBRANCH   5  21
TORSDOF 7
ENDMDL
MODEL 6
REMARK VINA RESULT:      -7.1      2.147      5.862
REMARK  Name = 
REMARK  7 active torsions:
REMARK  status: ('A' for Active; 'I' for Inactive)
REMARK    1  A    between atoms: O_2  and  C_3
REMARK    2  A    between atoms: C_12  and  N_13
REMARK    3  A    between atoms: C_15  and  C_17
REMARK    4  A    between atoms: C_26  and  C_28
REMARK    5  A    between atoms: C_28  and  C_31
REMARK    6  A    between atoms: N_33  and  C_35
REMARK    7  A    between atoms: C_35  and  C_38
REMARK                            x       y       z     vdW  Elec       q    Type
REMARK                         _______ _______ _______ _____ _____    ______ ____
ROOT
ATOM      1  C   UNL     1      10.092   0.687  22.583  0.00  0.00    +0.000 C 
ATOM      2  C   UNL     1       9.433   1.998  22.781  0.00  0.00    +0.000 C 
ATOM      3  C   UNL     1       8.644   2.247  24.032  0.00  0.00    +0.000 C 
ATOM      4  N   UNL     1       8.748   1.126  24.954  0.00  0.00    +0.000 N 
ATOM      5  C   UNL     1       7.681   0.674  25.613  0.00  0.00    +0.000 C 
ATOM      6  O   UNL     1       7.454   1.105  26.750  0.00  0.00    +0.000 OA
ATOM      7  C   UNL     1      10.059   0.530  25.091  0.00  0.00    +0.000 C 
ATOM      8  C   UNL     1      10.341  -0.183  23.736  0.00  0.00    +0.000 C 
ENDROOT
BRANCH   1  11
ATOM      9  N   UNL     1       8.666   0.607  20.546  0.00  0.00    +0.000 N 
ATOM     10  H   UNL     1       8.729   0.274  19.663  0.00  0.00    +0.000 HD
ATOM     11  C   UNL     1       9.435  -0.023  21.405  0.00  0.00    +0.000 C 
ATOM     12  O   UNL     1       9.295  -1.267  21.470  0.00  0.00    +0.000 OA
BRANCH   9  18
ATOM     13  C   UNL     1       6.536   1.709  21.055  0.00  0.00    +0.000 A 
ATOM     14  C   UNL     1       5.474   1.817  19.970  0.00  0.00    +0.000 A 
ATOM     15  C   UNL     1       5.040   0.766  19.001  0.00  0.00    +0.000 A 
ATOM     16  C   UNL     1       5.870  -0.421  19.337  0.00  0.00    +0.000 A 
ATOM     17  C   UNL     1       6.862  -0.851  20.230  0.00  0.00    +0.000 A 
ATOM     18  C   UNL     1       7.325   0.488  20.937  0.00  0.00    +0.000 A 
BRANCH  13  20
ATOM     19  H   UNL     1       6.214   2.770  22.590  0.00  0.00    +0.000 HD
ATOM     20  O   UNL     1       5.790   2.079  22.121  0.00  0.00    +0.000 OA
ENDBRANCH  13  20
ENDBRANCH   9  18
ENDBRANCH   1  11
BRANCH   5  21
ATOM     21  C   UNL     1       7.038  -0.598  25.152  0.00  0.00    +0.000 C 
BRANCH  21  22
ATOM     22  C   UNL     1       7.177  -1.718  26.124  0.00  0.00    +0.000 C 
ATOM     23  O   UNL     1       6.315  -1.882  27.009  0.00  0.00    +0.000 OA
ATOM     24  N   UNL     1       8.119  -2.641  25.980  0.00  0.00    +0.000 N 
ATOM     25  H   UNL     1       8.437  -2.912  26.856  0.00  0.00    +0.000 HD
BRANCH  24  26
ATOM     26  C   UNL     1       8.759  -3.056  24.793  0.00  0.00    +0.000 C 
BRANCH  26  27
ATOM     27  C   UNL     1       7.897  -4.065  24.016  0.00  0.00    +0.000 A 
ATOM     28  C   UNL     1       7.576  -5.078  25.107  0.00  0.00    +0.000 A 
ATOM     29  C   UNL     1       6.277  -5.469  25.606  0.00  0.00    +0.000 A 
ATOM     30  C   UNL     1       5.172  -4.967  24.752  0.00  0.00    +0.000 A 
ATOM     31  C   UNL     1       5.331  -4.016  23.502  0.00  0.00    +0.000 A 
ATOM     32  C   UNL     1       6.794  -3.760  23.138  0.00  0.00    +0.000 A 
ATOM     33  O   UNL     1       4.412  -4.520  22.590  0.00  0.00    +0.000 OA
ATOM     34  C   UNL     1       3.723  -5.658  23.081  0.00  0.00    +0.000 C 
ATOM     35  O   UNL     1       4.197  -5.955  24.395  0.00  0.00    +0.000 OA
ENDBRANCH  26  27
ENDBRANCH  24  26
ENDBRANCH  21  22
ENDBRANCH   5  21
TORSDOF 7
ENDMDL
MODEL 7
REMARK VINA RESULT:      -7.0      2.890      6.994
REMARK  Name = 
REMARK  7 active torsions:
REMARK  status: ('A' for Active; 'I' for Inactive)
REMARK    1  A    between atoms: O_2  and  C_3
REMARK    2  A    between atoms: C_12  and  N_13
REMARK    3  A    between atoms: C_15  and  C_17
REMARK    4  A    between atoms: C_26  and  C_28
REMARK    5  A    between atoms: C_28  and  C_31
REMARK    6  A    between atoms: N_33  and  C_35
REMARK    7  A    between atoms: C_35  and  C_38
REMARK                            x       y       z     vdW  Elec       q    Type
REMARK                         _______ _______ _______ _____ _____    ______ ____
ROOT
ATOM      1  C   UNL     1       7.564  -3.101  24.377  0.00  0.00    +0.000 C 
ATOM      2  C   UNL     1       8.520  -4.216  24.567  0.00  0.00    +0.000 C 
ATOM      3  C   UNL     1       8.113  -5.408  25.382  0.00  0.00    +0.000 C 
ATOM      4  N   UNL     1       6.719  -5.317  25.791  0.00  0.00    +0.000 N 
ATOM      5  C   UNL     1       6.341  -5.647  27.025  0.00  0.00    +0.000 C 
ATOM      6  O   UNL     1       5.939  -6.797  27.239  0.00  0.00    +0.000 OA
ATOM      7  C   UNL     1       5.791  -4.832  24.793  0.00  0.00    +0.000 C 
ATOM      8  C   UNL     1       6.133  -3.326  24.595  0.00  0.00    +0.000 C 
ENDROOT
BRANCH   1  11
ATOM      9  N   UNL     1       8.152  -0.686  24.487  0.00  0.00    +0.000 N 
ATOM     10  H   UNL     1       8.010   0.040  25.075  0.00  0.00    +0.000 HD
ATOM     11  C   UNL     1       8.108  -1.860  25.074  0.00  0.00    +0.000 C 
ATOM     12  O   UNL     1       8.876  -2.023  26.052  0.00  0.00    +0.000 OA
BRANCH   9  18
ATOM     13  C   UNL     1       9.556  -0.815  22.481  0.00  0.00    +0.000 A 
ATOM     14  C   UNL     1       9.758   0.432  21.631  0.00  0.00    +0.000 A 
ATOM     15  C   UNL     1      10.028   1.826  22.093  0.00  0.00    +0.000 A 
ATOM     16  C   UNL     1      10.069   1.728  23.577  0.00  0.00    +0.000 A 
ATOM     17  C   UNL     1       9.956   0.799  24.620  0.00  0.00    +0.000 A 
ATOM     18  C   UNL     1       9.410  -0.500  23.897  0.00  0.00    +0.000 A 
BRANCH  13  20
ATOM     19  H   UNL     1      11.015  -1.118  21.312  0.00  0.00    +0.000 HD
ATOM     20  O   UNL     1      10.508  -1.604  21.931  0.00  0.00    +0.000 OA
ENDBRANCH  13  20
ENDBRANCH   9  18
ENDBRANCH   1  11
BRANCH   5  21
ATOM     21  C   UNL     1       6.027  -4.552  27.997  0.00  0.00    +0.000 C 
BRANCH  21  22
ATOM     22  C   UNL     1       5.185  -4.997  29.141  0.00  0.00    +0.000 C 
ATOM     23  O   UNL     1       5.682  -5.085  30.281  0.00  0.00    +0.000 OA
ATOM     24  N   UNL     1       3.875  -5.160  29.009  0.00  0.00    +0.000 N 
ATOM     25  H   UNL     1       3.589  -5.911  29.555  0.00  0.00    +0.000 HD
BRANCH  24  26
ATOM     26  C   UNL     1       3.006  -4.534  28.090  0.00  0.00    +0.000 C 
BRANCH  26  27
ATOM     27  C   UNL     1       2.176  -5.568  27.312  0.00  0.00    +0.000 A 
ATOM     28  C   UNL     1       1.647  -4.716  26.166  0.00  0.00    +0.000 A 
ATOM     29  C   UNL     1       1.853  -4.903  24.747  0.00  0.00    +0.000 A 
ATOM     30  C   UNL     1       2.453  -6.224  24.435  0.00  0.00    +0.000 A 
ATOM     31  C   UNL     1       2.938  -7.290  25.494  0.00  0.00    +0.000 A 
ATOM     32  C   UNL     1       2.590  -6.896  26.931  0.00  0.00    +0.000 A 
ATOM     33  O   UNL     1       2.549  -8.502  24.938  0.00  0.00    +0.000 OA
ATOM     34  C   UNL     1       1.873  -8.344  23.701  0.00  0.00    +0.000 C 
ATOM     35  O   UNL     1       1.788  -6.952  23.395  0.00  0.00    +0.000 OA
ENDBRANCH  26  27
ENDBRANCH  24  26
ENDBRANCH  21  22
ENDBRANCH   5  21
TORSDOF 7
ENDMDL
MODEL 8
REMARK VINA RESULT:      -6.9      2.251      5.871
REMARK  Name = 
REMARK  7 active torsions:
REMARK  status: ('A' for Active; 'I' for Inactive)
REMARK    1  A    between atoms: O_2  and  C_3
REMARK    2  A    between atoms: C_12  and  N_13
REMARK    3  A    between atoms: C_15  and  C_17
REMARK    4  A    between atoms: C_26  and  C_28
REMARK    5  A    between atoms: C_28  and  C_31
REMARK    6  A    between atoms: N_33  and  C_35
REMARK    7  A    between atoms: C_35  and  C_38
REMARK                            x       y       z     vdW  Elec       q    Type
REMARK                         _______ _______ _______ _____ _____    ______ ____
ROOT
ATOM      1  C   UNL     1       7.556  -4.622  25.214  0.00  0.00    +0.000 C 
ATOM      2  C   UNL     1       8.791  -4.495  24.408  0.00  0.00    +0.000 C 
ATOM      3  C   UNL     1       9.488  -3.170  24.326  0.00  0.00    +0.000 C 
ATOM      4  N   UNL     1       8.856  -2.186  25.192  0.00  0.00    +0.000 N 
ATOM      5  C   UNL     1       8.656  -0.934  24.782  0.00  0.00    +0.000 C 
ATOM      6  O   UNL     1       9.503  -0.075  25.050  0.00  0.00    +0.000 OA
ATOM      7  C   UNL     1       8.447  -2.654  26.499  0.00  0.00    +0.000 C 
ATOM      8  C   UNL     1       7.256  -3.624  26.245  0.00  0.00    +0.000 C 
ENDROOT
BRANCH   1  11
ATOM      9  N   UNL     1       5.136  -4.789  24.663  0.00  0.00    +0.000 N 
ATOM     10  H   UNL     1       4.556  -4.502  23.974  0.00  0.00    +0.000 HD
ATOM     11  C   UNL     1       6.387  -4.918  24.283  0.00  0.00    +0.000 C 
ATOM     12  O   UNL     1       6.594  -5.660  23.294  0.00  0.00    +0.000 OA
BRANCH   9  18
ATOM     13  C   UNL     1       4.614  -6.250  26.562  0.00  0.00    +0.000 A 
ATOM     14  C   UNL     1       3.192  -6.291  27.102  0.00  0.00    +0.000 A 
ATOM     15  C   UNL     1       1.916  -6.344  26.329  0.00  0.00    +0.000 A 
ATOM     16  C   UNL     1       2.341  -6.359  24.903  0.00  0.00    +0.000 A 
ATOM     17  C   UNL     1       3.490  -6.355  24.100  0.00  0.00    +0.000 A 
ATOM     18  C   UNL     1       4.652  -6.022  25.122  0.00  0.00    +0.000 A 
BRANCH  13  20
ATOM     19  H   UNL     1       4.720  -7.408  28.057  0.00  0.00    +0.000 HD
ATOM     20  O   UNL     1       5.122  -7.321  27.216  0.00  0.00    +0.000 OA
ENDBRANCH  13  20
ENDBRANCH   9  18
ENDBRANCH   1  11
BRANCH   5  21
ATOM     21  C   UNL     1       7.272  -0.522  24.383  0.00  0.00    +0.000 C 
BRANCH  21  22
ATOM     22  C   UNL     1       6.966  -0.782  22.949  0.00  0.00    +0.000 C 
ATOM     23  O   UNL     1       6.579  -1.911  22.592  0.00  0.00    +0.000 OA
ATOM     24  N   UNL     1       6.949   0.202  22.060  0.00  0.00    +0.000 N 
ATOM     25  H   UNL     1       7.287  -0.128  21.211  0.00  0.00    +0.000 HD
BRANCH  24  26
ATOM     26  C   UNL     1       6.704   1.574  22.281  0.00  0.00    +0.000 C 
BRANCH  26  27
ATOM     27  C   UNL     1       7.943   2.423  21.955  0.00  0.00    +0.000 A 
ATOM     28  C   UNL     1       7.428   3.823  22.259  0.00  0.00    +0.000 A 
ATOM     29  C   UNL     1       7.939   4.772  23.223  0.00  0.00    +0.000 A 
ATOM     30  C   UNL     1       9.258   4.364  23.768  0.00  0.00    +0.000 A 
ATOM     31  C   UNL     1      10.005   3.008  23.458  0.00  0.00    +0.000 A 
ATOM     32  C   UNL     1       9.297   2.175  22.388  0.00  0.00    +0.000 A 
ATOM     33  O   UNL     1      11.336   3.388  23.348  0.00  0.00    +0.000 OA
ATOM     34  C   UNL     1      11.523   4.784  23.520  0.00  0.00    +0.000 C 
ATOM     35  O   UNL     1      10.254   5.394  23.755  0.00  0.00    +0.000 OA
ENDBRANCH  26  27
ENDBRANCH  24  26
ENDBRANCH  21  22
ENDBRANCH   5  21
TORSDOF 7
ENDMDL
MODEL 9
REMARK VINA RESULT:      -6.9      2.440      6.463
REMARK  Name = 
REMARK  7 active torsions:
REMARK  status: ('A' for Active; 'I' for Inactive)
REMARK    1  A    between atoms: O_2  and  C_3
REMARK    2  A    between atoms: C_12  and  N_13
REMARK    3  A    between atoms: C_15  and  C_17
REMARK    4  A    between atoms: C_26  and  C_28
REMARK    5  A    between atoms: C_28  and  C_31
REMARK    6  A    between atoms: N_33  and  C_35
REMARK    7  A    between atoms: C_35  and  C_38
REMARK                            x       y       z     vdW  Elec       q    Type
REMARK                         _______ _______ _______ _____ _____    ______ ____
ROOT
ATOM      1  C   UNL     1       9.362   0.021  23.372  0.00  0.00    +0.000 C 
ATOM      2  C   UNL     1       8.909  -0.314  24.742  0.00  0.00    +0.000 C 
ATOM      3  C   UNL     1       8.752  -1.752  25.138  0.00  0.00    +0.000 C 
ATOM      4  N   UNL     1       9.200  -2.643  24.078  0.00  0.00    +0.000 N 
ATOM      5  C   UNL     1       8.507  -3.736  23.759  0.00  0.00    +0.000 C 
ATOM      6  O   UNL     1       8.814  -4.813  24.283  0.00  0.00    +0.000 OA
ATOM      7  C   UNL     1      10.414  -2.261  23.392  0.00  0.00    +0.000 C 
ATOM      8  C   UNL     1      10.051  -0.991  22.567  0.00  0.00    +0.000 C 
ENDROOT
BRANCH   1  11
ATOM      9  N   UNL     1       8.339   1.964  22.203  0.00  0.00    +0.000 N 
ATOM     10  H   UNL     1       7.874   2.127  21.396  0.00  0.00    +0.000 HD
ATOM     11  C   UNL     1       8.230   0.729  22.637  0.00  0.00    +0.000 C 
ATOM     12  O   UNL     1       7.064   0.293  22.789  0.00  0.00    +0.000 OA
BRANCH   9  18
ATOM     13  C   UNL     1       8.739   3.375  24.167  0.00  0.00    +0.000 A 
ATOM     14  C   UNL     1       9.014   4.860  23.975  0.00  0.00    +0.000 A 
ATOM     15  C   UNL     1       8.316   5.814  23.063  0.00  0.00    +0.000 A 
ATOM     16  C   UNL     1       7.277   4.993  22.385  0.00  0.00    +0.000 A 
ATOM     17  C   UNL     1       6.763   3.689  22.341  0.00  0.00    +0.000 A 
ATOM     18  C   UNL     1       7.824   2.848  23.161  0.00  0.00    +0.000 A 
BRANCH  13  20
ATOM     19  H   UNL     1       9.106   3.993  25.920  0.00  0.00    +0.000 HD
ATOM     20  O   UNL     1       8.547   3.366  25.507  0.00  0.00    +0.000 OA
ENDBRANCH  13  20
ENDBRANCH   9  18
ENDBRANCH   1  11
BRANCH   5  21
ATOM     21  C   UNL     1       7.676  -3.720  22.512  0.00  0.00    +0.000 C 
BRANCH  21  22
ATOM     22  C   UNL     1       6.498  -4.629  22.573  0.00  0.00    +0.000 C 
ATOM     23  O   UNL     1       6.646  -5.851  22.384  0.00  0.00    +0.000 OA
ATOM     24  N   UNL     1       5.312  -4.191  22.975  0.00  0.00    +0.000 N 
ATOM     25  H   UNL     1       4.616  -4.643  22.471  0.00  0.00    +0.000 HD
BRANCH  24  26
ATOM     26  C   UNL     1       5.026  -3.104  23.828  0.00  0.00    +0.000 C 
BRANCH  26  27
ATOM     27  C   UNL     1       4.814  -3.570  25.277  0.00  0.00    +0.000 A 
ATOM     28  C   UNL     1       4.102  -4.899  25.057  0.00  0.00    +0.000 A 
ATOM     29  C   UNL     1       4.527  -6.217  25.472  0.00  0.00    +0.000 A 
ATOM     30  C   UNL     1       5.667  -6.168  26.420  0.00  0.00    +0.000 A 
ATOM     31  C   UNL     1       6.441  -4.866  26.866  0.00  0.00    +0.000 A 
ATOM     32  C   UNL     1       5.799  -3.585  26.331  0.00  0.00    +0.000 A 
ATOM     33  O   UNL     1       6.676  -5.074  28.219  0.00  0.00    +0.000 OA
ATOM     34  C   UNL     1       6.141  -6.303  28.684  0.00  0.00    +0.000 C 
ATOM     35  O   UNL     1       5.501  -6.970  27.596  0.00  0.00    +0.000 OA
ENDBRANCH  26  27
ENDBRANCH  24  26
ENDBRANCH  21  22
ENDBRANCH   5  21
TORSDOF 7
ENDMDL
