MODEL 1
REMARK VINA RESULT:      -8.9      0.000      0.000
REMARK  Name = 
REMARK  5 active torsions:
REMARK  status: ('A' for Active; 'I' for Inactive)
REMARK    1  A    between atoms: C_7  and  C_8
REMARK    2  A    between atoms: C_24  and  C_26
REMARK    3  A    between atoms: C_26  and  C_29
REMARK    4  A    between atoms: N_31  and  C_33
REMARK    5  A    between atoms: C_40  and  N_41
REMARK                            x       y       z     vdW  Elec       q    Type
REMARK                         _______ _______ _______ _____ _____    ______ ____
ROOT
ATOM      1  C   UNL     1       7.366   0.901  23.833  0.00  0.00    +0.000 C 
ATOM      2  C   UNL     1       6.438   1.996  23.776  0.00  0.00    +0.000 A 
ATOM      3  C   UNL     1       5.182   1.900  24.352  0.00  0.00    +0.000 A 
ATOM      4  C   UNL     1       4.223   2.973  24.278  0.00  0.00    +0.000 A 
ATOM      5  C   UNL     1       4.655   3.874  23.100  0.00  0.00    +0.000 A 
ATOM      6  C   UNL     1       5.763   3.938  22.261  0.00  0.00    +0.000 A 
ATOM      7  C   UNL     1       6.484   2.483  22.248  0.00  0.00    +0.000 A 
ATOM      8  C   UNL     1       6.271   1.762  21.033  0.00  0.00    +0.000 C 
ATOM      9  N   UNL     1       7.087   0.760  21.313  0.00  0.00    +0.000 N 
ATOM     10  C   UNL     1       7.293  -0.319  20.380  0.00  0.00    +0.000 C 
ATOM     11  O   UNL     1       8.161   0.143  19.628  0.00  0.00    +0.000 OA
ATOM     12  C   UNL     1       7.487   0.221  22.492  0.00  0.00    +0.000 C 
ENDROOT
BRANCH   1  16
ATOM     13  C   UNL     1      11.288   0.987  24.236  0.00  0.00    +0.000 A 
ATOM     14  C   UNL     1      10.449   0.014  24.983  0.00  0.00    +0.000 A 
ATOM     15  C   UNL     1       9.024   0.130  25.392  0.00  0.00    +0.000 A 
ATOM     16  C   UNL     1       8.441   1.347  24.551  0.00  0.00    +0.000 A 
ATOM     17  C   UNL     1       9.139   2.584  24.399  0.00  0.00    +0.000 A 
ATOM     18  C   UNL     1      10.559   2.284  24.087  0.00  0.00    +0.000 A 
ENDBRANCH   1  16
BRANCH  10  19
ATOM     19  C   UNL     1       5.952  -0.613  19.892  0.00  0.00    +0.000 C 
BRANCH  19  20
ATOM     20  C   UNL     1       5.540  -2.069  19.841  0.00  0.00    +0.000 C 
ATOM     21  O   UNL     1       5.464  -2.731  18.858  0.00  0.00    +0.000 OA
ATOM     22  N   UNL     1       5.686  -2.591  21.085  0.00  0.00    +0.000 N 
ATOM     23  H   UNL     1       4.826  -3.130  21.167  0.00  0.00    +0.000 HD
BRANCH  22  24
ATOM     24  C   UNL     1       6.657  -3.340  21.280  0.00  0.00    +0.000 A 
ATOM     25  C   UNL     1       5.941  -4.680  21.187  0.00  0.00    +0.000 A 
ATOM     26  C   UNL     1       6.236  -5.901  22.024  0.00  0.00    +0.000 A 
ATOM     27  C   UNL     1       7.387  -5.553  22.904  0.00  0.00    +0.000 A 
ATOM     28  C   UNL     1       7.906  -4.372  23.353  0.00  0.00    +0.000 A 
ATOM     29  C   UNL     1       7.710  -3.287  22.315  0.00  0.00    +0.000 A 
BRANCH  28  30
ATOM     30  N   UNL     1       7.664  -4.180  24.635  0.00  0.00    +0.000 N 
ATOM     31  C   UNL     1       8.955  -3.964  25.228  0.00  0.00    +0.000 C 
ATOM     32  O   UNL     1       9.958  -4.114  24.566  0.00  0.00    +0.000 OA
ATOM     33  C   UNL     1       8.966  -4.532  26.667  0.00  0.00    +0.000 C 
ATOM     34  C   UNL     1       7.518  -4.977  26.905  0.00  0.00    +0.000 C 
ATOM     35  C   UNL     1       6.886  -5.087  25.503  0.00  0.00    +0.000 C 
ENDBRANCH  28  30
ENDBRANCH  22  24
ENDBRANCH  19  20
ENDBRANCH  10  19
TORSDOF 5
ENDMDL
MODEL 2
REMARK VINA RESULT:      -8.6      2.611      7.841
REMARK  Name = 
REMARK  5 active torsions:
REMARK  status: ('A' for Active; 'I' for Inactive)
REMARK    1  A    between atoms: C_7  and  C_8
REMARK    2  A    between atoms: C_24  and  C_26
REMARK    3  A    between atoms: C_26  and  C_29
REMARK    4  A    between atoms: N_31  and  C_33
REMARK    5  A    between atoms: C_40  and  N_41
REMARK                            x       y       z     vdW  Elec       q    Type
REMARK                         _______ _______ _______ _____ _____    ______ ____
ROOT
ATOM      1  C   UNL     1       5.778  -5.844  26.439  0.00  0.00    +0.000 C 
ATOM      2  C   UNL     1       4.746  -5.734  25.445  0.00  0.00    +0.000 A 
ATOM      3  C   UNL     1       4.801  -6.470  24.273  0.00  0.00    +0.000 A 
ATOM      4  C   UNL     1       3.795  -6.350  23.248  0.00  0.00    +0.000 A 
ATOM      5  C   UNL     1       3.079  -5.002  23.484  0.00  0.00    +0.000 A 
ATOM      6  C   UNL     1       3.104  -4.032  24.481  0.00  0.00    +0.000 A 
ATOM      7  C   UNL     1       4.510  -4.155  25.284  0.00  0.00    +0.000 A 
ATOM      8  C   UNL     1       5.426  -3.103  24.976  0.00  0.00    +0.000 C 
ATOM      9  N   UNL     1       6.334  -3.431  25.879  0.00  0.00    +0.000 N 
ATOM     10  C   UNL     1       7.540  -2.658  26.041  0.00  0.00    +0.000 C 
ATOM     11  O   UNL     1       7.169  -1.741  26.786  0.00  0.00    +0.000 OA
ATOM     12  C   UNL     1       6.659  -4.620  26.446  0.00  0.00    +0.000 C 
ENDROOT
BRANCH   1  16
ATOM     13  C   UNL     1       4.011  -5.086  29.883  0.00  0.00    +0.000 A 
ATOM     14  C   UNL     1       5.461  -5.404  29.804  0.00  0.00    +0.000 A 
ATOM     15  C   UNL     1       6.188  -6.201  28.780  0.00  0.00    +0.000 A 
ATOM     16  C   UNL     1       5.177  -6.345  27.561  0.00  0.00    +0.000 A 
ATOM     17  C   UNL     1       3.800  -6.681  27.737  0.00  0.00    +0.000 A 
ATOM     18  C   UNL     1       3.258  -5.866  28.853  0.00  0.00    +0.000 A 
ENDBRANCH   1  16
BRANCH  10  19
ATOM     19  C   UNL     1       7.965  -2.392  24.673  0.00  0.00    +0.000 C 
BRANCH  19  20
ATOM     20  C   UNL     1       9.453  -2.409  24.397  0.00  0.00    +0.000 C 
ATOM     21  O   UNL     1      10.069  -3.338  23.988  0.00  0.00    +0.000 OA
ATOM     22  N   UNL     1       9.875  -1.124  24.284  0.00  0.00    +0.000 N 
ATOM     23  H   UNL     1      10.737  -1.158  24.825  0.00  0.00    +0.000 HD
BRANCH  22  24
ATOM     24  C   UNL     1      10.125  -0.703  23.142  0.00  0.00    +0.000 A 
ATOM     25  C   UNL     1      10.453   0.742  23.493  0.00  0.00    +0.000 A 
ATOM     26  C   UNL     1      10.099   1.954  22.668  0.00  0.00    +0.000 A 
ATOM     27  C   UNL     1       9.426   1.457  21.435  0.00  0.00    +0.000 A 
ATOM     28  C   UNL     1       8.770   0.300  21.122  0.00  0.00    +0.000 A 
ATOM     29  C   UNL     1       9.372  -0.864  21.880  0.00  0.00    +0.000 A 
BRANCH  28  30
ATOM     30  N   UNL     1       7.469   0.482  21.017  0.00  0.00    +0.000 N 
ATOM     31  C   UNL     1       7.150   0.109  19.665  0.00  0.00    +0.000 C 
ATOM     32  O   UNL     1       8.038  -0.147  18.883  0.00  0.00    +0.000 OA
ATOM     33  C   UNL     1       5.983   0.982  19.149  0.00  0.00    +0.000 C 
ATOM     34  C   UNL     1       5.559   1.805  20.372  0.00  0.00    +0.000 C 
ATOM     35  C   UNL     1       6.749   1.727  21.350  0.00  0.00    +0.000 C 
ENDBRANCH  28  30
ENDBRANCH  22  24
ENDBRANCH  19  20
ENDBRANCH  10  19
TORSDOF 5
ENDMDL
MODEL 3
REMARK VINA RESULT:      -8.6      1.996      7.550
REMARK  Name = 
REMARK  5 active torsions:
REMARK  status: ('A' for Active; 'I' for Inactive)
REMARK    1  A    between atoms: C_7  and  C_8
REMARK    2  A    between atoms: C_24  and  C_26
REMARK    3  A    between atoms: C_26  and  C_29
REMARK    4  A    between atoms: N_31  and  C_33
REMARK    5  A    between atoms: C_40  and  N_41
REMARK                            x       y       z     vdW  Elec       q    Type
REMARK                         _______ _______ _______ _____ _____    ______ ____
ROOT
ATOM      1  C   UNL     1       7.317  -5.015  25.335  0.00  0.00    +0.000 C 
ATOM      2  C   UNL     1       6.796  -4.960  23.998  0.00  0.00    +0.000 A 
ATOM      3  C   UNL     1       7.461  -5.568  22.946  0.00  0.00    +0.000 A 
ATOM      4  C   UNL     1       6.975  -5.498  21.591  0.00  0.00    +0.000 A 
ATOM      5  C   UNL     1       6.010  -4.293  21.528  0.00  0.00    +0.000 A 
ATOM      6  C   UNL     1       5.451  -3.426  22.462  0.00  0.00    +0.000 A 
ATOM      7  C   UNL     1       6.388  -3.423  23.787  0.00  0.00    +0.000 A 
ATOM      8  C   UNL     1       7.157  -2.227  23.928  0.00  0.00    +0.000 C 
ATOM      9  N   UNL     1       7.642  -2.506  25.126  0.00  0.00    +0.000 N 
ATOM     10  C   UNL     1       8.519  -1.588  25.808  0.00  0.00    +0.000 C 
ATOM     11  O   UNL     1       7.722  -0.806  26.343  0.00  0.00    +0.000 OA
ATOM     12  C   UNL     1       7.894  -3.684  25.749  0.00  0.00    +0.000 C 
ENDROOT
BRANCH   1  16
ATOM     13  C   UNL     1       4.111  -4.846  27.628  0.00  0.00    +0.000 A 
ATOM     14  C   UNL     1       5.481  -4.898  28.204  0.00  0.00    +0.000 A 
ATOM     15  C   UNL     1       6.720  -5.473  27.618  0.00  0.00    +0.000 A 
ATOM     16  C   UNL     1       6.393  -5.698  26.078  0.00  0.00    +0.000 A 
ATOM     17  C   UNL     1       5.171  -6.284  25.626  0.00  0.00    +0.000 A 
ATOM     18  C   UNL     1       4.051  -5.665  26.378  0.00  0.00    +0.000 A 
ENDBRANCH   1  16
BRANCH  10  19
ATOM     19  C   UNL     1       9.429  -1.138  24.762  0.00  0.00    +0.000 C 
BRANCH  19  20
ATOM     20  C   UNL     1      10.043   0.236  24.925  0.00  0.00    +0.000 C 
ATOM     21  O   UNL     1      11.206   0.473  24.955  0.00  0.00    +0.000 OA
ATOM     22  N   UNL     1       9.099   1.158  24.610  0.00  0.00    +0.000 N 
ATOM     23  H   UNL     1       9.236   1.834  25.360  0.00  0.00    +0.000 HD
BRANCH  22  24
ATOM     24  C   UNL     1       9.207   1.735  23.516  0.00  0.00    +0.000 A 
ATOM     25  C   UNL     1       8.434   3.005  23.844  0.00  0.00    +0.000 A 
ATOM     26  C   UNL     1       7.523   3.755  22.903  0.00  0.00    +0.000 A 
ATOM     27  C   UNL     1       7.576   3.045  21.594  0.00  0.00    +0.000 A 
ATOM     28  C   UNL     1       7.912   1.774  21.225  0.00  0.00    +0.000 A 
ATOM     29  C   UNL     1       8.985   1.229  22.145  0.00  0.00    +0.000 A 
BRANCH  28  30
ATOM     30  N   UNL     1       6.859   1.067  20.867  0.00  0.00    +0.000 N 
ATOM     31  C   UNL     1       7.395  -0.079  20.185  0.00  0.00    +0.000 C 
ATOM     32  O   UNL     1       8.580  -0.141  19.947  0.00  0.00    +0.000 OA
ATOM     33  C   UNL     1       6.425  -0.514  19.061  0.00  0.00    +0.000 C 
ATOM     34  C   UNL     1       5.207   0.401  19.242  0.00  0.00    +0.000 C 
ATOM     35  C   UNL     1       5.705   1.580  20.102  0.00  0.00    +0.000 C 
ENDBRANCH  28  30
ENDBRANCH  22  24
ENDBRANCH  19  20
ENDBRANCH  10  19
TORSDOF 5
ENDMDL
MODEL 4
REMARK VINA RESULT:      -8.5      2.383      6.858
REMARK  Name = 
REMARK  5 active torsions:
REMARK  status: ('A' for Active; 'I' for Inactive)
REMARK    1  A    between atoms: C_7  and  C_8
REMARK    2  A    between atoms: C_24  and  C_26
REMARK    3  A    between atoms: C_26  and  C_29
REMARK    4  A    between atoms: N_31  and  C_33
REMARK    5  A    between atoms: C_40  and  N_41
REMARK                            x       y       z     vdW  Elec       q    Type
REMARK                         _______ _______ _______ _____ _____    ______ ____
ROOT
ATOM      1  C   UNL     1       5.457  -3.391  24.798  0.00  0.00    +0.000 C 
ATOM      2  C   UNL     1       6.691  -4.048  25.127  0.00  0.00    +0.000 A 
ATOM      3  C   UNL     1       7.557  -3.513  26.067  0.00  0.00    +0.000 A 
ATOM      4  C   UNL     1       8.816  -4.138  26.389  0.00  0.00    +0.000 A 
ATOM      5  C   UNL     1       9.163  -5.071  25.207  0.00  0.00    +0.000 A 
ATOM      6  C   UNL     1       8.499  -5.505  24.064  0.00  0.00    +0.000 A 
ATOM      7  C   UNL     1       7.332  -4.434  23.708  0.00  0.00    +0.000 A 
ATOM      8  C   UNL     1       7.643  -3.622  22.574  0.00  0.00    +0.000 C 
ATOM      9  N   UNL     1       6.468  -3.021  22.499  0.00  0.00    +0.000 N 
ATOM     10  C   UNL     1       6.189  -2.053  21.468  0.00  0.00    +0.000 C 
ATOM     11  O   UNL     1       5.855  -2.768  20.515  0.00  0.00    +0.000 OA
ATOM     12  C   UNL     1       5.534  -2.737  23.441  0.00  0.00    +0.000 C 
ENDROOT
BRANCH   1  16
ATOM     13  C   UNL     1       4.060  -7.079  24.754  0.00  0.00    +0.000 A 
ATOM     14  C   UNL     1       3.627  -6.069  23.753  0.00  0.00    +0.000 A 
ATOM     15  C   UNL     1       3.587  -4.587  23.877  0.00  0.00    +0.000 A 
ATOM     16  C   UNL     1       4.457  -4.249  25.164  0.00  0.00    +0.000 A 
ATOM     17  C   UNL     1       4.333  -4.971  26.391  0.00  0.00    +0.000 A 
ATOM     18  C   UNL     1       4.293  -6.421  26.077  0.00  0.00    +0.000 A 
ENDBRANCH   1  16
BRANCH  10  19
ATOM     19  C   UNL     1       7.402  -1.246  21.416  0.00  0.00    +0.000 C 
BRANCH  19  20
ATOM     20  C   UNL     1       7.318   0.080  20.692  0.00  0.00    +0.000 C 
ATOM     21  O   UNL     1       6.316   0.619  20.351  0.00  0.00    +0.000 OA
ATOM     22  N   UNL     1       8.493   0.734  20.875  0.00  0.00    +0.000 N 
ATOM     23  H   UNL     1       8.663   1.087  19.935  0.00  0.00    +0.000 HD
BRANCH  22  24
ATOM     24  C   UNL     1       8.501   1.683  21.676  0.00  0.00    +0.000 A 
ATOM     25  C   UNL     1       9.956   1.606  22.116  0.00  0.00    +0.000 A 
ATOM     26  C   UNL     1      10.474   1.862  23.510  0.00  0.00    +0.000 A 
ATOM     27  C   UNL     1       9.301   2.255  24.340  0.00  0.00    +0.000 A 
ATOM     28  C   UNL     1       7.955   2.056  24.223  0.00  0.00    +0.000 A 
ATOM     29  C   UNL     1       7.557   2.022  22.762  0.00  0.00    +0.000 A 
BRANCH  28  30
ATOM     30  N   UNL     1       7.504   1.183  25.101  0.00  0.00    +0.000 N 
ATOM     31  C   UNL     1       6.782   1.966  26.066  0.00  0.00    +0.000 C 
ATOM     32  O   UNL     1       6.814   3.174  26.011  0.00  0.00    +0.000 OA
ATOM     33  C   UNL     1       6.919   1.318  27.465  0.00  0.00    +0.000 C 
ATOM     34  C   UNL     1       7.673   0.010  27.200  0.00  0.00    +0.000 C 
ATOM     35  C   UNL     1       8.327   0.186  25.815  0.00  0.00    +0.000 C 
ENDBRANCH  28  30
ENDBRANCH  22  24
ENDBRANCH  19  20
ENDBRANCH  10  19
TORSDOF 5
ENDMDL
MODEL 5
REMARK VINA RESULT:      -8.5      2.598      6.393
REMARK  Name = 
REMARK  5 active torsions:
REMARK  status: ('A' for Active; 'I' for Inactive)
REMARK    1  A    between atoms: C_7  and  C_8
REMARK    2  A    between atoms: C_24  and  C_26
REMARK    3  A    between atoms: C_26  and  C_29
REMARK    4  A    between atoms: N_31  and  C_33
REMARK    5  A    between atoms: C_40  and  N_41
REMARK                            x       y       z     vdW  Elec       q    Type
REMARK                         _______ _______ _______ _____ _____    ______ ____
ROOT
ATOM      1  C   UNL     1       5.009  -2.572  25.383  0.00  0.00    +0.000 C 
ATOM      2  C   UNL     1       5.734  -1.725  26.290  0.00  0.00    +0.000 A 
ATOM      3  C   UNL     1       5.199  -0.525  26.728  0.00  0.00    +0.000 A 
ATOM      4  C   UNL     1       5.922   0.356  27.611  0.00  0.00    +0.000 A 
ATOM      5  C   UNL     1       7.414  -0.028  27.497  0.00  0.00    +0.000 A 
ATOM      6  C   UNL     1       8.125  -1.054  26.884  0.00  0.00    +0.000 A 
ATOM      7  C   UNL     1       7.218  -1.663  25.683  0.00  0.00    +0.000 A 
ATOM      8  C   UNL     1       7.678  -1.286  24.384  0.00  0.00    +0.000 C 
ATOM      9  N   UNL     1       6.840  -2.050  23.705  0.00  0.00    +0.000 N 
ATOM     10  C   UNL     1       6.866  -2.089  22.264  0.00  0.00    +0.000 C 
ATOM     11  O   UNL     1       7.761  -2.914  22.037  0.00  0.00    +0.000 OA
ATOM     12  C   UNL     1       5.602  -2.518  23.998  0.00  0.00    +0.000 C 
ENDROOT
BRANCH   1  16
ATOM     13  C   UNL     1       6.450  -5.424  27.697  0.00  0.00    +0.000 A 
ATOM     14  C   UNL     1       6.385  -5.576  26.220  0.00  0.00    +0.000 A 
ATOM     15  C   UNL     1       5.457  -4.930  25.254  0.00  0.00    +0.000 A 
ATOM     16  C   UNL     1       4.774  -3.740  26.057  0.00  0.00    +0.000 A 
ATOM     17  C   UNL     1       4.268  -3.895  27.384  0.00  0.00    +0.000 A 
ATOM     18  C   UNL     1       5.273  -4.639  28.183  0.00  0.00    +0.000 A 
ENDBRANCH   1  16
BRANCH  10  19
ATOM     19  C   UNL     1       7.017  -0.690  21.884  0.00  0.00    +0.000 C 
BRANCH  19  20
ATOM     20  C   UNL     1       8.069  -0.366  20.846  0.00  0.00    +0.000 C 
ATOM     21  O   UNL     1       7.919   0.351  19.911  0.00  0.00    +0.000 OA
ATOM     22  N   UNL     1       9.284  -0.667  21.371  0.00  0.00    +0.000 N 
ATOM     23  H   UNL     1       9.723  -1.132  20.579  0.00  0.00    +0.000 HD
BRANCH  22  24
ATOM     24  C   UNL     1       9.999   0.280  21.736  0.00  0.00    +0.000 A 
ATOM     25  C   UNL     1      10.617  -0.358  22.973  0.00  0.00    +0.000 A 
ATOM     26  C   UNL     1      10.926   0.347  24.271  0.00  0.00    +0.000 A 
ATOM     27  C   UNL     1      10.564   1.780  24.082  0.00  0.00    +0.000 A 
ATOM     28  C   UNL     1       9.727   2.434  23.224  0.00  0.00    +0.000 A 
ATOM     29  C   UNL     1       9.676   1.714  21.892  0.00  0.00    +0.000 A 
BRANCH  28  30
ATOM     30  N   UNL     1       8.645   2.879  23.831  0.00  0.00    +0.000 N 
ATOM     31  C   UNL     1       8.856   4.294  23.976  0.00  0.00    +0.000 C 
ATOM     32  O   UNL     1       9.926   4.779  23.683  0.00  0.00    +0.000 OA
ATOM     33  C   UNL     1       8.191   4.785  25.283  0.00  0.00    +0.000 C 
ATOM     34  C   UNL     1       7.455   3.551  25.817  0.00  0.00    +0.000 C 
ATOM     35  C   UNL     1       8.093   2.348  25.093  0.00  0.00    +0.000 C 
ENDBRANCH  28  30
ENDBRANCH  22  24
ENDBRANCH  19  20
ENDBRANCH  10  19
TORSDOF 5
ENDMDL
MODEL 6
REMARK VINA RESULT:      -8.5      2.564      7.441
REMARK  Name = 
REMARK  5 active torsions:
REMARK  status: ('A' for Active; 'I' for Inactive)
REMARK    1  A    between atoms: C_7  and  C_8
REMARK    2  A    between atoms: C_24  and  C_26
REMARK    3  A    between atoms: C_26  and  C_29
REMARK    4  A    between atoms: N_31  and  C_33
REMARK    5  A    between atoms: C_40  and  N_41
REMARK                            x       y       z     vdW  Elec       q    Type
REMARK                         _______ _______ _______ _____ _____    ______ ____
ROOT
ATOM      1  C   UNL     1       5.070  -4.103  24.659  0.00  0.00    +0.000 C 
ATOM      2  C   UNL     1       6.333  -4.616  25.112  0.00  0.00    +0.000 A 
ATOM      3  C   UNL     1       6.885  -4.199  26.312  0.00  0.00    +0.000 A 
ATOM      4  C   UNL     1       8.166  -4.675  26.770  0.00  0.00    +0.000 A 
ATOM      5  C   UNL     1       8.906  -5.221  25.529  0.00  0.00    +0.000 A 
ATOM      6  C   UNL     1       8.564  -5.461  24.202  0.00  0.00    +0.000 A 
ATOM      7  C   UNL     1       7.286  -4.534  23.824  0.00  0.00    +0.000 A 
ATOM      8  C   UNL     1       7.622  -3.429  22.983  0.00  0.00    +0.000 C 
ATOM      9  N   UNL     1       6.382  -3.023  22.773  0.00  0.00    +0.000 N 
ATOM     10  C   UNL     1       6.100  -1.888  21.930  0.00  0.00    +0.000 C 
ATOM     11  O   UNL     1       6.099  -2.390  20.799  0.00  0.00    +0.000 OA
ATOM     12  C   UNL     1       5.255  -3.132  23.520  0.00  0.00    +0.000 C 
ENDROOT
BRANCH   1  16
ATOM     13  C   UNL     1       1.586  -5.523  23.473  0.00  0.00    +0.000 A 
ATOM     14  C   UNL     1       1.789  -5.004  24.851  0.00  0.00    +0.000 A 
ATOM     15  C   UNL     1       3.042  -4.931  25.648  0.00  0.00    +0.000 A 
ATOM     16  C   UNL     1       4.219  -5.173  24.606  0.00  0.00    +0.000 A 
ATOM     17  C   UNL     1       4.176  -6.206  23.620  0.00  0.00    +0.000 A 
ATOM     18  C   UNL     1       2.832  -6.198  22.992  0.00  0.00    +0.000 A 
ENDBRANCH   1  16
BRANCH  10  19
ATOM     19  C   UNL     1       7.109  -0.911  22.320  0.00  0.00    +0.000 C 
BRANCH  19  20
ATOM     20  C   UNL     1       7.908  -0.263  21.209  0.00  0.00    +0.000 C 
ATOM     21  O   UNL     1       7.576   0.692  20.587  0.00  0.00    +0.000 OA
ATOM     22  N   UNL     1       9.198  -0.668  21.328  0.00  0.00    +0.000 N 
ATOM     23  H   UNL     1       9.425  -0.865  20.355  0.00  0.00    +0.000 HD
BRANCH  22  24
ATOM     24  C   UNL     1      10.014   0.151  21.780  0.00  0.00    +0.000 A 
ATOM     25  C   UNL     1      10.427  -0.602  23.038  0.00  0.00    +0.000 A 
ATOM     26  C   UNL     1      10.732   0.017  24.380  0.00  0.00    +0.000 A 
ATOM     27  C   UNL     1      10.605   1.492  24.214  0.00  0.00    +0.000 A 
ATOM     28  C   UNL     1       9.947   2.286  23.318  0.00  0.00    +0.000 A 
ATOM     29  C   UNL     1       9.897   1.613  21.962  0.00  0.00    +0.000 A 
BRANCH  28  30
ATOM     30  N   UNL     1       8.898   2.876  23.856  0.00  0.00    +0.000 N 
ATOM     31  C   UNL     1       9.260   4.264  23.949  0.00  0.00    +0.000 C 
ATOM     32  O   UNL     1      10.388   4.614  23.684  0.00  0.00    +0.000 OA
ATOM     33  C   UNL     1       8.602   4.888  25.202  0.00  0.00    +0.000 C 
ATOM     34  C   UNL     1       7.712   3.769  25.755  0.00  0.00    +0.000 C 
ATOM     35  C   UNL     1       8.240   2.470  25.113  0.00  0.00    +0.000 C 
ENDBRANCH  28  30
ENDBRANCH  22  24
ENDBRANCH  19  20
ENDBRANCH  10  19
TORSDOF 5
ENDMDL
MODEL 7
REMARK VINA RESULT:      -8.3      2.843      4.486
REMARK  Name = 
REMARK  5 active torsions:
REMARK  status: ('A' for Active; 'I' for Inactive)
REMARK    1  A    between atoms: C_7  and  C_8
REMARK    2  A    between atoms: C_24  and  C_26
REMARK    3  A    between atoms: C_26  and  C_29
REMARK    4  A    between atoms: N_31  and  C_33
REMARK    5  A    between atoms: C_40  and  N_41
REMARK                            x       y       z     vdW  Elec       q    Type
REMARK                         _______ _______ _______ _____ _____    ______ ____
ROOT
ATOM      1  C   UNL     1       8.894  -0.753  22.603  0.00  0.00    +0.000 C 
ATOM      2  C   UNL     1       8.554  -0.455  23.967  0.00  0.00    +0.000 A 
ATOM      3  C   UNL     1       9.379  -0.840  25.011  0.00  0.00    +0.000 A 
ATOM      4  C   UNL     1       9.042  -0.580  26.387  0.00  0.00    +0.000 A 
ATOM      5  C   UNL     1       7.518  -0.330  26.431  0.00  0.00    +0.000 A 
ATOM      6  C   UNL     1       6.516  -0.173  25.479  0.00  0.00    +0.000 A 
ATOM      7  C   UNL     1       7.008  -0.863  24.095  0.00  0.00    +0.000 A 
ATOM      8  C   UNL     1       6.345  -2.097  23.815  0.00  0.00    +0.000 C 
ATOM      9  N   UNL     1       6.859  -2.270  22.610  0.00  0.00    +0.000 N 
ATOM     10  C   UNL     1       6.506  -3.411  21.804  0.00  0.00    +0.000 C 
ATOM     11  O   UNL     1       5.450  -3.044  21.272  0.00  0.00    +0.000 OA
ATOM     12  C   UNL     1       8.027  -1.859  22.057  0.00  0.00    +0.000 C 
ENDROOT
BRANCH   1  16
ATOM     13  C   UNL     1       7.689   2.982  22.208  0.00  0.00    +0.000 A 
ATOM     14  C   UNL     1       7.215   1.908  21.295  0.00  0.00    +0.000 A 
ATOM     15  C   UNL     1       7.888   0.636  20.921  0.00  0.00    +0.000 A 
ATOM     16  C   UNL     1       9.061   0.452  21.978  0.00  0.00    +0.000 A 
ATOM     17  C   UNL     1       9.932   1.519  22.357  0.00  0.00    +0.000 A 
ATOM     18  C   UNL     1       9.110   2.730  22.601  0.00  0.00    +0.000 A 
ENDBRANCH   1  16
BRANCH  10  19
ATOM     19  C   UNL     1       6.527  -4.521  22.749  0.00  0.00    +0.000 C 
BRANCH  19  20
ATOM     20  C   UNL     1       5.953  -5.840  22.278  0.00  0.00    +0.000 C 
ATOM     21  O   UNL     1       6.580  -6.818  22.035  0.00  0.00    +0.000 OA
ATOM     22  N   UNL     1       4.631  -5.855  22.584  0.00  0.00    +0.000 N 
ATOM     23  H   UNL     1       4.242  -6.239  21.724  0.00  0.00    +0.000 HD
BRANCH  22  24
ATOM     24  C   UNL     1       4.274  -6.558  23.544  0.00  0.00    +0.000 A 
ATOM     25  C   UNL     1       2.806  -6.156  23.594  0.00  0.00    +0.000 A 
ATOM     26  C   UNL     1       1.983  -5.970  24.845  0.00  0.00    +0.000 A 
ATOM     27  C   UNL     1       2.865  -6.308  25.997  0.00  0.00    +0.000 A 
ATOM     28  C   UNL     1       4.219  -6.348  26.166  0.00  0.00    +0.000 A 
ATOM     29  C   UNL     1       4.896  -6.746  24.871  0.00  0.00    +0.000 A 
BRANCH  28  30
ATOM     30  N   UNL     1       4.654  -5.356  26.918  0.00  0.00    +0.000 N 
ATOM     31  C   UNL     1       5.462  -5.984  27.929  0.00  0.00    +0.000 C 
ATOM     32  O   UNL     1       5.499  -7.191  28.010  0.00  0.00    +0.000 OA
ATOM     33  C   UNL     1       5.347  -5.189  29.251  0.00  0.00    +0.000 C 
ATOM     34  C   UNL     1       4.505  -3.962  28.879  0.00  0.00    +0.000 C 
ATOM     35  C   UNL     1       3.805  -4.331  27.556  0.00  0.00    +0.000 C 
ENDBRANCH  28  30
ENDBRANCH  22  24
ENDBRANCH  19  20
ENDBRANCH  10  19
TORSDOF 5
ENDMDL
MODEL 8
REMARK VINA RESULT:      -8.2      2.718      7.911
REMARK  Name = 
REMARK  5 active torsions:
REMARK  status: ('A' for Active; 'I' for Inactive)
REMARK    1  A    between atoms: C_7  and  C_8
REMARK    2  A    between atoms: C_24  and  C_26
REMARK    3  A    between atoms: C_26  and  C_29
REMARK    4  A    between atoms: N_31  and  C_33
REMARK    5  A    between atoms: C_40  and  N_41
REMARK                            x       y       z     vdW  Elec       q    Type
REMARK                         _______ _______ _______ _____ _____    ______ ____
ROOT
ATOM      1  C   UNL     1       5.090  -5.448  24.971  0.00  0.00    +0.000 C 
ATOM      2  C   UNL     1       5.466  -5.173  23.612  0.00  0.00    +0.000 A 
ATOM      3  C   UNL     1       6.516  -5.847  23.010  0.00  0.00    +0.000 A 
ATOM      4  C   UNL     1       6.931  -5.564  21.659  0.00  0.00    +0.000 A 
ATOM      5  C   UNL     1       6.386  -4.160  21.313  0.00  0.00    +0.000 A 
ATOM      6  C   UNL     1       5.530  -3.253  21.929  0.00  0.00    +0.000 A 
ATOM      7  C   UNL     1       5.503  -3.572  23.521  0.00  0.00    +0.000 A 
ATOM      8  C   UNL     1       6.219  -2.611  24.299  0.00  0.00    +0.000 C 
ATOM      9  N   UNL     1       5.863  -3.084  25.480  0.00  0.00    +0.000 N 
ATOM     10  C   UNL     1       6.305  -2.457  26.700  0.00  0.00    +0.000 C 
ATOM     11  O   UNL     1       5.480  -1.546  26.845  0.00  0.00    +0.000 OA
ATOM     12  C   UNL     1       5.516  -4.330  25.890  0.00  0.00    +0.000 C 
ENDROOT
BRANCH   1  16
ATOM     13  C   UNL     1       1.537  -5.310  23.266  0.00  0.00    +0.000 A 
ATOM     14  C   UNL     1       1.831  -4.564  24.518  0.00  0.00    +0.000 A 
ATOM     15  C   UNL     1       2.837  -4.864  25.570  0.00  0.00    +0.000 A 
ATOM     16  C   UNL     1       3.815  -5.940  24.924  0.00  0.00    +0.000 A 
ATOM     17  C   UNL     1       3.341  -7.068  24.187  0.00  0.00    +0.000 A 
ATOM     18  C   UNL     1       2.281  -6.608  23.256  0.00  0.00    +0.000 A 
ENDBRANCH   1  16
BRANCH  10  19
ATOM     19  C   UNL     1       7.711  -2.167  26.448  0.00  0.00    +0.000 C 
BRANCH  19  20
ATOM     20  C   UNL     1       8.225  -0.812  26.885  0.00  0.00    +0.000 C 
ATOM     21  O   UNL     1       9.188  -0.621  27.553  0.00  0.00    +0.000 OA
ATOM     22  N   UNL     1       7.685   0.127  26.066  0.00  0.00    +0.000 N 
ATOM     23  H   UNL     1       7.427   0.843  26.743  0.00  0.00    +0.000 HD
BRANCH  22  24
ATOM     24  C   UNL     1       8.425   0.626  25.203  0.00  0.00    +0.000 A 
ATOM     25  C   UNL     1       7.994   2.080  25.339  0.00  0.00    +0.000 A 
ATOM     26  C   UNL     1       7.850   3.070  24.210  0.00  0.00    +0.000 A 
ATOM     27  C   UNL     1       8.262   2.365  22.963  0.00  0.00    +0.000 A 
ATOM     28  C   UNL     1       8.340   1.049  22.607  0.00  0.00    +0.000 A 
ATOM     29  C   UNL     1       8.689   0.201  23.812  0.00  0.00    +0.000 A 
BRANCH  28  30
ATOM     30  N   UNL     1       7.395   0.711  21.752  0.00  0.00    +0.000 N 
ATOM     31  C   UNL     1       8.056  -0.109  20.774  0.00  0.00    +0.000 C 
ATOM     32  O   UNL     1       9.260  -0.232  20.802  0.00  0.00    +0.000 OA
ATOM     33  C   UNL     1       7.399   0.104  19.390  0.00  0.00    +0.000 C 
ATOM     34  C   UNL     1       6.204   1.021  19.679  0.00  0.00    +0.000 C 
ATOM     35  C   UNL     1       6.495   1.652  21.055  0.00  0.00    +0.000 C 
ENDBRANCH  28  30
ENDBRANCH  22  24
ENDBRANCH  19  20
ENDBRANCH  10  19
TORSDOF 5
ENDMDL
MODEL 9
REMARK VINA RESULT:      -8.2      3.022      7.041
REMARK  Name = 
REMARK  5 active torsions:
REMARK  status: ('A' for Active; 'I' for Inactive)
REMARK    1  A    between atoms: C_7  and  C_8
REMARK    2  A    between atoms: C_24  and  C_26
REMARK    3  A    between atoms: C_26  and  C_29
REMARK    4  A    between atoms: N_31  and  C_33
REMARK    5  A    between atoms: C_40  and  N_41
REMARK                            x       y       z     vdW  Elec       q    Type
REMARK                         _______ _______ _______ _____ _____    ______ ____
ROOT
ATOM      1  C   UNL     1       6.419  -2.703  23.601  0.00  0.00    +0.000 C 
ATOM      2  C   UNL     1       6.818  -3.529  24.707  0.00  0.00    +0.000 A 
ATOM      3  C   UNL     1       6.455  -3.211  26.005  0.00  0.00    +0.000 A 
ATOM      4  C   UNL     1       6.873  -4.006  27.132  0.00  0.00    +0.000 A 
ATOM      5  C   UNL     1       8.097  -4.825  26.668  0.00  0.00    +0.000 A 
ATOM      6  C   UNL     1       8.735  -5.044  25.450  0.00  0.00    +0.000 A 
ATOM      7  C   UNL     1       8.377  -3.814  24.454  0.00  0.00    +0.000 A 
ATOM      8  C   UNL     1       9.468  -2.913  24.258  0.00  0.00    +0.000 C 
ATOM      9  N   UNL     1       8.887  -2.180  23.324  0.00  0.00    +0.000 N 
ATOM     10  C   UNL     1       9.573  -1.071  22.710  0.00  0.00    +0.000 C 
ATOM     11  O   UNL     1      10.236  -1.626  21.824  0.00  0.00    +0.000 OA
ATOM     12  C   UNL     1       7.583  -1.906  23.069  0.00  0.00    +0.000 C 
ENDROOT
BRANCH   1  16
ATOM     13  C   UNL     1       5.758  -6.250  22.007  0.00  0.00    +0.000 A 
ATOM     14  C   UNL     1       6.452  -5.173  21.253  0.00  0.00    +0.000 A 
ATOM     15  C   UNL     1       6.342  -3.699  21.415  0.00  0.00    +0.000 A 
ATOM     16  C   UNL     1       5.615  -3.481  22.813  0.00  0.00    +0.000 A 
ATOM     17  C   UNL     1       4.466  -4.230  23.210  0.00  0.00    +0.000 A 
ATOM     18  C   UNL     1       4.706  -5.660  22.892  0.00  0.00    +0.000 A 
ENDBRANCH   1  16
BRANCH  10  19
ATOM     19  C   UNL     1      10.224  -0.405  23.832  0.00  0.00    +0.000 C 
BRANCH  19  20
ATOM     20  C   UNL     1       9.955   1.074  24.007  0.00  0.00    +0.000 C 
ATOM     21  O   UNL     1      10.025   1.895  23.151  0.00  0.00    +0.000 OA
ATOM     22  N   UNL     1       9.233   1.238  25.144  0.00  0.00    +0.000 N 
ATOM     23  H   UNL     1       9.705   2.042  25.555  0.00  0.00    +0.000 HD
BRANCH  22  24
ATOM     24  C   UNL     1       8.024   1.492  25.021  0.00  0.00    +0.000 A 
ATOM     25  C   UNL     1       8.013   2.883  25.642  0.00  0.00    +0.000 A 
ATOM     26  C   UNL     1       6.919   3.457  26.508  0.00  0.00    +0.000 A 
ATOM     27  C   UNL     1       5.843   2.428  26.583  0.00  0.00    +0.000 A 
ATOM     28  C   UNL     1       5.820   1.076  26.397  0.00  0.00    +0.000 A 
ATOM     29  C   UNL     1       6.838   0.674  25.351  0.00  0.00    +0.000 A 
BRANCH  28  30
ATOM     30  N   UNL     1       5.674   0.422  27.533  0.00  0.00    +0.000 N 
ATOM     31  C   UNL     1       4.532  -0.427  27.328  0.00  0.00    +0.000 C 
ATOM     32  O   UNL     1       3.873  -0.322  26.318  0.00  0.00    +0.000 OA
ATOM     33  C   UNL     1       3.763  -0.591  28.660  0.00  0.00    +0.000 C 
ATOM     34  C   UNL     1       4.640   0.130  29.691  0.00  0.00    +0.000 C 
ATOM     35  C   UNL     1       5.573   1.042  28.869  0.00  0.00    +0.000 C 
ENDBRANCH  28  30
ENDBRANCH  22  24
ENDBRANCH  19  20
ENDBRANCH  10  19
TORSDOF 5
ENDMDL
