MODEL 1
REMARK VINA RESULT:      -9.1      0.000      0.000
REMARK  Name = 
REMARK  5 active torsions:
REMARK  status: ('A' for Active; 'I' for Inactive)
REMARK    1  A    between atoms: C_7  and  C_8
REMARK    2  A    between atoms: C_24  and  C_26
REMARK    3  A    between atoms: C_26  and  N_29
REMARK    4  A    between atoms: C_33  and  S_34
REMARK    5  A    between atoms: S_34  and  N_37
REMARK                            x       y       z     vdW  Elec       q    Type
REMARK                         _______ _______ _______ _____ _____    ______ ____
ROOT
ATOM      1  C   UNL     1       8.935   2.118  22.119  0.00  0.00    +0.000 C 
ATOM      2  C   UNL     1       8.090   1.593  21.054  0.00  0.00    +0.000 A 
ATOM      3  C   UNL     1       6.725   1.795  21.124  0.00  0.00    +0.000 A 
ATOM      4  C   UNL     1       5.828   1.243  20.115  0.00  0.00    +0.000 A 
ATOM      5  C   UNL     1       6.631   0.273  19.273  0.00  0.00    +0.000 A 
ATOM      6  C   UNL     1       7.992  -0.281  19.358  0.00  0.00    +0.000 A 
ATOM      7  C   UNL     1       8.539   0.161  20.677  0.00  0.00    +0.000 A 
ATOM      8  C   UNL     1       8.813  -0.938  21.731  0.00  0.00    +0.000 C 
ATOM      9  N   UNL     1       9.503  -0.334  22.685  0.00  0.00    +0.000 N 
ATOM     10  C   UNL     1       9.194  -0.692  24.080  0.00  0.00    +0.000 C 
ATOM     11  O   UNL     1       8.079  -0.148  24.259  0.00  0.00    +0.000 OA
ATOM     12  C   UNL     1       9.691   1.017  22.723  0.00  0.00    +0.000 C 
ENDROOT
BRANCH   1  16
ATOM     13  C   UNL     1       8.931   5.747  23.763  0.00  0.00    +0.000 A 
ATOM     14  C   UNL     1       9.341   4.499  24.494  0.00  0.00    +0.000 A 
ATOM     15  C   UNL     1       8.848   3.148  24.303  0.00  0.00    +0.000 A 
ATOM     16  C   UNL     1       8.191   3.057  22.836  0.00  0.00    +0.000 A 
ATOM     17  C   UNL     1       7.375   4.154  22.316  0.00  0.00    +0.000 A 
ATOM     18  C   UNL     1       7.801   5.553  22.832  0.00  0.00    +0.000 A 
ENDBRANCH   1  16
BRANCH  10  19
ATOM     19  C   UNL     1       9.068  -2.251  23.897  0.00  0.00    +0.000 C 
BRANCH  19  20
ATOM     20  N   UNL     1       8.536  -2.891  24.854  0.00  0.00    +0.000 N 
ATOM     21  C   UNL     1       7.619  -3.701  24.445  0.00  0.00    +0.000 A 
ATOM     22  C   UNL     1       7.731  -4.392  23.258  0.00  0.00    +0.000 A 
ATOM     23  C   UNL     1       6.783  -5.379  22.823  0.00  0.00    +0.000 A 
ATOM     24  C   UNL     1       5.965  -5.792  24.016  0.00  0.00    +0.000 A 
ATOM     25  C   UNL     1       5.934  -5.392  25.377  0.00  0.00    +0.000 A 
ATOM     26  C   UNL     1       7.103  -4.532  25.665  0.00  0.00    +0.000 A 
ATOM     27  C   UNL     1       8.186  -5.293  26.584  0.00  0.00    +0.000 C 
ATOM     28  C   UNL     1       9.238  -4.306  26.790  0.00  0.00    +0.000 C 
ATOM     29  C   UNL     1       8.903  -2.957  26.142  0.00  0.00    +0.000 C 
BRANCH  23  30
ATOM     30  S   UNL     1       5.701  -4.802  21.697  0.00  0.00    +0.000 S 
ATOM     31  O   UNL     1       4.334  -5.118  22.227  0.00  0.00    +0.000 OA
ATOM     32  O   UNL     1       5.880  -5.672  20.467  0.00  0.00    +0.000 OA
BRANCH  30  33
ATOM     33  N   UNL     1       5.687  -3.283  21.178  0.00  0.00    +0.000 NA
ATOM     34  H   UNL     1       5.400  -2.642  21.974  0.00  0.00    +0.000 HD
ATOM     35  H   UNL     1       4.837  -3.097  20.585  0.00  0.00    +0.000 HD
ENDBRANCH  30  33
ENDBRANCH  23  30
ENDBRANCH  19  20
ENDBRANCH  10  19
TORSDOF 5
ENDMDL
MODEL 2
REMARK VINA RESULT:      -8.7      2.442      8.523
REMARK  Name = 
REMARK  5 active torsions:
REMARK  status: ('A' for Active; 'I' for Inactive)
REMARK    1  A    between atoms: C_7  and  C_8
REMARK    2  A    between atoms: C_24  and  C_26
REMARK    3  A    between atoms: C_26  and  N_29
REMARK    4  A    between atoms: C_33  and  S_34
REMARK    5  A    between atoms: S_34  and  N_37
REMARK                            x       y       z     vdW  Elec       q    Type
REMARK                         _______ _______ _______ _____ _____    ______ ____
ROOT
ATOM      1  C   UNL     1       5.373  -6.145  24.082  0.00  0.00    +0.000 C 
ATOM      2  C   UNL     1       6.264  -5.794  25.180  0.00  0.00    +0.000 A 
ATOM      3  C   UNL     1       5.755  -5.094  26.257  0.00  0.00    +0.000 A 
ATOM      4  C   UNL     1       6.615  -4.670  27.356  0.00  0.00    +0.000 A 
ATOM      5  C   UNL     1       8.049  -4.890  26.923  0.00  0.00    +0.000 A 
ATOM      6  C   UNL     1       8.695  -5.282  25.660  0.00  0.00    +0.000 A 
ATOM      7  C   UNL     1       7.615  -5.285  24.626  0.00  0.00    +0.000 A 
ATOM      8  C   UNL     1       7.715  -4.228  23.500  0.00  0.00    +0.000 C 
ATOM      9  N   UNL     1       6.809  -4.591  22.607  0.00  0.00    +0.000 N 
ATOM     10  C   UNL     1       6.026  -3.525  21.958  0.00  0.00    +0.000 C 
ATOM     11  O   UNL     1       5.265  -3.147  22.879  0.00  0.00    +0.000 OA
ATOM     12  C   UNL     1       5.896  -5.579  22.835  0.00  0.00    +0.000 C 
ENDROOT
BRANCH   1  16
ATOM     13  C   UNL     1       1.642  -7.525  23.842  0.00  0.00    +0.000 A 
ATOM     14  C   UNL     1       2.189  -6.436  22.961  0.00  0.00    +0.000 A 
ATOM     15  C   UNL     1       3.201  -5.448  23.284  0.00  0.00    +0.000 A 
ATOM     16  C   UNL     1       4.058  -5.998  24.531  0.00  0.00    +0.000 A 
ATOM     17  C   UNL     1       3.399  -6.679  25.645  0.00  0.00    +0.000 A 
ATOM     18  C   UNL     1       2.131  -7.471  25.234  0.00  0.00    +0.000 A 
ENDBRANCH   1  16
BRANCH  10  19
ATOM     19  C   UNL     1       7.197  -2.502  21.702  0.00  0.00    +0.000 C 
BRANCH  19  20
ATOM     20  N   UNL     1       6.868  -1.378  21.218  0.00  0.00    +0.000 N 
ATOM     21  C   UNL     1       7.569  -0.413  21.711  0.00  0.00    +0.000 A 
ATOM     22  C   UNL     1       8.905  -0.562  22.014  0.00  0.00    +0.000 A 
ATOM     23  C   UNL     1       9.740   0.515  22.464  0.00  0.00    +0.000 A 
ATOM     24  C   UNL     1       9.043   1.808  22.138  0.00  0.00    +0.000 A 
ATOM     25  C   UNL     1       7.794   2.135  21.548  0.00  0.00    +0.000 A 
ATOM     26  C   UNL     1       7.186   0.913  20.976  0.00  0.00    +0.000 A 
ATOM     27  C   UNL     1       7.220   0.931  19.366  0.00  0.00    +0.000 C 
ATOM     28  C   UNL     1       6.564  -0.310  18.979  0.00  0.00    +0.000 C 
ATOM     29  C   UNL     1       6.052  -1.098  20.190  0.00  0.00    +0.000 C 
BRANCH  23  30
ATOM     30  S   UNL     1       9.979   0.520  24.111  0.00  0.00    +0.000 S 
ATOM     31  O   UNL     1      11.412   0.908  24.327  0.00  0.00    +0.000 OA
ATOM     32  O   UNL     1       9.871  -0.929  24.549  0.00  0.00    +0.000 OA
BRANCH  30  33
ATOM     33  N   UNL     1       9.081   1.370  25.134  0.00  0.00    +0.000 NA
ATOM     34  H   UNL     1       8.060   1.112  25.004  0.00  0.00    +0.000 HD
ATOM     35  H   UNL     1       8.979   2.366  24.807  0.00  0.00    +0.000 HD
ENDBRANCH  30  33
ENDBRANCH  23  30
ENDBRANCH  19  20
ENDBRANCH  10  19
TORSDOF 5
ENDMDL
MODEL 3
REMARK VINA RESULT:      -8.3      1.335      1.533
REMARK  Name = 
REMARK  5 active torsions:
REMARK  status: ('A' for Active; 'I' for Inactive)
REMARK    1  A    between atoms: C_7  and  C_8
REMARK    2  A    between atoms: C_24  and  C_26
REMARK    3  A    between atoms: C_26  and  N_29
REMARK    4  A    between atoms: C_33  and  S_34
REMARK    5  A    between atoms: S_34  and  N_37
REMARK                            x       y       z     vdW  Elec       q    Type
REMARK                         _______ _______ _______ _____ _____    ______ ____
ROOT
ATOM      1  C   UNL     1       8.398   1.981  22.391  0.00  0.00    +0.000 C 
ATOM      2  C   UNL     1       7.719   1.546  21.177  0.00  0.00    +0.000 A 
ATOM      3  C   UNL     1       6.416   1.949  20.960  0.00  0.00    +0.000 A 
ATOM      4  C   UNL     1       5.672   1.496  19.790  0.00  0.00    +0.000 A 
ATOM      5  C   UNL     1       6.474   0.388  19.140  0.00  0.00    +0.000 A 
ATOM      6  C   UNL     1       7.689  -0.357  19.510  0.00  0.00    +0.000 A 
ATOM      7  C   UNL     1       8.014   0.051  20.911  0.00  0.00    +0.000 A 
ATOM      8  C   UNL     1       7.897  -1.036  22.007  0.00  0.00    +0.000 C 
ATOM      9  N   UNL     1       8.459  -0.504  23.079  0.00  0.00    +0.000 N 
ATOM     10  C   UNL     1       7.821  -0.759  24.382  0.00  0.00    +0.000 C 
ATOM     11  O   UNL     1       6.788  -0.051  24.321  0.00  0.00    +0.000 OA
ATOM     12  C   UNL     1       8.839   0.806  23.147  0.00  0.00    +0.000 C 
ENDROOT
BRANCH   1  16
ATOM     13  C   UNL     1       8.617   5.512  24.226  0.00  0.00    +0.000 A 
ATOM     14  C   UNL     1       8.539   4.197  24.950  0.00  0.00    +0.000 A 
ATOM     15  C   UNL     1       7.871   2.981  24.527  0.00  0.00    +0.000 A 
ATOM     16  C   UNL     1       7.673   3.047  22.931  0.00  0.00    +0.000 A 
ATOM     17  C   UNL     1       7.279   4.296  22.281  0.00  0.00    +0.000 A 
ATOM     18  C   UNL     1       7.799   5.569  22.998  0.00  0.00    +0.000 A 
ENDBRANCH   1  16
BRANCH  10  19
ATOM     19  C   UNL     1       7.500  -2.289  24.187  0.00  0.00    +0.000 C 
BRANCH  19  20
ATOM     20  N   UNL     1       7.520  -3.007  25.231  0.00  0.00    +0.000 N 
ATOM     21  C   UNL     1       6.659  -3.966  25.176  0.00  0.00    +0.000 A 
ATOM     22  C   UNL     1       6.381  -4.632  24.002  0.00  0.00    +0.000 A 
ATOM     23  C   UNL     1       5.510  -5.770  23.923  0.00  0.00    +0.000 A 
ATOM     24  C   UNL     1       5.333  -6.315  25.315  0.00  0.00    +0.000 A 
ATOM     25  C   UNL     1       5.801  -5.921  26.595  0.00  0.00    +0.000 A 
ATOM     26  C   UNL     1       6.831  -4.870  26.441  0.00  0.00    +0.000 A 
ATOM     27  C   UNL     1       8.303  -5.426  26.787  0.00  0.00    +0.000 C 
ATOM     28  C   UNL     1       9.173  -4.271  26.615  0.00  0.00    +0.000 C 
ATOM     29  C   UNL     1       8.389  -3.004  26.252  0.00  0.00    +0.000 C 
BRANCH  23  30
ATOM     30  S   UNL     1       3.983  -5.395  23.375  0.00  0.00    +0.000 S 
ATOM     31  O   UNL     1       4.127  -4.154  22.545  0.00  0.00    +0.000 OA
ATOM     32  O   UNL     1       3.193  -4.982  24.603  0.00  0.00    +0.000 OA
BRANCH  30  33
ATOM     33  N   UNL     1       3.054  -6.423  22.565  0.00  0.00    +0.000 NA
ATOM     34  H   UNL     1       2.724  -5.964  21.666  0.00  0.00    +0.000 HD
ATOM     35  H   UNL     1       2.099  -6.492  23.003  0.00  0.00    +0.000 HD
ENDBRANCH  30  33
ENDBRANCH  23  30
ENDBRANCH  19  20
ENDBRANCH  10  19
TORSDOF 5
ENDMDL
MODEL 4
REMARK VINA RESULT:      -8.1      1.852      2.864
REMARK  Name = 
REMARK  5 active torsions:
REMARK  status: ('A' for Active; 'I' for Inactive)
REMARK    1  A    between atoms: C_7  and  C_8
REMARK    2  A    between atoms: C_24  and  C_26
REMARK    3  A    between atoms: C_26  and  N_29
REMARK    4  A    between atoms: C_33  and  S_34
REMARK    5  A    between atoms: S_34  and  N_37
REMARK                            x       y       z     vdW  Elec       q    Type
REMARK                         _______ _______ _______ _____ _____    ______ ____
ROOT
ATOM      1  C   UNL     1       8.922   0.952  24.949  0.00  0.00    +0.000 C 
ATOM      2  C   UNL     1       9.136   0.422  23.608  0.00  0.00    +0.000 A 
ATOM      3  C   UNL     1       8.167   0.628  22.645  0.00  0.00    +0.000 A 
ATOM      4  C   UNL     1       8.306   0.071  21.305  0.00  0.00    +0.000 A 
ATOM      5  C   UNL     1       9.462  -0.907  21.335  0.00  0.00    +0.000 A 
ATOM      6  C   UNL     1      10.310  -1.465  22.400  0.00  0.00    +0.000 A 
ATOM      7  C   UNL     1       9.707  -1.014  23.690  0.00  0.00    +0.000 A 
ATOM      8  C   UNL     1       9.103  -2.105  24.606  0.00  0.00    +0.000 C 
ATOM      9  N   UNL     1       8.866  -1.496  25.756  0.00  0.00    +0.000 N 
ATOM     10  C   UNL     1       7.624  -1.842  26.469  0.00  0.00    +0.000 C 
ATOM     11  O   UNL     1       6.745  -1.293  25.763  0.00  0.00    +0.000 OA
ATOM     12  C   UNL     1       8.975  -0.145  25.918  0.00  0.00    +0.000 C 
ENDROOT
BRANCH   1  16
ATOM     13  C   UNL     1       7.477   4.350  26.447  0.00  0.00    +0.000 A 
ATOM     14  C   UNL     1       7.111   2.987  26.963  0.00  0.00    +0.000 A 
ATOM     15  C   UNL     1       7.027   1.743  26.222  0.00  0.00    +0.000 A 
ATOM     16  C   UNL     1       7.898   1.900  24.878  0.00  0.00    +0.000 A 
ATOM     17  C   UNL     1       7.868   3.146  24.112  0.00  0.00    +0.000 A 
ATOM     18  C   UNL     1       7.644   4.411  24.981  0.00  0.00    +0.000 A 
ENDBRANCH   1  16
BRANCH  10  19
ATOM     19  C   UNL     1       7.662  -3.402  26.256  0.00  0.00    +0.000 C 
BRANCH  19  20
ATOM     20  N   UNL     1       6.603  -4.037  26.543  0.00  0.00    +0.000 N 
ATOM     21  C   UNL     1       6.057  -4.565  25.500  0.00  0.00    +0.000 A 
ATOM     22  C   UNL     1       6.806  -5.093  24.471  0.00  0.00    +0.000 A 
ATOM     23  C   UNL     1       6.236  -5.781  23.347  0.00  0.00    +0.000 A 
ATOM     24  C   UNL     1       4.827  -6.168  23.708  0.00  0.00    +0.000 A 
ATOM     25  C   UNL     1       4.009  -5.962  24.849  0.00  0.00    +0.000 A 
ATOM     26  C   UNL     1       4.832  -5.425  25.955  0.00  0.00    +0.000 A 
ATOM     27  C   UNL     1       5.057  -6.521  27.113  0.00  0.00    +0.000 C 
ATOM     28  C   UNL     1       5.849  -5.824  28.118  0.00  0.00    +0.000 C 
ATOM     29  C   UNL     1       6.101  -4.359  27.744  0.00  0.00    +0.000 C 
BRANCH  23  30
ATOM     30  S   UNL     1       6.121  -4.833  21.984  0.00  0.00    +0.000 S 
ATOM     31  O   UNL     1       7.317  -3.928  21.998  0.00  0.00    +0.000 OA
ATOM     32  O   UNL     1       4.919  -3.934  22.204  0.00  0.00    +0.000 OA
BRANCH  30  33
ATOM     33  N   UNL     1       5.975  -5.428  20.500  0.00  0.00    +0.000 NA
ATOM     34  H   UNL     1       5.155  -4.961  20.013  0.00  0.00    +0.000 HD
ATOM     35  H   UNL     1       5.547  -6.391  20.522  0.00  0.00    +0.000 HD
ENDBRANCH  30  33
ENDBRANCH  23  30
ENDBRANCH  19  20
ENDBRANCH  10  19
TORSDOF 5
ENDMDL
MODEL 5
REMARK VINA RESULT:      -7.8      3.204      5.089
REMARK  Name = 
REMARK  5 active torsions:
REMARK  status: ('A' for Active; 'I' for Inactive)
REMARK    1  A    between atoms: C_7  and  C_8
REMARK    2  A    between atoms: C_24  and  C_26
REMARK    3  A    between atoms: C_26  and  N_29
REMARK    4  A    between atoms: C_33  and  S_34
REMARK    5  A    between atoms: S_34  and  N_37
REMARK                            x       y       z     vdW  Elec       q    Type
REMARK                         _______ _______ _______ _____ _____    ______ ____
ROOT
ATOM      1  C   UNL     1       8.824  -2.765  23.839  0.00  0.00    +0.000 C 
ATOM      2  C   UNL     1       7.950  -3.392  22.855  0.00  0.00    +0.000 A 
ATOM      3  C   UNL     1       6.969  -2.629  22.250  0.00  0.00    +0.000 A 
ATOM      4  C   UNL     1       6.033  -3.220  21.301  0.00  0.00    +0.000 A 
ATOM      5  C   UNL     1       6.194  -4.724  21.378  0.00  0.00    +0.000 A 
ATOM      6  C   UNL     1       6.947  -5.635  22.255  0.00  0.00    +0.000 A 
ATOM      7  C   UNL     1       7.505  -4.788  23.352  0.00  0.00    +0.000 A 
ATOM      8  C   UNL     1       6.964  -5.036  24.780  0.00  0.00    +0.000 C 
ATOM      9  N   UNL     1       7.771  -4.354  25.577  0.00  0.00    +0.000 N 
ATOM     10  C   UNL     1       7.165  -3.645  26.717  0.00  0.00    +0.000 C 
ATOM     11  O   UNL     1       6.575  -2.690  26.159  0.00  0.00    +0.000 OA
ATOM     12  C   UNL     1       8.715  -3.486  25.110  0.00  0.00    +0.000 C 
ENDROOT
BRANCH   1  16
ATOM     13  C   UNL     1      10.732   0.729  23.995  0.00  0.00    +0.000 A 
ATOM     14  C   UNL     1      10.040   0.101  25.173  0.00  0.00    +0.000 A 
ATOM     15  C   UNL     1       8.865  -0.750  25.171  0.00  0.00    +0.000 A 
ATOM     16  C   UNL     1       8.706  -1.380  23.699  0.00  0.00    +0.000 A 
ATOM     17  C   UNL     1       8.953  -0.566  22.509  0.00  0.00    +0.000 A 
ATOM     18  C   UNL     1      10.028   0.533  22.712  0.00  0.00    +0.000 A 
ENDBRANCH   1  16
BRANCH  10  19
ATOM     19  C   UNL     1       6.163  -4.768  27.182  0.00  0.00    +0.000 C 
BRANCH  19  20
ATOM     20  N   UNL     1       5.050  -4.375  27.644  0.00  0.00    +0.000 N 
ATOM     21  C   UNL     1       4.059  -5.036  27.149  0.00  0.00    +0.000 A 
ATOM     22  C   UNL     1       4.145  -6.383  26.871  0.00  0.00    +0.000 A 
ATOM     23  C   UNL     1       3.034  -7.172  26.420  0.00  0.00    +0.000 A 
ATOM     24  C   UNL     1       1.772  -6.405  26.716  0.00  0.00    +0.000 A 
ATOM     25  C   UNL     1       1.501  -5.132  27.280  0.00  0.00    +0.000 A 
ATOM     26  C   UNL     1       2.744  -4.575  27.858  0.00  0.00    +0.000 A 
ATOM     27  C   UNL     1       2.702  -4.580  29.469  0.00  0.00    +0.000 C 
ATOM     28  C   UNL     1       3.970  -3.979  29.862  0.00  0.00    +0.000 C 
ATOM     29  C   UNL     1       4.798  -3.529  28.653  0.00  0.00    +0.000 C 
BRANCH  23  30
ATOM     30  S   UNL     1       3.039  -7.439  24.777  0.00  0.00    +0.000 S 
ATOM     31  O   UNL     1       2.056  -6.469  24.190  0.00  0.00    +0.000 OA
ATOM     32  O   UNL     1       2.431  -8.815  24.580  0.00  0.00    +0.000 OA
BRANCH  30  33
ATOM     33  N   UNL     1       4.366  -7.397  23.876  0.00  0.00    +0.000 NA
ATOM     34  H   UNL     1       4.094  -7.339  22.852  0.00  0.00    +0.000 HD
ATOM     35  H   UNL     1       4.806  -8.352  23.811  0.00  0.00    +0.000 HD
ENDBRANCH  30  33
ENDBRANCH  23  30
ENDBRANCH  19  20
ENDBRANCH  10  19
TORSDOF 5
ENDMDL
MODEL 6
REMARK VINA RESULT:      -7.6      2.789      4.044
REMARK  Name = 
REMARK  5 active torsions:
REMARK  status: ('A' for Active; 'I' for Inactive)
REMARK    1  A    between atoms: C_7  and  C_8
REMARK    2  A    between atoms: C_24  and  C_26
REMARK    3  A    between atoms: C_26  and  N_29
REMARK    4  A    between atoms: C_33  and  S_34
REMARK    5  A    between atoms: S_34  and  N_37
REMARK                            x       y       z     vdW  Elec       q    Type
REMARK                         _______ _______ _______ _____ _____    ______ ____
ROOT
ATOM      1  C   UNL     1       8.494  -0.123  21.562  0.00  0.00    +0.000 C 
ATOM      2  C   UNL     1       7.474   0.245  20.588  0.00  0.00    +0.000 A 
ATOM      3  C   UNL     1       6.686   1.354  20.832  0.00  0.00    +0.000 A 
ATOM      4  C   UNL     1       5.615   1.734  19.919  0.00  0.00    +0.000 A 
ATOM      5  C   UNL     1       5.418   0.589  18.947  0.00  0.00    +0.000 A 
ATOM      6  C   UNL     1       5.955  -0.777  18.842  0.00  0.00    +0.000 A 
ATOM      7  C   UNL     1       6.724  -1.017  20.101  0.00  0.00    +0.000 A 
ATOM      8  C   UNL     1       6.174  -2.092  21.069  0.00  0.00    +0.000 C 
ATOM      9  N   UNL     1       7.138  -2.281  21.955  0.00  0.00    +0.000 N 
ATOM     10  C   UNL     1       6.744  -2.468  23.362  0.00  0.00    +0.000 C 
ATOM     11  O   UNL     1       6.382  -1.316  23.698  0.00  0.00    +0.000 OA
ATOM     12  C   UNL     1       8.249  -1.491  22.025  0.00  0.00    +0.000 C 
ENDROOT
BRANCH   1  16
ATOM     13  C   UNL     1      10.946   1.574  24.205  0.00  0.00    +0.000 A 
ATOM     14  C   UNL     1       9.838   0.629  24.579  0.00  0.00    +0.000 A 
ATOM     15  C   UNL     1       8.565   0.435  23.912  0.00  0.00    +0.000 A 
ATOM     16  C   UNL     1       8.703   0.974  22.402  0.00  0.00    +0.000 A 
ATOM     17  C   UNL     1       9.434   2.208  22.115  0.00  0.00    +0.000 A 
ATOM     18  C   UNL     1      10.608   2.483  23.091  0.00  0.00    +0.000 A 
ENDBRANCH   1  16
BRANCH  10  19
ATOM     19  C   UNL     1       5.517  -3.429  23.133  0.00  0.00    +0.000 C 
BRANCH  19  20
ATOM     20  N   UNL     1       5.456  -4.454  23.877  0.00  0.00    +0.000 N 
ATOM     21  C   UNL     1       4.775  -4.233  24.951  0.00  0.00    +0.000 A 
ATOM     22  C   UNL     1       3.656  -3.428  24.954  0.00  0.00    +0.000 A 
ATOM     23  C   UNL     1       2.816  -3.244  26.103  0.00  0.00    +0.000 A 
ATOM     24  C   UNL     1       3.114  -4.352  27.077  0.00  0.00    +0.000 A 
ATOM     25  C   UNL     1       4.028  -5.438  27.086  0.00  0.00    +0.000 A 
ATOM     26  C   UNL     1       4.647  -5.572  25.749  0.00  0.00    +0.000 A 
ATOM     27  C   UNL     1       4.105  -6.875  24.972  0.00  0.00    +0.000 C 
ATOM     28  C   UNL     1       4.831  -6.867  23.709  0.00  0.00    +0.000 C 
ATOM     29  C   UNL     1       5.838  -5.714  23.626  0.00  0.00    +0.000 C 
BRANCH  23  30
ATOM     30  S   UNL     1       3.111  -1.822  26.915  0.00  0.00    +0.000 S 
ATOM     31  O   UNL     1       1.846  -1.019  26.830  0.00  0.00    +0.000 OA
ATOM     32  O   UNL     1       4.133  -1.073  26.080  0.00  0.00    +0.000 OA
BRANCH  30  33
ATOM     33  N   UNL     1       3.632  -1.758  28.431  0.00  0.00    +0.000 NA
ATOM     34  H   UNL     1       3.000  -1.116  28.994  0.00  0.00    +0.000 HD
ATOM     35  H   UNL     1       4.490  -1.152  28.509  0.00  0.00    +0.000 HD
ENDBRANCH  30  33
ENDBRANCH  23  30
ENDBRANCH  19  20
ENDBRANCH  10  19
TORSDOF 5
ENDMDL
MODEL 7
REMARK VINA RESULT:      -7.4      3.320      7.507
REMARK  Name = 
REMARK  5 active torsions:
REMARK  status: ('A' for Active; 'I' for Inactive)
REMARK    1  A    between atoms: C_7  and  C_8
REMARK    2  A    between atoms: C_24  and  C_26
REMARK    3  A    between atoms: C_26  and  N_29
REMARK    4  A    between atoms: C_33  and  S_34
REMARK    5  A    between atoms: S_34  and  N_37
REMARK                            x       y       z     vdW  Elec       q    Type
REMARK                         _______ _______ _______ _____ _____    ______ ____
ROOT
ATOM      1  C   UNL     1       3.472  -3.552  26.320  0.00  0.00    +0.000 C 
ATOM      2  C   UNL     1       3.408  -4.775  25.530  0.00  0.00    +0.000 A 
ATOM      3  C   UNL     1       3.879  -5.952  26.081  0.00  0.00    +0.000 A 
ATOM      4  C   UNL     1       3.889  -7.192  25.314  0.00  0.00    +0.000 A 
ATOM      5  C   UNL     1       3.586  -6.840  23.873  0.00  0.00    +0.000 A 
ATOM      6  C   UNL     1       3.438  -5.577  23.131  0.00  0.00    +0.000 A 
ATOM      7  C   UNL     1       3.846  -4.492  24.074  0.00  0.00    +0.000 A 
ATOM      8  C   UNL     1       5.127  -3.698  23.723  0.00  0.00    +0.000 C 
ATOM      9  N   UNL     1       5.131  -2.668  24.553  0.00  0.00    +0.000 N 
ATOM     10  C   UNL     1       6.425  -2.259  25.128  0.00  0.00    +0.000 C 
ATOM     11  O   UNL     1       6.661  -3.180  25.945  0.00  0.00    +0.000 OA
ATOM     12  C   UNL     1       4.254  -2.548  25.593  0.00  0.00    +0.000 C 
ENDROOT
BRANCH   1  16
ATOM     13  C   UNL     1       2.597  -2.743  30.122  0.00  0.00    +0.000 A 
ATOM     14  C   UNL     1       3.759  -2.138  29.385  0.00  0.00    +0.000 A 
ATOM     15  C   UNL     1       4.548  -2.728  28.320  0.00  0.00    +0.000 A 
ATOM     16  C   UNL     1       3.685  -3.911  27.654  0.00  0.00    +0.000 A 
ATOM     17  C   UNL     1       2.891  -4.814  28.486  0.00  0.00    +0.000 A 
ATOM     18  C   UNL     1       2.338  -4.155  29.776  0.00  0.00    +0.000 A 
ENDBRANCH   1  16
BRANCH  10  19
ATOM     19  C   UNL     1       7.304  -2.383  23.827  0.00  0.00    +0.000 C 
BRANCH  19  20
ATOM     20  N   UNL     1       8.338  -1.651  23.774  0.00  0.00    +0.000 N 
ATOM     21  C   UNL     1       8.290  -0.816  22.791  0.00  0.00    +0.000 A 
ATOM     22  C   UNL     1       7.114  -0.214  22.400  0.00  0.00    +0.000 A 
ATOM     23  C   UNL     1       7.041   0.796  21.382  0.00  0.00    +0.000 A 
ATOM     24  C   UNL     1       8.429   1.336  21.166  0.00  0.00    +0.000 A 
ATOM     25  C   UNL     1       9.703   1.031  21.711  0.00  0.00    +0.000 A 
ATOM     26  C   UNL     1       9.538   0.124  22.869  0.00  0.00    +0.000 A 
ATOM     27  C   UNL     1       9.839   0.878  24.260  0.00  0.00    +0.000 C 
ATOM     28  C   UNL     1       9.662  -0.154  25.274  0.00  0.00    +0.000 C 
ATOM     29  C   UNL     1       9.336  -1.520  24.659  0.00  0.00    +0.000 C 
BRANCH  23  30
ATOM     30  S   UNL     1       6.537   0.210  19.908  0.00  0.00    +0.000 S 
ATOM     31  O   UNL     1       7.771   0.067  19.068  0.00  0.00    +0.000 OA
ATOM     32  O   UNL     1       5.731   1.328  19.272  0.00  0.00    +0.000 OA
BRANCH  30  33
ATOM     33  N   UNL     1       5.668  -1.128  19.735  0.00  0.00    +0.000 NA
ATOM     34  H   UNL     1       5.559  -1.346  18.702  0.00  0.00    +0.000 HD
ATOM     35  H   UNL     1       4.647  -0.938  19.908  0.00  0.00    +0.000 HD
ENDBRANCH  30  33
ENDBRANCH  23  30
ENDBRANCH  19  20
ENDBRANCH  10  19
TORSDOF 5
ENDMDL
MODEL 8
REMARK VINA RESULT:      -7.2      2.592      4.240
REMARK  Name = 
REMARK  5 active torsions:
REMARK  status: ('A' for Active; 'I' for Inactive)
REMARK    1  A    between atoms: C_7  and  C_8
REMARK    2  A    between atoms: C_24  and  C_26
REMARK    3  A    between atoms: C_26  and  N_29
REMARK    4  A    between atoms: C_33  and  S_34
REMARK    5  A    between atoms: S_34  and  N_37
REMARK                            x       y       z     vdW  Elec       q    Type
REMARK                         _______ _______ _______ _____ _____    ______ ____
ROOT
ATOM      1  C   UNL     1       8.428   3.602  23.156  0.00  0.00    +0.000 C 
ATOM      2  C   UNL     1       7.177   3.954  23.815  0.00  0.00    +0.000 A 
ATOM      3  C   UNL     1       7.204   4.326  25.146  0.00  0.00    +0.000 A 
ATOM      4  C   UNL     1       5.975   4.634  25.868  0.00  0.00    +0.000 A 
ATOM      5  C   UNL     1       4.814   4.201  24.998  0.00  0.00    +0.000 A 
ATOM      6  C   UNL     1       4.697   3.460  23.732  0.00  0.00    +0.000 A 
ATOM      7  C   UNL     1       6.067   2.951  23.421  0.00  0.00    +0.000 A 
ATOM      8  C   UNL     1       6.273   1.417  23.452  0.00  0.00    +0.000 C 
ATOM      9  N   UNL     1       7.467   1.220  22.917  0.00  0.00    +0.000 N 
ATOM     10  C   UNL     1       8.324   0.187  23.523  0.00  0.00    +0.000 C 
ATOM     11  O   UNL     1       8.671   0.722  24.602  0.00  0.00    +0.000 OA
ATOM     12  C   UNL     1       8.329   2.238  22.628  0.00  0.00    +0.000 C 
ENDROOT
BRANCH   1  16
ATOM     13  C   UNL     1      12.189   4.917  23.183  0.00  0.00    +0.000 A 
ATOM     14  C   UNL     1      11.808   3.471  23.344  0.00  0.00    +0.000 A 
ATOM     15  C   UNL     1      10.607   2.925  23.949  0.00  0.00    +0.000 A 
ATOM     16  C   UNL     1       9.479   4.073  23.947  0.00  0.00    +0.000 A 
ATOM     17  C   UNL     1       9.824   5.458  24.263  0.00  0.00    +0.000 A 
ATOM     18  C   UNL     1      11.262   5.858  23.842  0.00  0.00    +0.000 A 
ENDBRANCH   1  16
BRANCH  10  19
ATOM     19  C   UNL     1       7.229  -0.924  23.739  0.00  0.00    +0.000 C 
BRANCH  19  20
ATOM     20  N   UNL     1       7.196  -1.858  22.882  0.00  0.00    +0.000 N 
ATOM     21  C   UNL     1       7.287  -3.023  23.430  0.00  0.00    +0.000 A 
ATOM     22  C   UNL     1       6.698  -3.308  24.643  0.00  0.00    +0.000 A 
ATOM     23  C   UNL     1       6.688  -4.617  25.231  0.00  0.00    +0.000 A 
ATOM     24  C   UNL     1       7.025  -5.611  24.153  0.00  0.00    +0.000 A 
ATOM     25  C   UNL     1       7.360  -5.501  22.778  0.00  0.00    +0.000 A 
ATOM     26  C   UNL     1       7.117  -4.114  22.323  0.00  0.00    +0.000 A 
ATOM     27  C   UNL     1       5.834  -4.024  21.353  0.00  0.00    +0.000 C 
ATOM     28  C   UNL     1       5.763  -2.617  20.982  0.00  0.00    +0.000 C 
ATOM     29  C   UNL     1       6.919  -1.802  21.571  0.00  0.00    +0.000 C 
BRANCH  23  30
ATOM     30  S   UNL     1       7.838  -4.814  26.418  0.00  0.00    +0.000 S 
ATOM     31  O   UNL     1       8.009  -3.472  27.067  0.00  0.00    +0.000 OA
ATOM     32  O   UNL     1       9.141  -5.090  25.690  0.00  0.00    +0.000 OA
BRANCH  30  33
ATOM     33  N   UNL     1       7.730  -5.912  27.584  0.00  0.00    +0.000 NA
ATOM     34  H   UNL     1       7.164  -5.515  28.389  0.00  0.00    +0.000 HD
ATOM     35  H   UNL     1       8.635  -5.983  28.118  0.00  0.00    +0.000 HD
ENDBRANCH  30  33
ENDBRANCH  23  30
ENDBRANCH  19  20
ENDBRANCH  10  19
TORSDOF 5
ENDMDL
MODEL 9
REMARK VINA RESULT:      -7.2      3.097      8.795
REMARK  Name = 
REMARK  5 active torsions:
REMARK  status: ('A' for Active; 'I' for Inactive)
REMARK    1  A    between atoms: C_7  and  C_8
REMARK    2  A    between atoms: C_24  and  C_26
REMARK    3  A    between atoms: C_26  and  N_29
REMARK    4  A    between atoms: C_33  and  S_34
REMARK    5  A    between atoms: S_34  and  N_37
REMARK                            x       y       z     vdW  Elec       q    Type
REMARK                         _______ _______ _______ _____ _____    ______ ____
ROOT
ATOM      1  C   UNL     1       4.827  -6.288  24.629  0.00  0.00    +0.000 C 
ATOM      2  C   UNL     1       5.367  -6.175  25.978  0.00  0.00    +0.000 A 
ATOM      3  C   UNL     1       4.510  -5.865  27.017  0.00  0.00    +0.000 A 
ATOM      4  C   UNL     1       5.008  -5.685  28.376  0.00  0.00    +0.000 A 
ATOM      5  C   UNL     1       6.519  -5.625  28.305  0.00  0.00    +0.000 A 
ATOM      6  C   UNL     1       7.496  -5.575  27.205  0.00  0.00    +0.000 A 
ATOM      7  C   UNL     1       6.702  -5.393  25.952  0.00  0.00    +0.000 A 
ATOM      8  C   UNL     1       6.877  -4.056  25.194  0.00  0.00    +0.000 C 
ATOM      9  N   UNL     1       6.277  -4.240  24.030  0.00  0.00    +0.000 N 
ATOM     10  C   UNL     1       5.495  -3.119  23.480  0.00  0.00    +0.000 C 
ATOM     11  O   UNL     1       4.488  -3.099  24.227  0.00  0.00    +0.000 OA
ATOM     12  C   UNL     1       5.519  -5.341  23.750  0.00  0.00    +0.000 C 
ENDROOT
BRANCH   1  16
ATOM     13  C   UNL     1       1.540  -7.870  23.027  0.00  0.00    +0.000 A 
ATOM     14  C   UNL     1       2.082  -6.518  22.657  0.00  0.00    +0.000 A 
ATOM     15  C   UNL     1       2.811  -5.586  23.497  0.00  0.00    +0.000 A 
ATOM     16  C   UNL     1       3.439  -6.409  24.730  0.00  0.00    +0.000 A 
ATOM     17  C   UNL     1       2.667  -7.457  25.396  0.00  0.00    +0.000 A 
ATOM     18  C   UNL     1       1.680  -8.201  24.459  0.00  0.00    +0.000 A 
ENDBRANCH   1  16
BRANCH  10  19
ATOM     19  C   UNL     1       6.500  -1.952  23.811  0.00  0.00    +0.000 C 
BRANCH  19  20
ATOM     20  N   UNL     1       7.141  -1.465  22.831  0.00  0.00    +0.000 N 
ATOM     21  C   UNL     1       7.081  -0.177  22.805  0.00  0.00    +0.000 A 
ATOM     22  C   UNL     1       7.091   0.579  23.958  0.00  0.00    +0.000 A 
ATOM     23  C   UNL     1       7.132   2.014  23.964  0.00  0.00    +0.000 A 
ATOM     24  C   UNL     1       7.573   2.470  22.600  0.00  0.00    +0.000 A 
ATOM     25  C   UNL     1       7.896   1.800  21.391  0.00  0.00    +0.000 A 
ATOM     26  C   UNL     1       7.991   0.345  21.646  0.00  0.00    +0.000 A 
ATOM     27  C   UNL     1       9.517  -0.169  21.583  0.00  0.00    +0.000 C 
ATOM     28  C   UNL     1       9.422  -1.603  21.822  0.00  0.00    +0.000 C 
ATOM     29  C   UNL     1       7.970  -2.071  21.970  0.00  0.00    +0.000 C 
BRANCH  23  30
ATOM     30  S   UNL     1       5.645   2.714  24.228  0.00  0.00    +0.000 S 
ATOM     31  O   UNL     1       5.887   4.191  24.322  0.00  0.00    +0.000 OA
ATOM     32  O   UNL     1       5.222   2.275  25.617  0.00  0.00    +0.000 OA
BRANCH  30  33
ATOM     33  N   UNL     1       4.375   2.484  23.274  0.00  0.00    +0.000 NA
ATOM     34  H   UNL     1       3.549   3.035  23.650  0.00  0.00    +0.000 HD
ATOM     35  H   UNL     1       3.949   1.535  23.438  0.00  0.00    +0.000 HD
ENDBRANCH  30  33
ENDBRANCH  23  30
ENDBRANCH  19  20
ENDBRANCH  10  19
TORSDOF 5
ENDMDL
