MODEL 1
REMARK VINA RESULT:      -8.8      0.000      0.000
REMARK  Name = 
REMARK  5 active torsions:
REMARK  status: ('A' for Active; 'I' for Inactive)
REMARK    1  A    between atoms: C_7  and  C_8
REMARK    2  A    between atoms: C_24  and  C_26
REMARK    3  A    between atoms: C_33  and  C_34
REMARK    4  A    between atoms: C_34  and  N_37
REMARK    5  A    between atoms: C_45  and  C_47
REMARK                            x       y       z     vdW  Elec       q    Type
REMARK                         _______ _______ _______ _____ _____    ______ ____
ROOT
ATOM      1  C   UNL     1       8.211   2.137  21.908  0.00  0.00    +0.000 C 
ATOM      2  C   UNL     1       7.482   1.599  20.935  0.00  0.00    +0.000 A 
ATOM      3  C   UNL     1       6.197   1.467  20.737  0.00  0.00    +0.000 A 
ATOM      4  C   UNL     1       5.423   1.001  19.571  0.00  0.00    +0.000 A 
ATOM      5  C   UNL     1       6.448   0.095  18.875  0.00  0.00    +0.000 A 
ATOM      6  C   UNL     1       7.830  -0.141  18.953  0.00  0.00    +0.000 A 
ATOM      7  C   UNL     1       8.260   0.282  20.451  0.00  0.00    +0.000 A 
ATOM      8  C   UNL     1       8.513  -0.772  21.289  0.00  0.00    +0.000 C 
ATOM      9  N   UNL     1       9.032  -0.195  22.371  0.00  0.00    +0.000 N 
ATOM     10  C   UNL     1       9.087  -0.737  23.647  0.00  0.00    +0.000 C 
ATOM     11  O   UNL     1      10.358  -0.974  23.823  0.00  0.00    +0.000 OA
ATOM     12  C   UNL     1       9.169   1.156  22.529  0.00  0.00    +0.000 C 
ENDROOT
BRANCH   1  16
ATOM     13  C   UNL     1       8.912   4.600  24.714  0.00  0.00    +0.000 A 
ATOM     14  C   UNL     1       8.337   5.073  23.455  0.00  0.00    +0.000 A 
ATOM     15  C   UNL     1       7.456   4.418  22.481  0.00  0.00    +0.000 A 
ATOM     16  C   UNL     1       7.328   2.856  22.856  0.00  0.00    +0.000 A 
ATOM     17  C   UNL     1       7.436   2.426  24.311  0.00  0.00    +0.000 A 
ATOM     18  C   UNL     1       8.204   3.415  25.244  0.00  0.00    +0.000 A 
ENDBRANCH   1  16
BRANCH  10  19
ATOM     19  C   UNL     1       8.270  -1.768  23.881  0.00  0.00    +0.000 A 
ATOM     20  C   UNL     1       9.270  -2.925  23.915  0.00  0.00    +0.000 A 
ATOM     21  C   UNL     1       9.329  -3.973  24.980  0.00  0.00    +0.000 A 
ATOM     22  C   UNL     1       8.374  -3.578  26.058  0.00  0.00    +0.000 A 
ATOM     23  C   UNL     1       7.374  -2.676  26.169  0.00  0.00    +0.000 A 
ATOM     24  C   UNL     1       7.209  -1.944  24.842  0.00  0.00    +0.000 A 
BRANCH  23  25
ATOM     25  C   UNL     1       6.170  -2.994  26.953  0.00  0.00    +0.000 C 
BRANCH  25  26
ATOM     26  N   UNL     1       5.539  -4.173  26.657  0.00  0.00    +0.000 NA
ATOM     27  C   UNL     1       4.165  -4.207  26.546  0.00  0.00    +0.000 C 
ATOM     28  C   UNL     1       3.715  -4.528  25.087  0.00  0.00    +0.000 C 
ATOM     29  N   UNL     1       4.730  -5.401  24.531  0.00  0.00    +0.000 N 
ATOM     30  C   UNL     1       5.020  -5.294  23.213  0.00  0.00    +0.000 C 
ATOM     31  O   UNL     1       4.077  -5.048  22.446  0.00  0.00    +0.000 OA
ATOM     32  C   UNL     1       5.462  -6.255  25.423  0.00  0.00    +0.000 C 
ATOM     33  C   UNL     1       6.171  -5.384  26.491  0.00  0.00    +0.000 C 
BRANCH  30  34
ATOM     34  C   UNL     1       6.400  -4.783  22.889  0.00  0.00    +0.000 C 
ATOM     35 CL   UNL     1       7.455  -6.089  22.314  0.00  0.00    +0.000 Cl
ENDBRANCH  30  34
ENDBRANCH  25  26
ENDBRANCH  23  25
ENDBRANCH  10  19
TORSDOF 5
ENDMDL
MODEL 2
REMARK VINA RESULT:      -8.4      1.977      3.079
REMARK  Name = 
REMARK  5 active torsions:
REMARK  status: ('A' for Active; 'I' for Inactive)
REMARK    1  A    between atoms: C_7  and  C_8
REMARK    2  A    between atoms: C_24  and  C_26
REMARK    3  A    between atoms: C_33  and  C_34
REMARK    4  A    between atoms: C_34  and  N_37
REMARK    5  A    between atoms: C_45  and  C_47
REMARK                            x       y       z     vdW  Elec       q    Type
REMARK                         _______ _______ _______ _____ _____    ______ ____
ROOT
ATOM      1  C   UNL     1       7.465   1.060  22.200  0.00  0.00    +0.000 C 
ATOM      2  C   UNL     1       6.896   1.140  21.001  0.00  0.00    +0.000 A 
ATOM      3  C   UNL     1       5.692   1.441  20.592  0.00  0.00    +0.000 A 
ATOM      4  C   UNL     1       5.138   1.670  19.245  0.00  0.00    +0.000 A 
ATOM      5  C   UNL     1       6.108   0.852  18.380  0.00  0.00    +0.000 A 
ATOM      6  C   UNL     1       7.363   0.244  18.540  0.00  0.00    +0.000 A 
ATOM      7  C   UNL     1       7.502  -0.056  20.121  0.00  0.00    +0.000 A 
ATOM      8  C   UNL     1       7.350  -1.374  20.466  0.00  0.00    +0.000 C 
ATOM      9  N   UNL     1       7.700  -1.405  21.750  0.00  0.00    +0.000 N 
ATOM     10  C   UNL     1       7.353  -2.378  22.676  0.00  0.00    +0.000 C 
ATOM     11  O   UNL     1       8.480  -2.994  22.908  0.00  0.00    +0.000 OA
ATOM     12  C   UNL     1       8.049  -0.300  22.477  0.00  0.00    +0.000 C 
ENDROOT
BRANCH   1  16
ATOM     13  C   UNL     1       7.769   1.460  25.966  0.00  0.00    +0.000 A 
ATOM     14  C   UNL     1       7.836   2.636  25.099  0.00  0.00    +0.000 A 
ATOM     15  C   UNL     1       7.217   2.925  23.800  0.00  0.00    +0.000 A 
ATOM     16  C   UNL     1       6.538   1.579  23.231  0.00  0.00    +0.000 A 
ATOM     17  C   UNL     1       5.995   0.548  24.208  0.00  0.00    +0.000 A 
ATOM     18  C   UNL     1       6.620   0.588  25.638  0.00  0.00    +0.000 A 
ENDBRANCH   1  16
BRANCH  10  19
ATOM     19  C   UNL     1       6.325  -3.162  22.341  0.00  0.00    +0.000 A 
ATOM     20  C   UNL     1       7.063  -4.403  21.835  0.00  0.00    +0.000 A 
ATOM     21  C   UNL     1       6.754  -5.808  22.247  0.00  0.00    +0.000 A 
ATOM     22  C   UNL     1       5.744  -5.747  23.344  0.00  0.00    +0.000 A 
ATOM     23  C   UNL     1       4.935  -4.791  23.850  0.00  0.00    +0.000 A 
ATOM     24  C   UNL     1       5.117  -3.505  23.053  0.00  0.00    +0.000 A 
BRANCH  23  25
ATOM     25  C   UNL     1       3.588  -5.136  24.332  0.00  0.00    +0.000 C 
BRANCH  25  26
ATOM     26  N   UNL     1       3.451  -5.331  25.681  0.00  0.00    +0.000 NA
ATOM     27  C   UNL     1       3.465  -6.610  26.195  0.00  0.00    +0.000 C 
ATOM     28  C   UNL     1       4.715  -6.852  27.098  0.00  0.00    +0.000 C 
ATOM     29  N   UNL     1       5.018  -5.579  27.723  0.00  0.00    +0.000 N 
ATOM     30  C   UNL     1       6.315  -5.271  27.959  0.00  0.00    +0.000 C 
ATOM     31  O   UNL     1       7.064  -6.199  28.295  0.00  0.00    +0.000 OA
ATOM     32  C   UNL     1       3.942  -4.657  27.955  0.00  0.00    +0.000 C 
ATOM     33  C   UNL     1       3.254  -4.330  26.605  0.00  0.00    +0.000 C 
BRANCH  30  34
ATOM     34  C   UNL     1       6.865  -4.117  27.160  0.00  0.00    +0.000 C 
ATOM     35 CL   UNL     1       8.007  -4.674  25.921  0.00  0.00    +0.000 Cl
ENDBRANCH  30  34
ENDBRANCH  25  26
ENDBRANCH  23  25
ENDBRANCH  10  19
TORSDOF 5
ENDMDL
MODEL 3
REMARK VINA RESULT:      -8.0      2.766      7.405
REMARK  Name = 
REMARK  5 active torsions:
REMARK  status: ('A' for Active; 'I' for Inactive)
REMARK    1  A    between atoms: C_7  and  C_8
REMARK    2  A    between atoms: C_24  and  C_26
REMARK    3  A    between atoms: C_33  and  C_34
REMARK    4  A    between atoms: C_34  and  N_37
REMARK    5  A    between atoms: C_45  and  C_47
REMARK                            x       y       z     vdW  Elec       q    Type
REMARK                         _______ _______ _______ _____ _____    ______ ____
ROOT
ATOM      1  C   UNL     1       5.103  -4.707  25.299  0.00  0.00    +0.000 C 
ATOM      2  C   UNL     1       5.514  -4.769  24.036  0.00  0.00    +0.000 A 
ATOM      3  C   UNL     1       6.339  -5.551  23.393  0.00  0.00    +0.000 A 
ATOM      4  C   UNL     1       6.651  -5.687  21.958  0.00  0.00    +0.000 A 
ATOM      5  C   UNL     1       6.292  -4.286  21.441  0.00  0.00    +0.000 A 
ATOM      6  C   UNL     1       5.593  -3.165  21.915  0.00  0.00    +0.000 A 
ATOM      7  C   UNL     1       5.667  -3.256  23.526  0.00  0.00    +0.000 A 
ATOM      8  C   UNL     1       6.534  -2.368  24.107  0.00  0.00    +0.000 C 
ATOM      9  N   UNL     1       6.278  -2.485  25.409  0.00  0.00    +0.000 N 
ATOM     10  C   UNL     1       7.122  -2.128  26.450  0.00  0.00    +0.000 C 
ATOM     11  O   UNL     1       6.536  -1.088  26.975  0.00  0.00    +0.000 OA
ATOM     12  C   UNL     1       5.382  -3.372  25.938  0.00  0.00    +0.000 C 
ENDROOT
BRANCH   1  16
ATOM     13  C   UNL     1       4.234  -6.145  28.707  0.00  0.00    +0.000 A 
ATOM     14  C   UNL     1       3.769  -6.814  27.492  0.00  0.00    +0.000 A 
ATOM     15  C   UNL     1       4.348  -6.901  26.146  0.00  0.00    +0.000 A 
ATOM     16  C   UNL     1       5.597  -5.887  26.045  0.00  0.00    +0.000 A 
ATOM     17  C   UNL     1       6.414  -5.585  27.292  0.00  0.00    +0.000 A 
ATOM     18  C   UNL     1       5.675  -5.814  28.647  0.00  0.00    +0.000 A 
ENDBRANCH   1  16
BRANCH  10  19
ATOM     19  C   UNL     1       8.409  -1.963  26.129  0.00  0.00    +0.000 A 
ATOM     20  C   UNL     1       8.890  -3.415  26.118  0.00  0.00    +0.000 A 
ATOM     21  C   UNL     1       9.693  -4.041  25.022  0.00  0.00    +0.000 A 
ATOM     22  C   UNL     1       9.773  -3.058  23.900  0.00  0.00    +0.000 A 
ATOM     23  C   UNL     1       9.501  -1.744  23.758  0.00  0.00    +0.000 A 
ATOM     24  C   UNL     1       9.040  -1.177  25.096  0.00  0.00    +0.000 A 
BRANCH  23  25
ATOM     25  C   UNL     1      10.338  -0.901  22.888  0.00  0.00    +0.000 C 
BRANCH  25  26
ATOM     26  N   UNL     1       9.696   0.089  22.192  0.00  0.00    +0.000 NA
ATOM     27  C   UNL     1       8.630  -0.225  21.377  0.00  0.00    +0.000 C 
ATOM     28  C   UNL     1       7.299   0.391  21.909  0.00  0.00    +0.000 C 
ATOM     29  N   UNL     1       7.658   1.638  22.556  0.00  0.00    +0.000 N 
ATOM     30  C   UNL     1       6.952   2.025  23.644  0.00  0.00    +0.000 C 
ATOM     31  O   UNL     1       5.737   1.777  23.646  0.00  0.00    +0.000 OA
ATOM     32  C   UNL     1       8.818   2.343  22.088  0.00  0.00    +0.000 C 
ATOM     33  C   UNL     1      10.055   1.418  22.202  0.00  0.00    +0.000 C 
BRANCH  30  34
ATOM     34  C   UNL     1       7.714   2.041  24.945  0.00  0.00    +0.000 C 
ATOM     35 CL   UNL     1       8.147   3.694  25.421  0.00  0.00    +0.000 Cl
ENDBRANCH  30  34
ENDBRANCH  25  26
ENDBRANCH  23  25
ENDBRANCH  10  19
TORSDOF 5
ENDMDL
MODEL 4
REMARK VINA RESULT:      -8.0      3.053      6.313
REMARK  Name = 
REMARK  5 active torsions:
REMARK  status: ('A' for Active; 'I' for Inactive)
REMARK    1  A    between atoms: C_7  and  C_8
REMARK    2  A    between atoms: C_24  and  C_26
REMARK    3  A    between atoms: C_33  and  C_34
REMARK    4  A    between atoms: C_34  and  N_37
REMARK    5  A    between atoms: C_45  and  C_47
REMARK                            x       y       z     vdW  Elec       q    Type
REMARK                         _______ _______ _______ _____ _____    ______ ____
ROOT
ATOM      1  C   UNL     1       8.126  -0.788  21.413  0.00  0.00    +0.000 C 
ATOM      2  C   UNL     1       8.256  -1.556  22.490  0.00  0.00    +0.000 A 
ATOM      3  C   UNL     1       7.475  -1.831  23.501  0.00  0.00    +0.000 A 
ATOM      4  C   UNL     1       7.594  -2.810  24.599  0.00  0.00    +0.000 A 
ATOM      5  C   UNL     1       9.116  -2.987  24.677  0.00  0.00    +0.000 A 
ATOM      6  C   UNL     1      10.229  -2.671  23.883  0.00  0.00    +0.000 A 
ATOM      7  C   UNL     1       9.776  -1.410  22.982  0.00  0.00    +0.000 A 
ATOM      8  C   UNL     1      10.311  -0.210  23.371  0.00  0.00    +0.000 C 
ATOM      9  N   UNL     1       9.969   0.620  22.388  0.00  0.00    +0.000 N 
ATOM     10  C   UNL     1       9.903   2.004  22.463  0.00  0.00    +0.000 C 
ATOM     11  O   UNL     1      10.904   2.398  21.725  0.00  0.00    +0.000 OA
ATOM     12  C   UNL     1       9.199   0.264  21.316  0.00  0.00    +0.000 C 
ENDROOT
BRANCH   1  16
ATOM     13  C   UNL     1       6.041   0.469  18.496  0.00  0.00    +0.000 A 
ATOM     14  C   UNL     1       5.779  -0.853  19.065  0.00  0.00    +0.000 A 
ATOM     15  C   UNL     1       5.939  -1.376  20.427  0.00  0.00    +0.000 A 
ATOM     16  C   UNL     1       6.734  -0.292  21.316  0.00  0.00    +0.000 A 
ATOM     17  C   UNL     1       6.583   1.188  20.998  0.00  0.00    +0.000 A 
ATOM     18  C   UNL     1       6.144   1.515  19.537  0.00  0.00    +0.000 A 
ENDBRANCH   1  16
BRANCH  10  19
ATOM     19  C   UNL     1       9.856   2.520  23.694  0.00  0.00    +0.000 A 
ATOM     20  C   UNL     1      10.772   3.734  23.531  0.00  0.00    +0.000 A 
ATOM     21  C   UNL     1      10.439   5.123  23.977  0.00  0.00    +0.000 A 
ATOM     22  C   UNL     1       9.016   5.124  24.430  0.00  0.00    +0.000 A 
ATOM     23  C   UNL     1       8.103   4.173  24.724  0.00  0.00    +0.000 A 
ATOM     24  C   UNL     1       8.743   2.798  24.570  0.00  0.00    +0.000 A 
BRANCH  23  25
ATOM     25  C   UNL     1       7.136   4.381  25.813  0.00  0.00    +0.000 C 
BRANCH  25  26
ATOM     26  N   UNL     1       5.860   3.934  25.594  0.00  0.00    +0.000 NA
ATOM     27  C   UNL     1       5.490   3.503  24.338  0.00  0.00    +0.000 C 
ATOM     28  C   UNL     1       5.170   1.976  24.326  0.00  0.00    +0.000 C 
ATOM     29  N   UNL     1       4.622   1.664  25.632  0.00  0.00    +0.000 N 
ATOM     30  C   UNL     1       4.892   0.452  26.170  0.00  0.00    +0.000 C 
ATOM     31  O   UNL     1       4.947  -0.512  25.393  0.00  0.00    +0.000 OA
ATOM     32  C   UNL     1       3.919   2.694  26.343  0.00  0.00    +0.000 C 
ATOM     33  C   UNL     1       4.862   3.908  26.542  0.00  0.00    +0.000 C 
BRANCH  30  34
ATOM     34  C   UNL     1       5.756   0.466  27.406  0.00  0.00    +0.000 C 
ATOM     35 CL   UNL     1       7.397  -0.109  27.055  0.00  0.00    +0.000 Cl
ENDBRANCH  30  34
ENDBRANCH  25  26
ENDBRANCH  23  25
ENDBRANCH  10  19
TORSDOF 5
ENDMDL
MODEL 5
REMARK VINA RESULT:      -7.9      3.171      6.213
REMARK  Name = 
REMARK  5 active torsions:
REMARK  status: ('A' for Active; 'I' for Inactive)
REMARK    1  A    between atoms: C_7  and  C_8
REMARK    2  A    between atoms: C_24  and  C_26
REMARK    3  A    between atoms: C_33  and  C_34
REMARK    4  A    between atoms: C_34  and  N_37
REMARK    5  A    between atoms: C_45  and  C_47
REMARK                            x       y       z     vdW  Elec       q    Type
REMARK                         _______ _______ _______ _____ _____    ______ ____
ROOT
ATOM      1  C   UNL     1       6.924  -2.535  21.617  0.00  0.00    +0.000 C 
ATOM      2  C   UNL     1       6.360  -3.086  22.687  0.00  0.00    +0.000 A 
ATOM      3  C   UNL     1       5.433  -2.695  23.520  0.00  0.00    +0.000 A 
ATOM      4  C   UNL     1       4.723  -3.399  24.605  0.00  0.00    +0.000 A 
ATOM      5  C   UNL     1       5.748  -4.479  24.980  0.00  0.00    +0.000 A 
ATOM      6  C   UNL     1       6.918  -5.021  24.425  0.00  0.00    +0.000 A 
ATOM      7  C   UNL     1       7.521  -3.867  23.471  0.00  0.00    +0.000 A 
ATOM      8  C   UNL     1       8.625  -3.230  23.976  0.00  0.00    +0.000 C 
ATOM      9  N   UNL     1       9.053  -2.488  22.957  0.00  0.00    +0.000 N 
ATOM     10  C   UNL     1       9.870  -1.370  23.037  0.00  0.00    +0.000 C 
ATOM     11  O   UNL     1      10.995  -1.775  22.517  0.00  0.00    +0.000 OA
ATOM     12  C   UNL     1       8.418  -2.404  21.748  0.00  0.00    +0.000 C 
ENDROOT
BRANCH   1  16
ATOM     13  C   UNL     1       7.585   0.158  19.019  0.00  0.00    +0.000 A 
ATOM     14  C   UNL     1       6.506  -0.807  18.812  0.00  0.00    +0.000 A 
ATOM     15  C   UNL     1       5.646  -1.525  19.760  0.00  0.00    +0.000 A 
ATOM     16  C   UNL     1       6.204  -1.292  21.254  0.00  0.00    +0.000 A 
ATOM     17  C   UNL     1       6.920   0.007  21.589  0.00  0.00    +0.000 A 
ATOM     18  C   UNL     1       7.551   0.754  20.373  0.00  0.00    +0.000 A 
ENDBRANCH   1  16
BRANCH  10  19
ATOM     19  C   UNL     1       9.964  -0.801  24.243  0.00  0.00    +0.000 A 
ATOM     20  C   UNL     1      10.614   0.535  23.880  0.00  0.00    +0.000 A 
ATOM     21  C   UNL     1      10.137   1.874  24.349  0.00  0.00    +0.000 A 
ATOM     22  C   UNL     1       8.843   1.667  25.066  0.00  0.00    +0.000 A 
ATOM     23  C   UNL     1       8.176   0.598  25.550  0.00  0.00    +0.000 A 
ATOM     24  C   UNL     1       9.001  -0.661  25.308  0.00  0.00    +0.000 A 
BRANCH  23  25
ATOM     25  C   UNL     1       7.405   0.706  26.799  0.00  0.00    +0.000 C 
BRANCH  25  26
ATOM     26  N   UNL     1       6.230   1.406  26.736  0.00  0.00    +0.000 NA
ATOM     27  C   UNL     1       6.073   2.552  27.487  0.00  0.00    +0.000 C 
ATOM     28  C   UNL     1       5.945   3.818  26.583  0.00  0.00    +0.000 C 
ATOM     29  N   UNL     1       5.282   3.385  25.369  0.00  0.00    +0.000 N 
ATOM     30  C   UNL     1       5.628   3.975  24.200  0.00  0.00    +0.000 C 
ATOM     31  O   UNL     1       5.895   5.185  24.237  0.00  0.00    +0.000 OA
ATOM     32  C   UNL     1       4.376   2.273  25.442  0.00  0.00    +0.000 C 
ATOM     33  C   UNL     1       5.133   1.038  25.991  0.00  0.00    +0.000 C 
BRANCH  30  34
ATOM     34  C   UNL     1       6.323   3.086  23.202  0.00  0.00    +0.000 C 
ATOM     35 CL   UNL     1       7.652   3.937  22.391  0.00  0.00    +0.000 Cl
ENDBRANCH  30  34
ENDBRANCH  25  26
ENDBRANCH  23  25
ENDBRANCH  10  19
TORSDOF 5
ENDMDL
MODEL 6
REMARK VINA RESULT:      -7.8      2.375      7.170
REMARK  Name = 
REMARK  5 active torsions:
REMARK  status: ('A' for Active; 'I' for Inactive)
REMARK    1  A    between atoms: C_7  and  C_8
REMARK    2  A    between atoms: C_24  and  C_26
REMARK    3  A    between atoms: C_33  and  C_34
REMARK    4  A    between atoms: C_34  and  N_37
REMARK    5  A    between atoms: C_45  and  C_47
REMARK                            x       y       z     vdW  Elec       q    Type
REMARK                         _______ _______ _______ _____ _____    ______ ____
ROOT
ATOM      1  C   UNL     1       4.768  -4.951  25.043  0.00  0.00    +0.000 C 
ATOM      2  C   UNL     1       4.397  -4.085  25.981  0.00  0.00    +0.000 A 
ATOM      3  C   UNL     1       4.095  -2.814  25.966  0.00  0.00    +0.000 A 
ATOM      4  C   UNL     1       3.537  -1.922  27.000  0.00  0.00    +0.000 A 
ATOM      5  C   UNL     1       3.990  -2.634  28.283  0.00  0.00    +0.000 A 
ATOM      6  C   UNL     1       4.511  -3.890  28.631  0.00  0.00    +0.000 A 
ATOM      7  C   UNL     1       5.237  -4.444  27.299  0.00  0.00    +0.000 A 
ATOM      8  C   UNL     1       6.606  -4.396  27.335  0.00  0.00    +0.000 C 
ATOM      9  N   UNL     1       6.973  -5.073  26.249  0.00  0.00    +0.000 N 
ATOM     10  C   UNL     1       8.195  -4.989  25.599  0.00  0.00    +0.000 C 
ATOM     11  O   UNL     1       8.755  -6.140  25.851  0.00  0.00    +0.000 OA
ATOM     12  C   UNL     1       6.097  -5.595  25.338  0.00  0.00    +0.000 C 
ENDROOT
BRANCH   1  16
ATOM     13  C   UNL     1       6.876  -5.181  21.890  0.00  0.00    +0.000 A 
ATOM     14  C   UNL     1       5.580  -5.857  21.953  0.00  0.00    +0.000 A 
ATOM     15  C   UNL     1       4.347  -5.532  22.679  0.00  0.00    +0.000 A 
ATOM     16  C   UNL     1       4.645  -4.325  23.706  0.00  0.00    +0.000 A 
ATOM     17  C   UNL     1       5.710  -3.296  23.359  0.00  0.00    +0.000 A 
ATOM     18  C   UNL     1       6.798  -3.777  22.349  0.00  0.00    +0.000 A 
ENDBRANCH   1  16
BRANCH  10  19
ATOM     19  C   UNL     1       8.935  -3.913  25.883  0.00  0.00    +0.000 A 
ATOM     20  C   UNL     1       9.722  -3.753  24.581  0.00  0.00    +0.000 A 
ATOM     21  C   UNL     1       9.878  -2.470  23.828  0.00  0.00    +0.000 A 
ATOM     22  C   UNL     1       8.996  -1.454  24.477  0.00  0.00    +0.000 A 
ATOM     23  C   UNL     1       8.319  -1.378  25.643  0.00  0.00    +0.000 A 
ATOM     24  C   UNL     1       8.581  -2.638  26.460  0.00  0.00    +0.000 A 
BRANCH  23  25
ATOM     25  C   UNL     1       8.199  -0.093  26.350  0.00  0.00    +0.000 C 
BRANCH  25  26
ATOM     26  N   UNL     1       7.356   0.835  25.798  0.00  0.00    +0.000 NA
ATOM     27  C   UNL     1       7.769   2.143  25.662  0.00  0.00    +0.000 C 
ATOM     28  C   UNL     1       7.903   2.550  24.162  0.00  0.00    +0.000 C 
ATOM     29  N   UNL     1       6.890   1.800  23.445  0.00  0.00    +0.000 N 
ATOM     30  C   UNL     1       7.167   1.387  22.185  0.00  0.00    +0.000 C 
ATOM     31  O   UNL     1       7.840   2.149  21.476  0.00  0.00    +0.000 OA
ATOM     32  C   UNL     1       5.692   1.428  24.142  0.00  0.00    +0.000 C 
ATOM     33  C   UNL     1       6.068   0.580  25.383  0.00  0.00    +0.000 C 
BRANCH  30  34
ATOM     34  C   UNL     1       7.282  -0.105  21.999  0.00  0.00    +0.000 C 
ATOM     35 CL   UNL     1       8.589  -0.517  20.872  0.00  0.00    +0.000 Cl
ENDBRANCH  30  34
ENDBRANCH  25  26
ENDBRANCH  23  25
ENDBRANCH  10  19
TORSDOF 5
ENDMDL
MODEL 7
REMARK VINA RESULT:      -7.8      2.665      7.962
REMARK  Name = 
REMARK  5 active torsions:
REMARK  status: ('A' for Active; 'I' for Inactive)
REMARK    1  A    between atoms: C_7  and  C_8
REMARK    2  A    between atoms: C_24  and  C_26
REMARK    3  A    between atoms: C_33  and  C_34
REMARK    4  A    between atoms: C_34  and  N_37
REMARK    5  A    between atoms: C_45  and  C_47
REMARK                            x       y       z     vdW  Elec       q    Type
REMARK                         _______ _______ _______ _____ _____    ______ ____
ROOT
ATOM      1  C   UNL     1       2.893  -4.271  26.247  0.00  0.00    +0.000 C 
ATOM      2  C   UNL     1       2.859  -3.208  27.046  0.00  0.00    +0.000 A 
ATOM      3  C   UNL     1       2.932  -1.920  26.837  0.00  0.00    +0.000 A 
ATOM      4  C   UNL     1       2.734  -0.765  27.732  0.00  0.00    +0.000 A 
ATOM      5  C   UNL     1       3.062  -1.386  29.098  0.00  0.00    +0.000 A 
ATOM      6  C   UNL     1       3.228  -2.676  29.626  0.00  0.00    +0.000 A 
ATOM      7  C   UNL     1       3.660  -3.605  28.377  0.00  0.00    +0.000 A 
ATOM      8  C   UNL     1       4.984  -3.957  28.362  0.00  0.00    +0.000 C 
ATOM      9  N   UNL     1       5.057  -4.861  27.387  0.00  0.00    +0.000 N 
ATOM     10  C   UNL     1       6.199  -5.235  26.693  0.00  0.00    +0.000 C 
ATOM     11  O   UNL     1       6.424  -6.451  27.108  0.00  0.00    +0.000 OA
ATOM     12  C   UNL     1       4.001  -5.228  26.600  0.00  0.00    +0.000 C 
ENDROOT
BRANCH   1  16
ATOM     13  C   UNL     1       3.824  -6.001  22.996  0.00  0.00    +0.000 A 
ATOM     14  C   UNL     1       2.417  -5.807  23.342  0.00  0.00    +0.000 A 
ATOM     15  C   UNL     1       1.741  -4.761  24.119  0.00  0.00    +0.000 A 
ATOM     16  C   UNL     1       2.851  -3.836  24.832  0.00  0.00    +0.000 A 
ATOM     17  C   UNL     1       4.203  -3.642  24.162  0.00  0.00    +0.000 A 
ATOM     18  C   UNL     1       4.617  -4.763  23.158  0.00  0.00    +0.000 A 
ENDBRANCH   1  16
BRANCH  10  19
ATOM     19  C   UNL     1       7.235  -4.396  26.778  0.00  0.00    +0.000 A 
ATOM     20  C   UNL     1       8.405  -5.366  26.609  0.00  0.00    +0.000 A 
ATOM     21  C   UNL     1       9.555  -5.164  25.673  0.00  0.00    +0.000 A 
ATOM     22  C   UNL     1       9.253  -3.964  24.838  0.00  0.00    +0.000 A 
ATOM     23  C   UNL     1       8.352  -2.960  24.892  0.00  0.00    +0.000 A 
ATOM     24  C   UNL     1       7.488  -3.128  26.137  0.00  0.00    +0.000 A 
BRANCH  23  25
ATOM     25  C   UNL     1       8.726  -1.601  24.473  0.00  0.00    +0.000 C 
BRANCH  25  26
ATOM     26  N   UNL     1       8.420  -1.250  23.185  0.00  0.00    +0.000 NA
ATOM     27  C   UNL     1       7.126  -0.909  22.855  0.00  0.00    +0.000 C 
ATOM     28  C   UNL     1       7.016   0.592  22.441  0.00  0.00    +0.000 C 
ATOM     29  N   UNL     1       8.274   0.932  21.805  0.00  0.00    +0.000 N 
ATOM     30  C   UNL     1       8.759   2.185  21.969  0.00  0.00    +0.000 C 
ATOM     31  O   UNL     1       7.935   3.110  22.004  0.00  0.00    +0.000 OA
ATOM     32  C   UNL     1       9.003  -0.105  21.132  0.00  0.00    +0.000 C 
ATOM     33  C   UNL     1       9.314  -1.242  22.138  0.00  0.00    +0.000 C 
BRANCH  30  34
ATOM     34  C   UNL     1      10.035   2.291  22.765  0.00  0.00    +0.000 C 
ATOM     35 CL   UNL     1       9.774   1.866  24.467  0.00  0.00    +0.000 Cl
ENDBRANCH  30  34
ENDBRANCH  25  26
ENDBRANCH  23  25
ENDBRANCH  10  19
TORSDOF 5
ENDMDL
MODEL 8
REMARK VINA RESULT:      -7.7      2.536      7.912
REMARK  Name = 
REMARK  5 active torsions:
REMARK  status: ('A' for Active; 'I' for Inactive)
REMARK    1  A    between atoms: C_7  and  C_8
REMARK    2  A    between atoms: C_24  and  C_26
REMARK    3  A    between atoms: C_33  and  C_34
REMARK    4  A    between atoms: C_34  and  N_37
REMARK    5  A    between atoms: C_45  and  C_47
REMARK                            x       y       z     vdW  Elec       q    Type
REMARK                         _______ _______ _______ _____ _____    ______ ____
ROOT
ATOM      1  C   UNL     1       5.369  -5.777  24.295  0.00  0.00    +0.000 C 
ATOM      2  C   UNL     1       6.302  -5.708  25.240  0.00  0.00    +0.000 A 
ATOM      3  C   UNL     1       6.268  -5.494  26.529  0.00  0.00    +0.000 A 
ATOM      4  C   UNL     1       7.309  -5.580  27.569  0.00  0.00    +0.000 A 
ATOM      5  C   UNL     1       8.579  -5.339  26.741  0.00  0.00    +0.000 A 
ATOM      6  C   UNL     1       8.930  -5.320  25.382  0.00  0.00    +0.000 A 
ATOM      7  C   UNL     1       7.569  -4.973  24.586  0.00  0.00    +0.000 A 
ATOM      8  C   UNL     1       7.506  -3.694  24.098  0.00  0.00    +0.000 C 
ATOM      9  N   UNL     1       6.419  -3.705  23.328  0.00  0.00    +0.000 N 
ATOM     10  C   UNL     1       5.681  -2.600  22.929  0.00  0.00    +0.000 C 
ATOM     11  O   UNL     1       5.930  -2.512  21.651  0.00  0.00    +0.000 OA
ATOM     12  C   UNL     1       5.591  -4.783  23.186  0.00  0.00    +0.000 C 
ENDROOT
BRANCH   1  16
ATOM     13  C   UNL     1       1.919  -6.693  22.996  0.00  0.00    +0.000 A 
ATOM     14  C   UNL     1       2.599  -7.574  23.946  0.00  0.00    +0.000 A 
ATOM     15  C   UNL     1       3.558  -7.291  25.020  0.00  0.00    +0.000 A 
ATOM     16  C   UNL     1       4.025  -5.752  24.916  0.00  0.00    +0.000 A 
ATOM     17  C   UNL     1       3.060  -4.716  24.359  0.00  0.00    +0.000 A 
ATOM     18  C   UNL     1       1.940  -5.279  23.429  0.00  0.00    +0.000 A 
ENDBRANCH   1  16
BRANCH  10  19
ATOM     19  C   UNL     1       5.876  -1.481  23.633  0.00  0.00    +0.000 A 
ATOM     20  C   UNL     1       5.223  -1.861  24.963  0.00  0.00    +0.000 A 
ATOM     21  C   UNL     1       5.850  -1.671  26.308  0.00  0.00    +0.000 A 
ATOM     22  C   UNL     1       7.258  -1.223  26.092  0.00  0.00    +0.000 A 
ATOM     23  C   UNL     1       7.966  -0.762  25.039  0.00  0.00    +0.000 A 
ATOM     24  C   UNL     1       7.053  -0.668  23.822  0.00  0.00    +0.000 A 
BRANCH  23  25
ATOM     25  C   UNL     1       8.994   0.274  25.230  0.00  0.00    +0.000 C 
BRANCH  25  26
ATOM     26  N   UNL     1       9.785   0.559  24.149  0.00  0.00    +0.000 NA
ATOM     27  C   UNL     1      10.458  -0.456  23.504  0.00  0.00    +0.000 C 
ATOM     28  C   UNL     1       9.929  -0.662  22.050  0.00  0.00    +0.000 C 
ATOM     29  N   UNL     1       9.514   0.644  21.579  0.00  0.00    +0.000 N 
ATOM     30  C   UNL     1       8.449   0.719  20.746  0.00  0.00    +0.000 C 
ATOM     31  O   UNL     1       8.316  -0.192  19.916  0.00  0.00    +0.000 OA
ATOM     32  C   UNL     1      10.173   1.805  22.108  0.00  0.00    +0.000 C 
ATOM     33  C   UNL     1      10.010   1.822  23.649  0.00  0.00    +0.000 C 
BRANCH  30  34
ATOM     34  C   UNL     1       7.229   1.403  21.308  0.00  0.00    +0.000 C 
ATOM     35 CL   UNL     1       5.912   1.455  20.121  0.00  0.00    +0.000 Cl
ENDBRANCH  30  34
ENDBRANCH  25  26
ENDBRANCH  23  25
ENDBRANCH  10  19
TORSDOF 5
ENDMDL
MODEL 9
REMARK VINA RESULT:      -7.7      2.421      7.648
REMARK  Name = 
REMARK  5 active torsions:
REMARK  status: ('A' for Active; 'I' for Inactive)
REMARK    1  A    between atoms: C_7  and  C_8
REMARK    2  A    between atoms: C_24  and  C_26
REMARK    3  A    between atoms: C_33  and  C_34
REMARK    4  A    between atoms: C_34  and  N_37
REMARK    5  A    between atoms: C_45  and  C_47
REMARK                            x       y       z     vdW  Elec       q    Type
REMARK                         _______ _______ _______ _____ _____    ______ ____
ROOT
ATOM      1  C   UNL     1       5.442  -5.306  24.966  0.00  0.00    +0.000 C 
ATOM      2  C   UNL     1       4.820  -4.381  25.690  0.00  0.00    +0.000 A 
ATOM      3  C   UNL     1       3.910  -3.484  25.419  0.00  0.00    +0.000 A 
ATOM      4  C   UNL     1       3.131  -2.579  26.284  0.00  0.00    +0.000 A 
ATOM      5  C   UNL     1       4.065  -2.446  27.495  0.00  0.00    +0.000 A 
ATOM      6  C   UNL     1       5.201  -3.103  27.992  0.00  0.00    +0.000 A 
ATOM      7  C   UNL     1       5.906  -3.784  26.709  0.00  0.00    +0.000 A 
ATOM      8  C   UNL     1       7.045  -3.152  26.282  0.00  0.00    +0.000 C 
ATOM      9  N   UNL     1       7.545  -3.985  25.372  0.00  0.00    +0.000 N 
ATOM     10  C   UNL     1       8.441  -3.663  24.364  0.00  0.00    +0.000 C 
ATOM     11  O   UNL     1       9.542  -4.258  24.732  0.00  0.00    +0.000 OA
ATOM     12  C   UNL     1       6.940  -5.148  24.982  0.00  0.00    +0.000 C 
ENDROOT
BRANCH   1  16
ATOM     13  C   UNL     1       6.895  -5.265  21.455  0.00  0.00    +0.000 A 
ATOM     14  C   UNL     1       6.395  -6.516  22.024  0.00  0.00    +0.000 A 
ATOM     15  C   UNL     1       5.326  -6.787  22.993  0.00  0.00    +0.000 A 
ATOM     16  C   UNL     1       4.823  -5.392  23.623  0.00  0.00    +0.000 A 
ATOM     17  C   UNL     1       4.893  -4.126  22.784  0.00  0.00    +0.000 A 
ATOM     18  C   UNL     1       5.935  -4.151  21.622  0.00  0.00    +0.000 A 
ENDBRANCH   1  16
BRANCH  10  19
ATOM     19  C   UNL     1       8.556  -2.363  24.078  0.00  0.00    +0.000 A 
ATOM     20  C   UNL     1      10.004  -2.303  23.590  0.00  0.00    +0.000 A 
ATOM     21  C   UNL     1      10.455  -1.634  22.330  0.00  0.00    +0.000 A 
ATOM     22  C   UNL     1       9.235  -1.211  21.580  0.00  0.00    +0.000 A 
ATOM     23  C   UNL     1       7.922  -1.098  21.873  0.00  0.00    +0.000 A 
ATOM     24  C   UNL     1       7.699  -1.472  23.334  0.00  0.00    +0.000 A 
BRANCH  23  25
ATOM     25  C   UNL     1       7.123  -0.005  21.296  0.00  0.00    +0.000 C 
BRANCH  25  26
ATOM     26  N   UNL     1       7.530   1.270  21.583  0.00  0.00    +0.000 NA
ATOM     27  C   UNL     1       6.597   2.232  21.909  0.00  0.00    +0.000 C 
ATOM     28  C   UNL     1       6.753   2.706  23.387  0.00  0.00    +0.000 C 
ATOM     29  N   UNL     1       8.167   2.619  23.695  0.00  0.00    +0.000 N 
ATOM     30  C   UNL     1       8.532   2.281  24.955  0.00  0.00    +0.000 C 
ATOM     31  O   UNL     1       7.830   2.714  25.881  0.00  0.00    +0.000 OA
ATOM     32  C   UNL     1       9.112   2.778  22.627  0.00  0.00    +0.000 C 
ATOM     33  C   UNL     1       8.834   1.710  21.540  0.00  0.00    +0.000 C 
BRANCH  30  34
ATOM     34  C   UNL     1       9.221   0.949  25.098  0.00  0.00    +0.000 C 
ATOM     35 CL   UNL     1      10.916   1.038  24.580  0.00  0.00    +0.000 Cl
ENDBRANCH  30  34
ENDBRANCH  25  26
ENDBRANCH  23  25
ENDBRANCH  10  19
TORSDOF 5
ENDMDL
