MODEL 1
REMARK VINA RESULT:      -9.0      0.000      0.000
REMARK  Name = 
REMARK  5 active torsions:
REMARK  status: ('A' for Active; 'I' for Inactive)
REMARK    1  A    between atoms: O_2  and  C_3
REMARK    2  A    between atoms: C_12  and  N_13
REMARK    3  A    between atoms: C_15  and  C_17
REMARK    4  A    between atoms: N_25  and  N_26
REMARK    5  A    between atoms: C_40  and  C_42
REMARK                            x       y       z     vdW  Elec       q    Type
REMARK                         _______ _______ _______ _____ _____    ______ ____
ROOT
ATOM      1  C   UNL     1       7.813  -2.573  25.980  0.00  0.00    +0.000 C 
ATOM      2  C   UNL     1       6.767  -1.564  25.589  0.00  0.00    +0.000 C 
ATOM      3  C   UNL     1       6.911  -1.017  24.204  0.00  0.00    +0.000 C 
ATOM      4  N   UNL     1       7.993  -1.548  23.453  0.00  0.00    +0.000 NA
ATOM      5  C   UNL     1       9.206  -1.447  24.196  0.00  0.00    +0.000 C 
ATOM      6  C   UNL     1       9.178  -2.178  25.515  0.00  0.00    +0.000 C 
ENDROOT
BRANCH   4   7
ATOM      7  N   UNL     1       8.052  -1.255  22.155  0.00  0.00    +0.000 NA
ATOM      8  C   UNL     1       6.857  -1.553  21.269  0.00  0.00    +0.000 C 
ATOM      9  C   UNL     1       6.452  -0.718  20.542  0.00  0.00    +0.000 A 
ATOM     10  C   UNL     1       6.117  -1.100  19.096  0.00  0.00    +0.000 A 
ATOM     11  C   UNL     1       5.646  -0.201  18.061  0.00  0.00    +0.000 A 
ATOM     12  C   UNL     1       5.719   1.215  18.640  0.00  0.00    +0.000 A 
ATOM     13  C   UNL     1       6.033   1.746  19.910  0.00  0.00    +0.000 A 
ATOM     14  C   UNL     1       6.735   0.743  20.731  0.00  0.00    +0.000 A 
ATOM     15  C   UNL     1       8.051   1.030  21.200  0.00  0.00    +0.000 C 
ATOM     16  C   UNL     1       8.794  -0.295  21.483  0.00  0.00    +0.000 C 
BRANCH  15  17
ATOM     17  C   UNL     1       8.531   2.093  22.126  0.00  0.00    +0.000 A 
ATOM     18  C   UNL     1       9.996   1.946  22.445  0.00  0.00    +0.000 A 
ATOM     19  C   UNL     1      10.632   1.690  23.765  0.00  0.00    +0.000 A 
ATOM     20  C   UNL     1       9.485   1.657  24.632  0.00  0.00    +0.000 A 
ATOM     21  C   UNL     1       8.096   2.064  24.770  0.00  0.00    +0.000 A 
ATOM     22  C   UNL     1       7.763   2.520  23.326  0.00  0.00    +0.000 A 
ENDBRANCH  15  17
ENDBRANCH   4   7
BRANCH   1  25
ATOM     23  N   UNL     1       6.456  -4.080  24.647  0.00  0.00    +0.000 N 
ATOM     24  H   UNL     1       5.593  -4.170  25.074  0.00  0.00    +0.000 HD
ATOM     25  C   UNL     1       7.399  -3.943  25.581  0.00  0.00    +0.000 C 
ATOM     26  O   UNL     1       7.877  -4.958  26.099  0.00  0.00    +0.000 OA
BRANCH  23  32
ATOM     27  C   UNL     1       5.260  -5.896  23.663  0.00  0.00    +0.000 A 
ATOM     28  C   UNL     1       5.011  -5.978  22.166  0.00  0.00    +0.000 A 
ATOM     29  C   UNL     1       5.998  -5.885  21.074  0.00  0.00    +0.000 A 
ATOM     30  C   UNL     1       7.318  -5.735  21.766  0.00  0.00    +0.000 A 
ATOM     31  C   UNL     1       7.813  -5.419  23.081  0.00  0.00    +0.000 A 
ATOM     32  C   UNL     1       6.593  -5.329  23.984  0.00  0.00    +0.000 A 
BRANCH  27  34
ATOM     33  H   UNL     1       4.271  -7.061  24.789  0.00  0.00    +0.000 HD
ATOM     34  O   UNL     1       4.801  -7.165  24.022  0.00  0.00    +0.000 OA
ENDBRANCH  27  34
ENDBRANCH  23  32
ENDBRANCH   1  25
TORSDOF 5
ENDMDL
MODEL 2
REMARK VINA RESULT:      -8.7      2.595      6.852
REMARK  Name = 
REMARK  5 active torsions:
REMARK  status: ('A' for Active; 'I' for Inactive)
REMARK    1  A    between atoms: O_2  and  C_3
REMARK    2  A    between atoms: C_12  and  N_13
REMARK    3  A    between atoms: C_15  and  C_17
REMARK    4  A    between atoms: N_25  and  N_26
REMARK    5  A    between atoms: C_40  and  C_42
REMARK                            x       y       z     vdW  Elec       q    Type
REMARK                         _______ _______ _______ _____ _____    ______ ____
ROOT
ATOM      1  C   UNL     1       9.856   0.797  22.666  0.00  0.00    +0.000 C 
ATOM      2  C   UNL     1      10.314  -0.592  22.314  0.00  0.00    +0.000 C 
ATOM      3  C   UNL     1       9.970  -1.641  23.324  0.00  0.00    +0.000 C 
ATOM      4  N   UNL     1       9.242  -1.177  24.452  0.00  0.00    +0.000 NA
ATOM      5  C   UNL     1       9.903  -0.061  25.044  0.00  0.00    +0.000 C 
ATOM      6  C   UNL     1      10.075   1.112  24.110  0.00  0.00    +0.000 C 
ENDROOT
BRANCH   4   7
ATOM      7  N   UNL     1       8.734  -2.089  25.281  0.00  0.00    +0.000 NA
ATOM      8  C   UNL     1       7.542  -1.725  26.147  0.00  0.00    +0.000 C 
ATOM      9  C   UNL     1       6.612  -2.448  26.186  0.00  0.00    +0.000 A 
ATOM     10  C   UNL     1       5.995  -2.780  27.550  0.00  0.00    +0.000 A 
ATOM     11  C   UNL     1       4.879  -3.674  27.788  0.00  0.00    +0.000 A 
ATOM     12  C   UNL     1       4.560  -4.348  26.450  0.00  0.00    +0.000 A 
ATOM     13  C   UNL     1       5.038  -4.197  25.131  0.00  0.00    +0.000 A 
ATOM     14  C   UNL     1       6.321  -3.469  25.126  0.00  0.00    +0.000 A 
ATOM     15  C   UNL     1       7.478  -4.109  24.594  0.00  0.00    +0.000 C 
ATOM     16  C   UNL     1       8.745  -3.473  25.211  0.00  0.00    +0.000 C 
BRANCH  15  17
ATOM     17  C   UNL     1       7.765  -4.582  23.210  0.00  0.00    +0.000 A 
ATOM     18  C   UNL     1       7.045  -3.761  22.172  0.00  0.00    +0.000 A 
ATOM     19  C   UNL     1       6.008  -4.204  21.201  0.00  0.00    +0.000 A 
ATOM     20  C   UNL     1       5.917  -5.607  21.504  0.00  0.00    +0.000 A 
ATOM     21  C   UNL     1       6.610  -6.733  22.108  0.00  0.00    +0.000 A 
ATOM     22  C   UNL     1       7.777  -6.022  22.839  0.00  0.00    +0.000 A 
ENDBRANCH  15  17
ENDBRANCH   4   7
BRANCH   1  25
ATOM     23  N   UNL     1       8.223   0.955  20.878  0.00  0.00    +0.000 N 
ATOM     24  H   UNL     1       8.284   1.838  20.488  0.00  0.00    +0.000 HD
ATOM     25  C   UNL     1       8.470   1.033  22.187  0.00  0.00    +0.000 C 
ATOM     26  O   UNL     1       7.544   1.323  22.952  0.00  0.00    +0.000 OA
BRANCH  23  32
ATOM     27  C   UNL     1       6.152   1.751  19.996  0.00  0.00    +0.000 A 
ATOM     28  C   UNL     1       5.694   1.410  18.588  0.00  0.00    +0.000 A 
ATOM     29  C   UNL     1       5.579   0.076  17.967  0.00  0.00    +0.000 A 
ATOM     30  C   UNL     1       5.973  -0.882  19.049  0.00  0.00    +0.000 A 
ATOM     31  C   UNL     1       6.630  -0.846  20.330  0.00  0.00    +0.000 A 
ATOM     32  C   UNL     1       6.861   0.623  20.649  0.00  0.00    +0.000 A 
BRANCH  27  34
ATOM     33  H   UNL     1       4.518   2.671  19.702  0.00  0.00    +0.000 HD
ATOM     34  O   UNL     1       4.983   2.359  20.456  0.00  0.00    +0.000 OA
ENDBRANCH  27  34
ENDBRANCH  23  32
ENDBRANCH   1  25
TORSDOF 5
ENDMDL
MODEL 3
REMARK VINA RESULT:      -8.7      1.433      2.053
REMARK  Name = 
REMARK  5 active torsions:
REMARK  status: ('A' for Active; 'I' for Inactive)
REMARK    1  A    between atoms: O_2  and  C_3
REMARK    2  A    between atoms: C_12  and  N_13
REMARK    3  A    between atoms: C_15  and  C_17
REMARK    4  A    between atoms: N_25  and  N_26
REMARK    5  A    between atoms: C_40  and  C_42
REMARK                            x       y       z     vdW  Elec       q    Type
REMARK                         _______ _______ _______ _____ _____    ______ ____
ROOT
ATOM      1  C   UNL     1       7.555  -3.828  26.750  0.00  0.00    +0.000 C 
ATOM      2  C   UNL     1       6.878  -2.523  26.434  0.00  0.00    +0.000 C 
ATOM      3  C   UNL     1       7.089  -2.029  25.038  0.00  0.00    +0.000 C 
ATOM      4  N   UNL     1       7.874  -2.874  24.209  0.00  0.00    +0.000 NA
ATOM      5  C   UNL     1       9.104  -3.195  24.854  0.00  0.00    +0.000 C 
ATOM      6  C   UNL     1       8.934  -3.900  26.178  0.00  0.00    +0.000 C 
ENDROOT
BRANCH   4   7
ATOM      7  N   UNL     1       7.929  -2.593  22.908  0.00  0.00    +0.000 NA
ATOM      8  C   UNL     1       6.640  -2.373  22.139  0.00  0.00    +0.000 C 
ATOM      9  C   UNL     1       6.534  -1.426  21.444  0.00  0.00    +0.000 A 
ATOM     10  C   UNL     1       5.949  -1.606  20.039  0.00  0.00    +0.000 A 
ATOM     11  C   UNL     1       5.781  -0.567  19.043  0.00  0.00    +0.000 A 
ATOM     12  C   UNL     1       6.457   0.691  19.599  0.00  0.00    +0.000 A 
ATOM     13  C   UNL     1       7.065   1.020  20.829  0.00  0.00    +0.000 A 
ATOM     14  C   UNL     1       7.385  -0.200  21.592  0.00  0.00    +0.000 A 
ATOM     15  C   UNL     1       8.743  -0.466  21.935  0.00  0.00    +0.000 C 
ATOM     16  C   UNL     1       8.926  -1.985  22.161  0.00  0.00    +0.000 C 
BRANCH  15  17
ATOM     17  C   UNL     1       9.683   0.297  22.802  0.00  0.00    +0.000 A 
ATOM     18  C   UNL     1       9.181   0.410  24.218  0.00  0.00    +0.000 A 
ATOM     19  C   UNL     1       8.821   1.639  24.975  0.00  0.00    +0.000 A 
ATOM     20  C   UNL     1       9.112   2.663  24.008  0.00  0.00    +0.000 A 
ATOM     21  C   UNL     1       9.864   2.970  22.802  0.00  0.00    +0.000 A 
ATOM     22  C   UNL     1      10.335   1.560  22.364  0.00  0.00    +0.000 A 
ENDBRANCH  15  17
ENDBRANCH   4   7
BRANCH   1  25
ATOM     23  N   UNL     1       5.495  -4.727  25.836  0.00  0.00    +0.000 N 
ATOM     24  H   UNL     1       4.817  -4.695  26.525  0.00  0.00    +0.000 HD
ATOM     25  C   UNL     1       6.681  -4.976  26.394  0.00  0.00    +0.000 C 
ATOM     26  O   UNL     1       7.000  -6.148  26.619  0.00  0.00    +0.000 OA
BRANCH  23  32
ATOM     27  C   UNL     1       3.788  -6.375  25.568  0.00  0.00    +0.000 A 
ATOM     28  C   UNL     1       2.649  -6.200  24.577  0.00  0.00    +0.000 A 
ATOM     29  C   UNL     1       2.737  -5.889  23.137  0.00  0.00    +0.000 A 
ATOM     30  C   UNL     1       4.205  -5.826  22.850  0.00  0.00    +0.000 A 
ATOM     31  C   UNL     1       5.441  -5.731  23.583  0.00  0.00    +0.000 A 
ATOM     32  C   UNL     1       5.072  -5.836  25.055  0.00  0.00    +0.000 A 
BRANCH  27  34
ATOM     33  H   UNL     1       2.873  -8.026  25.366  0.00  0.00    +0.000 HD
ATOM     34  O   UNL     1       3.545  -7.700  25.935  0.00  0.00    +0.000 OA
ENDBRANCH  27  34
ENDBRANCH  23  32
ENDBRANCH   1  25
TORSDOF 5
ENDMDL
MODEL 4
REMARK VINA RESULT:      -8.5      1.610      4.129
REMARK  Name = 
REMARK  5 active torsions:
REMARK  status: ('A' for Active; 'I' for Inactive)
REMARK    1  A    between atoms: O_2  and  C_3
REMARK    2  A    between atoms: C_12  and  N_13
REMARK    3  A    between atoms: C_15  and  C_17
REMARK    4  A    between atoms: N_25  and  N_26
REMARK    5  A    between atoms: C_40  and  C_42
REMARK                            x       y       z     vdW  Elec       q    Type
REMARK                         _______ _______ _______ _____ _____    ______ ____
ROOT
ATOM      1  C   UNL     1       9.057  -4.381  25.185  0.00  0.00    +0.000 C 
ATOM      2  C   UNL     1       8.664  -3.731  26.484  0.00  0.00    +0.000 C 
ATOM      3  C   UNL     1       8.197  -2.315  26.361  0.00  0.00    +0.000 C 
ATOM      4  N   UNL     1       8.169  -1.801  25.037  0.00  0.00    +0.000 NA
ATOM      5  C   UNL     1       9.427  -2.006  24.399  0.00  0.00    +0.000 C 
ATOM      6  C   UNL     1       9.836  -3.456  24.306  0.00  0.00    +0.000 C 
ENDROOT
BRANCH   4   7
ATOM      7  N   UNL     1       7.575  -0.624  24.840  0.00  0.00    +0.000 NA
ATOM      8  C   UNL     1       8.143   0.616  25.503  0.00  0.00    +0.000 C 
ATOM      9  C   UNL     1       8.322   1.588  24.860  0.00  0.00    +0.000 A 
ATOM     10  C   UNL     1       7.870   2.939  25.426  0.00  0.00    +0.000 A 
ATOM     11  C   UNL     1       7.975   4.222  24.761  0.00  0.00    +0.000 A 
ATOM     12  C   UNL     1       8.455   3.942  23.333  0.00  0.00    +0.000 A 
ATOM     13  C   UNL     1       8.872   2.784  22.643  0.00  0.00    +0.000 A 
ATOM     14  C   UNL     1       8.448   1.570  23.365  0.00  0.00    +0.000 A 
ATOM     15  C   UNL     1       7.581   0.645  22.713  0.00  0.00    +0.000 C 
ATOM     16  C   UNL     1       6.810  -0.171  23.777  0.00  0.00    +0.000 C 
BRANCH  15  17
ATOM     17  C   UNL     1       7.799  -0.182  21.494  0.00  0.00    +0.000 A 
ATOM     18  C   UNL     1       7.687   0.631  20.231  0.00  0.00    +0.000 A 
ATOM     19  C   UNL     1       6.704   0.486  19.124  0.00  0.00    +0.000 A 
ATOM     20  C   UNL     1       5.934  -0.642  19.573  0.00  0.00    +0.000 A 
ATOM     21  C   UNL     1       5.940  -1.803  20.449  0.00  0.00    +0.000 A 
ATOM     22  C   UNL     1       7.193  -1.529  21.318  0.00  0.00    +0.000 A 
ENDBRANCH  15  17
ENDBRANCH   4   7
BRANCH   1  25
ATOM     23  N   UNL     1       6.789  -5.240  25.263  0.00  0.00    +0.000 N 
ATOM     24  H   UNL     1       6.819  -6.146  25.600  0.00  0.00    +0.000 HD
ATOM     25  C   UNL     1       7.879  -5.006  24.530  0.00  0.00    +0.000 C 
ATOM     26  O   UNL     1       7.880  -5.340  23.340  0.00  0.00    +0.000 OA
BRANCH  23  32
ATOM     27  C   UNL     1       4.821  -6.478  24.719  0.00  0.00    +0.000 A 
ATOM     28  C   UNL     1       3.467  -6.139  25.320  0.00  0.00    +0.000 A 
ATOM     29  C   UNL     1       2.781  -4.833  25.337  0.00  0.00    +0.000 A 
ATOM     30  C   UNL     1       3.696  -3.913  24.589  0.00  0.00    +0.000 A 
ATOM     31  C   UNL     1       5.061  -3.893  24.130  0.00  0.00    +0.000 A 
ATOM     32  C   UNL     1       5.633  -5.268  24.437  0.00  0.00    +0.000 A 
BRANCH  27  34
ATOM     33  H   UNL     1       4.242  -6.959  22.977  0.00  0.00    +0.000 HD
ATOM     34  O   UNL     1       4.404  -7.421  23.778  0.00  0.00    +0.000 OA
ENDBRANCH  27  34
ENDBRANCH  23  32
ENDBRANCH   1  25
TORSDOF 5
ENDMDL
MODEL 5
REMARK VINA RESULT:      -8.4      1.907      3.946
REMARK  Name = 
REMARK  5 active torsions:
REMARK  status: ('A' for Active; 'I' for Inactive)
REMARK    1  A    between atoms: O_2  and  C_3
REMARK    2  A    between atoms: C_12  and  N_13
REMARK    3  A    between atoms: C_15  and  C_17
REMARK    4  A    between atoms: N_25  and  N_26
REMARK    5  A    between atoms: C_40  and  C_42
REMARK                            x       y       z     vdW  Elec       q    Type
REMARK                         _______ _______ _______ _____ _____    ______ ____
ROOT
ATOM      1  C   UNL     1       7.948  -4.158  26.099  0.00  0.00    +0.000 C 
ATOM      2  C   UNL     1       9.236  -3.462  25.756  0.00  0.00    +0.000 C 
ATOM      3  C   UNL     1       9.336  -2.990  24.340  0.00  0.00    +0.000 C 
ATOM      4  N   UNL     1       8.193  -3.244  23.536  0.00  0.00    +0.000 NA
ATOM      5  C   UNL     1       7.828  -4.620  23.616  0.00  0.00    +0.000 C 
ATOM      6  C   UNL     1       7.502  -5.085  25.014  0.00  0.00    +0.000 C 
ENDROOT
BRANCH   4   7
ATOM      7  N   UNL     1       8.140  -2.673  22.333  0.00  0.00    +0.000 NA
ATOM      8  C   UNL     1       6.789  -2.358  21.718  0.00  0.00    +0.000 C 
ATOM      9  C   UNL     1       6.593  -1.286  21.268  0.00  0.00    +0.000 A 
ATOM     10  C   UNL     1       5.913  -1.176  19.898  0.00  0.00    +0.000 A 
ATOM     11  C   UNL     1       5.629   0.050  19.180  0.00  0.00    +0.000 A 
ATOM     12  C   UNL     1       6.294   1.185  19.966  0.00  0.00    +0.000 A 
ATOM     13  C   UNL     1       6.978   1.262  21.197  0.00  0.00    +0.000 A 
ATOM     14  C   UNL     1       7.403  -0.079  21.639  0.00  0.00    +0.000 A 
ATOM     15  C   UNL     1       8.792  -0.339  21.824  0.00  0.00    +0.000 C 
ATOM     16  C   UNL     1       9.053  -1.856  21.684  0.00  0.00    +0.000 C 
BRANCH  15  17
ATOM     17  C   UNL     1       9.763   0.260  22.782  0.00  0.00    +0.000 A 
ATOM     18  C   UNL     1       9.289   0.155  24.208  0.00  0.00    +0.000 A 
ATOM     19  C   UNL     1       8.966   1.253  25.158  0.00  0.00    +0.000 A 
ATOM     20  C   UNL     1       9.261   2.414  24.361  0.00  0.00    +0.000 A 
ATOM     21  C   UNL     1       9.997   2.896  23.203  0.00  0.00    +0.000 A 
ATOM     22  C   UNL     1      10.432   1.566  22.537  0.00  0.00    +0.000 A 
ENDBRANCH  15  17
ENDBRANCH   4   7
BRANCH   1  25
ATOM     23  N   UNL     1       7.186  -1.876  26.421  0.00  0.00    +0.000 N 
ATOM     24  H   UNL     1       7.547  -1.551  27.257  0.00  0.00    +0.000 HD
ATOM     25  C   UNL     1       6.918  -3.178  26.533  0.00  0.00    +0.000 C 
ATOM     26  O   UNL     1       5.835  -3.524  27.017  0.00  0.00    +0.000 OA
BRANCH  23  32
ATOM     27  C   UNL     1       5.780  -0.280  27.505  0.00  0.00    +0.000 A 
ATOM     28  C   UNL     1       5.850   1.203  27.182  0.00  0.00    +0.000 A 
ATOM     29  C   UNL     1       5.761   1.850  25.858  0.00  0.00    +0.000 A 
ATOM     30  C   UNL     1       5.541   0.723  24.897  0.00  0.00    +0.000 A 
ATOM     31  C   UNL     1       5.649  -0.713  24.882  0.00  0.00    +0.000 A 
ATOM     32  C   UNL     1       5.983  -1.130  26.306  0.00  0.00    +0.000 A 
BRANCH  27  34
ATOM     33  H   UNL     1       4.228   0.567  28.193  0.00  0.00    +0.000 HD
ATOM     34  O   UNL     1       4.644  -0.265  28.316  0.00  0.00    +0.000 OA
ENDBRANCH  27  34
ENDBRANCH  23  32
ENDBRANCH   1  25
TORSDOF 5
ENDMDL
MODEL 6
REMARK VINA RESULT:      -8.3      2.268      4.805
REMARK  Name = 
REMARK  5 active torsions:
REMARK  status: ('A' for Active; 'I' for Inactive)
REMARK    1  A    between atoms: O_2  and  C_3
REMARK    2  A    between atoms: C_12  and  N_13
REMARK    3  A    between atoms: C_15  and  C_17
REMARK    4  A    between atoms: N_25  and  N_26
REMARK    5  A    between atoms: C_40  and  C_42
REMARK                            x       y       z     vdW  Elec       q    Type
REMARK                         _______ _______ _______ _____ _____    ______ ____
ROOT
ATOM      1  C   UNL     1       5.474  -3.837  23.900  0.00  0.00    +0.000 C 
ATOM      2  C   UNL     1       4.772  -2.736  24.647  0.00  0.00    +0.000 C 
ATOM      3  C   UNL     1       5.677  -1.693  25.222  0.00  0.00    +0.000 C 
ATOM      4  N   UNL     1       7.060  -1.880  24.958  0.00  0.00    +0.000 NA
ATOM      5  C   UNL     1       7.460  -3.197  25.328  0.00  0.00    +0.000 C 
ATOM      6  C   UNL     1       6.716  -4.289  24.600  0.00  0.00    +0.000 C 
ENDROOT
BRANCH   4   7
ATOM      7  N   UNL     1       7.892  -0.885  25.267  0.00  0.00    +0.000 NA
ATOM      8  C   UNL     1       9.234  -0.794  24.567  0.00  0.00    +0.000 C 
ATOM      9  C   UNL     1       9.578   0.234  24.104  0.00  0.00    +0.000 A 
ATOM     10  C   UNL     1      11.013   0.713  24.354  0.00  0.00    +0.000 A 
ATOM     11  C   UNL     1      11.590   1.959  23.896  0.00  0.00    +0.000 A 
ATOM     12  C   UNL     1      10.450   2.772  23.274  0.00  0.00    +0.000 A 
ATOM     13  C   UNL     1       9.091   2.512  22.999  0.00  0.00    +0.000 A 
ATOM     14  C   UNL     1       8.623   1.339  23.761  0.00  0.00    +0.000 A 
ATOM     15  C   UNL     1       7.552   1.499  24.689  0.00  0.00    +0.000 C 
ATOM     16  C   UNL     1       7.631   0.385  25.758  0.00  0.00    +0.000 C 
BRANCH  15  17
ATOM     17  C   UNL     1       6.133   1.889  24.461  0.00  0.00    +0.000 A 
ATOM     18  C   UNL     1       5.753   1.817  23.005  0.00  0.00    +0.000 A 
ATOM     19  C   UNL     1       5.317   2.920  22.108  0.00  0.00    +0.000 A 
ATOM     20  C   UNL     1       5.327   4.040  23.010  0.00  0.00    +0.000 A 
ATOM     21  C   UNL     1       5.284   4.430  24.410  0.00  0.00    +0.000 A 
ATOM     22  C   UNL     1       5.509   3.069  25.117  0.00  0.00    +0.000 A 
ENDBRANCH  15  17
ENDBRANCH   4   7
BRANCH   1  25
ATOM     23  N   UNL     1       5.696  -2.173  22.148  0.00  0.00    +0.000 N 
ATOM     24  H   UNL     1       4.809  -1.894  21.880  0.00  0.00    +0.000 HD
ATOM     25  C   UNL     1       5.672  -3.466  22.475  0.00  0.00    +0.000 C 
ATOM     26  O   UNL     1       5.788  -4.310  21.579  0.00  0.00    +0.000 OA
BRANCH  23  32
ATOM     27  C   UNL     1       5.536  -1.695  19.814  0.00  0.00    +0.000 A 
ATOM     28  C   UNL     1       5.714  -0.288  19.268  0.00  0.00    +0.000 A 
ATOM     29  C   UNL     1       6.836   0.642  19.500  0.00  0.00    +0.000 A 
ATOM     30  C   UNL     1       7.792  -0.123  20.363  0.00  0.00    +0.000 A 
ATOM     31  C   UNL     1       7.792  -1.313  21.174  0.00  0.00    +0.000 A 
ATOM     32  C   UNL     1       6.442  -1.978  20.955  0.00  0.00    +0.000 A 
BRANCH  27  34
ATOM     33  H   UNL     1       5.128  -3.231  18.777  0.00  0.00    +0.000 HD
ATOM     34  O   UNL     1       5.504  -2.388  18.603  0.00  0.00    +0.000 OA
ENDBRANCH  27  34
ENDBRANCH  23  32
ENDBRANCH   1  25
TORSDOF 5
ENDMDL
MODEL 7
REMARK VINA RESULT:      -8.1      2.170      4.819
REMARK  Name = 
REMARK  5 active torsions:
REMARK  status: ('A' for Active; 'I' for Inactive)
REMARK    1  A    between atoms: O_2  and  C_3
REMARK    2  A    between atoms: C_12  and  N_13
REMARK    3  A    between atoms: C_15  and  C_17
REMARK    4  A    between atoms: N_25  and  N_26
REMARK    5  A    between atoms: C_40  and  C_42
REMARK                            x       y       z     vdW  Elec       q    Type
REMARK                         _______ _______ _______ _____ _____    ______ ____
ROOT
ATOM      1  C   UNL     1       5.100  -5.736  22.568  0.00  0.00    +0.000 C 
ATOM      2  C   UNL     1       6.337  -6.145  21.815  0.00  0.00    +0.000 C 
ATOM      3  C   UNL     1       7.438  -5.132  21.823  0.00  0.00    +0.000 C 
ATOM      4  N   UNL     1       7.166  -3.948  22.559  0.00  0.00    +0.000 NA
ATOM      5  C   UNL     1       5.924  -3.384  22.146  0.00  0.00    +0.000 C 
ATOM      6  C   UNL     1       4.743  -4.305  22.330  0.00  0.00    +0.000 C 
ENDROOT
BRANCH   4   7
ATOM      7  N   UNL     1       8.174  -3.103  22.771  0.00  0.00    +0.000 NA
ATOM      8  C   UNL     1       8.413  -1.969  21.792  0.00  0.00    +0.000 C 
ATOM      9  C   UNL     1       8.563  -0.873  22.200  0.00  0.00    +0.000 A 
ATOM     10  C   UNL     1       9.705  -0.024  21.629  0.00  0.00    +0.000 A 
ATOM     11  C   UNL     1      10.057   1.321  22.036  0.00  0.00    +0.000 A 
ATOM     12  C   UNL     1       9.190   1.654  23.255  0.00  0.00    +0.000 A 
ATOM     13  C   UNL     1       8.139   0.995  23.926  0.00  0.00    +0.000 A 
ATOM     14  C   UNL     1       8.105  -0.433  23.559  0.00  0.00    +0.000 A 
ATOM     15  C   UNL     1       8.270  -1.414  24.580  0.00  0.00    +0.000 C 
ATOM     16  C   UNL     1       8.796  -2.725  23.951  0.00  0.00    +0.000 C 
BRANCH  15  17
ATOM     17  C   UNL     1       7.421  -1.721  25.765  0.00  0.00    +0.000 A 
ATOM     18  C   UNL     1       5.963  -1.830  25.404  0.00  0.00    +0.000 A 
ATOM     19  C   UNL     1       4.830  -0.985  25.870  0.00  0.00    +0.000 A 
ATOM     20  C   UNL     1       5.500  -0.082  26.767  0.00  0.00    +0.000 A 
ATOM     21  C   UNL     1       6.690   0.110  27.579  0.00  0.00    +0.000 A 
ATOM     22  C   UNL     1       7.597  -1.042  27.077  0.00  0.00    +0.000 A 
ENDBRANCH  15  17
ENDBRANCH   4   7
BRANCH   1  25
ATOM     23  N   UNL     1       5.559  -5.179  24.885  0.00  0.00    +0.000 N 
ATOM     24  H   UNL     1       6.516  -5.213  25.022  0.00  0.00    +0.000 HD
ATOM     25  C   UNL     1       5.206  -6.114  24.002  0.00  0.00    +0.000 C 
ATOM     26  O   UNL     1       5.005  -7.266  24.401  0.00  0.00    +0.000 OA
BRANCH  23  32
ATOM     27  C   UNL     1       6.154  -5.459  27.180  0.00  0.00    +0.000 A 
ATOM     28  C   UNL     1       5.955  -4.353  28.203  0.00  0.00    +0.000 A 
ATOM     29  C   UNL     1       4.722  -3.595  28.495  0.00  0.00    +0.000 A 
ATOM     30  C   UNL     1       3.689  -4.187  27.587  0.00  0.00    +0.000 A 
ATOM     31  C   UNL     1       3.637  -5.036  26.424  0.00  0.00    +0.000 A 
ATOM     32  C   UNL     1       5.063  -5.504  26.176  0.00  0.00    +0.000 A 
BRANCH  27  34
ATOM     33  H   UNL     1       6.438  -7.294  27.572  0.00  0.00    +0.000 HD
ATOM     34  O   UNL     1       6.507  -6.491  28.052  0.00  0.00    +0.000 OA
ENDBRANCH  27  34
ENDBRANCH  23  32
ENDBRANCH   1  25
TORSDOF 5
ENDMDL
MODEL 8
REMARK VINA RESULT:      -8.0      3.110      6.960
REMARK  Name = 
REMARK  5 active torsions:
REMARK  status: ('A' for Active; 'I' for Inactive)
REMARK    1  A    between atoms: O_2  and  C_3
REMARK    2  A    between atoms: C_12  and  N_13
REMARK    3  A    between atoms: C_15  and  C_17
REMARK    4  A    between atoms: N_25  and  N_26
REMARK    5  A    between atoms: C_40  and  C_42
REMARK                            x       y       z     vdW  Elec       q    Type
REMARK                         _______ _______ _______ _____ _____    ______ ____
ROOT
ATOM      1  C   UNL     1       8.440   1.685  22.048  0.00  0.00    +0.000 C 
ATOM      2  C   UNL     1       7.212   0.926  21.625  0.00  0.00    +0.000 C 
ATOM      3  C   UNL     1       7.315  -0.560  21.767  0.00  0.00    +0.000 C 
ATOM      4  N   UNL     1       8.542  -1.034  22.302  0.00  0.00    +0.000 NA
ATOM      5  C   UNL     1       9.641  -0.489  21.576  0.00  0.00    +0.000 C 
ATOM      6  C   UNL     1       9.698   1.019  21.593  0.00  0.00    +0.000 C 
ENDROOT
BRANCH   4   7
ATOM      7  N   UNL     1       8.618  -2.321  22.640  0.00  0.00    +0.000 NA
ATOM      8  C   UNL     1       9.587  -2.749  23.725  0.00  0.00    +0.000 C 
ATOM      9  C   UNL     1       9.210  -3.448  24.597  0.00  0.00    +0.000 A 
ATOM     10  C   UNL     1      10.073  -4.646  25.006  0.00  0.00    +0.000 A 
ATOM     11  C   UNL     1       9.749  -5.625  26.024  0.00  0.00    +0.000 A 
ATOM     12  C   UNL     1       8.316  -5.332  26.478  0.00  0.00    +0.000 A 
ATOM     13  C   UNL     1       7.378  -4.318  26.189  0.00  0.00    +0.000 A 
ATOM     14  C   UNL     1       7.763  -3.591  24.965  0.00  0.00    +0.000 A 
ATOM     15  C   UNL     1       6.871  -3.589  23.853  0.00  0.00    +0.000 C 
ATOM     16  C   UNL     1       7.671  -3.329  22.555  0.00  0.00    +0.000 C 
BRANCH  15  17
ATOM     17  C   UNL     1       5.495  -3.034  23.725  0.00  0.00    +0.000 A 
ATOM     18  C   UNL     1       5.204  -1.994  24.776  0.00  0.00    +0.000 A 
ATOM     19  C   UNL     1       4.177  -2.030  25.852  0.00  0.00    +0.000 A 
ATOM     20  C   UNL     1       3.535  -3.290  25.589  0.00  0.00    +0.000 A 
ATOM     21  C   UNL     1       3.296  -4.306  24.577  0.00  0.00    +0.000 A 
ATOM     22  C   UNL     1       4.303  -3.888  23.476  0.00  0.00    +0.000 A 
ENDBRANCH  15  17
ENDBRANCH   4   7
BRANCH   1  25
ATOM     23  N   UNL     1       7.461   1.407  24.251  0.00  0.00    +0.000 N 
ATOM     24  H   UNL     1       6.693   1.991  24.318  0.00  0.00    +0.000 HD
ATOM     25  C   UNL     1       8.397   1.992  23.501  0.00  0.00    +0.000 C 
ATOM     26  O   UNL     1       9.177   2.787  24.035  0.00  0.00    +0.000 OA
BRANCH  23  32
ATOM     27  C   UNL     1       7.027   2.157  26.475  0.00  0.00    +0.000 A 
ATOM     28  C   UNL     1       6.225   1.326  27.462  0.00  0.00    +0.000 A 
ATOM     29  C   UNL     1       6.443  -0.080  27.855  0.00  0.00    +0.000 A 
ATOM     30  C   UNL     1       7.663  -0.502  27.097  0.00  0.00    +0.000 A 
ATOM     31  C   UNL     1       8.455  -0.035  25.987  0.00  0.00    +0.000 A 
ATOM     32  C   UNL     1       7.890   1.323  25.602  0.00  0.00    +0.000 A 
BRANCH  27  34
ATOM     33  H   UNL     1       7.524   2.767  28.202  0.00  0.00    +0.000 HD
ATOM     34  O   UNL     1       7.467   3.154  27.349  0.00  0.00    +0.000 OA
ENDBRANCH  27  34
ENDBRANCH  23  32
ENDBRANCH   1  25
TORSDOF 5
ENDMDL
MODEL 9
REMARK VINA RESULT:      -7.8      2.999      7.352
REMARK  Name = 
REMARK  5 active torsions:
REMARK  status: ('A' for Active; 'I' for Inactive)
REMARK    1  A    between atoms: O_2  and  C_3
REMARK    2  A    between atoms: C_12  and  N_13
REMARK    3  A    between atoms: C_15  and  C_17
REMARK    4  A    between atoms: N_25  and  N_26
REMARK    5  A    between atoms: C_40  and  C_42
REMARK                            x       y       z     vdW  Elec       q    Type
REMARK                         _______ _______ _______ _____ _____    ______ ____
ROOT
ATOM      1  C   UNL     1      10.071   1.240  22.442  0.00  0.00    +0.000 C 
ATOM      2  C   UNL     1      10.249  -0.222  22.135  0.00  0.00    +0.000 C 
ATOM      3  C   UNL     1       9.756  -1.150  23.199  0.00  0.00    +0.000 C 
ATOM      4  N   UNL     1       9.170  -0.519  24.328  0.00  0.00    +0.000 NA
ATOM      5  C   UNL     1      10.049   0.474  24.851  0.00  0.00    +0.000 C 
ATOM      6  C   UNL     1      10.399   1.561  23.864  0.00  0.00    +0.000 C 
ENDROOT
BRANCH   4   7
ATOM      7  N   UNL     1       8.533  -1.289  25.211  0.00  0.00    +0.000 NA
ATOM      8  C   UNL     1       7.298  -0.754  25.910  0.00  0.00    +0.000 C 
ATOM      9  C   UNL     1       6.323  -1.416  25.950  0.00  0.00    +0.000 A 
ATOM     10  C   UNL     1       5.569  -1.538  27.280  0.00  0.00    +0.000 A 
ATOM     11  C   UNL     1       4.382  -2.332  27.519  0.00  0.00    +0.000 A 
ATOM     12  C   UNL     1       4.135  -3.153  26.249  0.00  0.00    +0.000 A 
ATOM     13  C   UNL     1       4.735  -3.197  24.973  0.00  0.00    +0.000 A 
ATOM     14  C   UNL     1       6.058  -2.545  24.999  0.00  0.00    +0.000 A 
ATOM     15  C   UNL     1       7.212  -3.310  24.660  0.00  0.00    +0.000 C 
ATOM     16  C   UNL     1       8.460  -2.670  25.311  0.00  0.00    +0.000 C 
BRANCH  15  17
ATOM     17  C   UNL     1       7.586  -3.968  23.377  0.00  0.00    +0.000 A 
ATOM     18  C   UNL     1       6.997  -3.261  22.184  0.00  0.00    +0.000 A 
ATOM     19  C   UNL     1       6.021  -3.783  21.190  0.00  0.00    +0.000 A 
ATOM     20  C   UNL     1       5.833  -5.130  21.657  0.00  0.00    +0.000 A 
ATOM     21  C   UNL     1       6.415  -6.195  22.457  0.00  0.00    +0.000 A 
ATOM     22  C   UNL     1       7.554  -5.444  23.192  0.00  0.00    +0.000 A 
ENDBRANCH  15  17
ENDBRANCH   4   7
BRANCH   1  25
ATOM     23  N   UNL     1       8.028   2.496  22.814  0.00  0.00    +0.000 N 
ATOM     24  H   UNL     1       7.427   1.949  23.339  0.00  0.00    +0.000 HD
ATOM     25  C   UNL     1       8.735   1.714  21.997  0.00  0.00    +0.000 C 
ATOM     26  O   UNL     1       8.244   1.390  20.910  0.00  0.00    +0.000 OA
BRANCH  23  32
ATOM     27  C   UNL     1       5.800   2.641  21.968  0.00  0.00    +0.000 A 
ATOM     28  C   UNL     1       4.711   3.408  22.698  0.00  0.00    +0.000 A 
ATOM     29  C   UNL     1       4.745   4.805  23.173  0.00  0.00    +0.000 A 
ATOM     30  C   UNL     1       6.081   5.322  22.737  0.00  0.00    +0.000 A 
ATOM     31  C   UNL     1       7.334   4.796  22.258  0.00  0.00    +0.000 A 
ATOM     32  C   UNL     1       7.125   3.302  22.071  0.00  0.00    +0.000 A 
BRANCH  27  34
ATOM     33  H   UNL     1       5.216   1.456  20.605  0.00  0.00    +0.000 HD
ATOM     34  O   UNL     1       5.109   2.371  20.785  0.00  0.00    +0.000 OA
ENDBRANCH  27  34
ENDBRANCH  23  32
ENDBRANCH   1  25
TORSDOF 5
ENDMDL
