MODEL 1
REMARK VINA RESULT:      -9.2      0.000      0.000
REMARK  Name = 
REMARK  2 active torsions:
REMARK  status: ('A' for Active; 'I' for Inactive)
REMARK    1  A    between atoms: C_7  and  C_8
REMARK    2  A    between atoms: C_34  and  C_36
REMARK                            x       y       z     vdW  Elec       q    Type
REMARK                         _______ _______ _______ _____ _____    ______ ____
ROOT
ATOM      1  C   UNL     1       8.834  -0.679  21.581  0.00  0.00    +0.000 C 
ATOM      2  C   UNL     1       8.962   0.472  22.319  0.00  0.00    +0.000 A 
ATOM      3  C   UNL     1       9.992   1.441  22.004  0.00  0.00    +0.000 A 
ATOM      4  C   UNL     1      10.387   2.574  22.832  0.00  0.00    +0.000 A 
ATOM      5  C   UNL     1       9.593   2.439  24.121  0.00  0.00    +0.000 A 
ATOM      6  C   UNL     1       8.683   1.497  24.679  0.00  0.00    +0.000 A 
ATOM      7  C   UNL     1       8.820   0.287  23.847  0.00  0.00    +0.000 A 
ATOM      8  C   UNL     1       9.588  -0.925  24.533  0.00  0.00    +0.000 C 
ATOM      9  N   UNL     1       9.219  -1.936  23.712  0.00  0.00    +0.000 N 
ATOM     10  C   UNL     1       8.927  -3.273  24.055  0.00  0.00    +0.000 C 
ATOM     11  O   UNL     1      10.122  -3.771  24.236  0.00  0.00    +0.000 OA
ATOM     12  N   UNL     1       8.111  -3.622  25.053  0.00  0.00    +0.000 N 
ATOM     13  C   UNL     1       6.955  -2.830  25.476  0.00  0.00    +0.000 C 
ATOM     14  C   UNL     1       6.052  -2.690  24.229  0.00  0.00    +0.000 C 
ATOM     15  O   UNL     1       6.405  -3.650  23.356  0.00  0.00    +0.000 OA
ATOM     16  C   UNL     1       6.537  -4.935  23.854  0.00  0.00    +0.000 C 
ATOM     17  C   UNL     1       6.798  -5.764  22.572  0.00  0.00    +0.000 C 
ATOM     18  C   UNL     1       7.699  -5.061  24.785  0.00  0.00    +0.000 C 
ATOM     19  C   UNL     1       9.233  -1.849  22.399  0.00  0.00    +0.000 C 
ENDROOT
BRANCH   1  23
ATOM     20  C   UNL     1       5.982  -0.400  18.595  0.00  0.00    +0.000 A 
ATOM     21  C   UNL     1       6.679   0.794  19.158  0.00  0.00    +0.000 A 
ATOM     22  C   UNL     1       7.388   0.947  20.459  0.00  0.00    +0.000 A 
ATOM     23  C   UNL     1       7.570  -0.520  21.119  0.00  0.00    +0.000 A 
ATOM     24  C   UNL     1       6.436  -1.510  20.915  0.00  0.00    +0.000 A 
ATOM     25  C   UNL     1       5.831  -1.494  19.620  0.00  0.00    +0.000 A 
ENDBRANCH   1  23
TORSDOF 1
ENDMDL
MODEL 2
REMARK VINA RESULT:      -8.0      2.322      5.265
REMARK  Name = 
REMARK  2 active torsions:
REMARK  status: ('A' for Active; 'I' for Inactive)
REMARK    1  A    between atoms: C_7  and  C_8
REMARK    2  A    between atoms: C_34  and  C_36
REMARK                            x       y       z     vdW  Elec       q    Type
REMARK                         _______ _______ _______ _____ _____    ______ ____
ROOT
ATOM      1  C   UNL     1       6.674  -1.415  22.833  0.00  0.00    +0.000 C 
ATOM      2  C   UNL     1       7.431  -2.489  23.230  0.00  0.00    +0.000 A 
ATOM      3  C   UNL     1       6.799  -3.707  23.692  0.00  0.00    +0.000 A 
ATOM      4  C   UNL     1       7.466  -4.823  24.354  0.00  0.00    +0.000 A 
ATOM      5  C   UNL     1       8.904  -4.377  24.564  0.00  0.00    +0.000 A 
ATOM      6  C   UNL     1       9.660  -3.193  24.342  0.00  0.00    +0.000 A 
ATOM      7  C   UNL     1       8.661  -2.136  24.098  0.00  0.00    +0.000 A 
ATOM      8  C   UNL     1       8.470  -1.095  25.286  0.00  0.00    +0.000 C 
ATOM      9  N   UNL     1       7.821  -0.103  24.632  0.00  0.00    +0.000 N 
ATOM     10  C   UNL     1       7.958   1.290  24.806  0.00  0.00    +0.000 C 
ATOM     11  O   UNL     1       7.285   1.490  25.909  0.00  0.00    +0.000 OA
ATOM     12  N   UNL     1       9.135   1.920  24.848  0.00  0.00    +0.000 N 
ATOM     13  C   UNL     1      10.321   1.483  24.111  0.00  0.00    +0.000 C 
ATOM     14  C   UNL     1       9.914   1.459  22.619  0.00  0.00    +0.000 C 
ATOM     15  O   UNL     1       8.812   2.216  22.482  0.00  0.00    +0.000 OA
ATOM     16  C   UNL     1       8.832   3.468  23.073  0.00  0.00    +0.000 C 
ATOM     17  C   UNL     1       7.496   4.086  22.591  0.00  0.00    +0.000 C 
ATOM     18  C   UNL     1       8.845   3.386  24.565  0.00  0.00    +0.000 C 
ATOM     19  C   UNL     1       6.812  -0.311  23.812  0.00  0.00    +0.000 C 
ENDROOT
BRANCH   1  23
ATOM     20  C   UNL     1       6.570   0.215  19.030  0.00  0.00    +0.000 A 
ATOM     21  C   UNL     1       5.796  -1.005  19.405  0.00  0.00    +0.000 A 
ATOM     22  C   UNL     1       6.012  -1.948  20.537  0.00  0.00    +0.000 A 
ATOM     23  C   UNL     1       7.093  -1.296  21.549  0.00  0.00    +0.000 A 
ATOM     24  C   UNL     1       8.222  -0.493  20.924  0.00  0.00    +0.000 A 
ATOM     25  C   UNL     1       7.851   0.327  19.815  0.00  0.00    +0.000 A 
ENDBRANCH   1  23
TORSDOF 1
ENDMDL
MODEL 3
REMARK VINA RESULT:      -7.7      1.941      4.841
REMARK  Name = 
REMARK  2 active torsions:
REMARK  status: ('A' for Active; 'I' for Inactive)
REMARK    1  A    between atoms: C_7  and  C_8
REMARK    2  A    between atoms: C_34  and  C_36
REMARK                            x       y       z     vdW  Elec       q    Type
REMARK                         _______ _______ _______ _____ _____    ______ ____
ROOT
ATOM      1  C   UNL     1       6.649   1.649  22.169  0.00  0.00    +0.000 C 
ATOM      2  C   UNL     1       6.744   1.395  20.823  0.00  0.00    +0.000 A 
ATOM      3  C   UNL     1       5.661   1.744  19.927  0.00  0.00    +0.000 A 
ATOM      4  C   UNL     1       5.530   1.327  18.536  0.00  0.00    +0.000 A 
ATOM      5  C   UNL     1       6.679   0.365  18.284  0.00  0.00    +0.000 A 
ATOM      6  C   UNL     1       7.721  -0.222  19.054  0.00  0.00    +0.000 A 
ATOM      7  C   UNL     1       7.346   0.018  20.460  0.00  0.00    +0.000 A 
ATOM      8  C   UNL     1       6.830  -1.261  21.253  0.00  0.00    +0.000 C 
ATOM      9  N   UNL     1       6.939  -0.813  22.525  0.00  0.00    +0.000 N 
ATOM     10  C   UNL     1       7.330  -1.534  23.673  0.00  0.00    +0.000 C 
ATOM     11  O   UNL     1       6.249  -2.221  23.939  0.00  0.00    +0.000 OA
ATOM     12  N   UNL     1       8.413  -2.313  23.725  0.00  0.00    +0.000 N 
ATOM     13  C   UNL     1       9.638  -2.061  22.965  0.00  0.00    +0.000 C 
ATOM     14  C   UNL     1      10.118  -0.651  23.383  0.00  0.00    +0.000 C 
ATOM     15  O   UNL     1       9.521  -0.343  24.547  0.00  0.00    +0.000 OA
ATOM     16  C   UNL     1       9.555  -1.303  25.545  0.00  0.00    +0.000 C 
ATOM     17  C   UNL     1       8.922  -0.558  26.746  0.00  0.00    +0.000 C 
ATOM     18  C   UNL     1       8.732  -2.502  25.200  0.00  0.00    +0.000 C 
ATOM     19  C   UNL     1       6.525   0.375  22.915  0.00  0.00    +0.000 C 
ENDROOT
BRANCH   1  23
ATOM     20  C   UNL     1       9.026   4.274  24.312  0.00  0.00    +0.000 A 
ATOM     21  C   UNL     1       7.903   4.731  23.441  0.00  0.00    +0.000 A 
ATOM     22  C   UNL     1       7.233   4.022  22.316  0.00  0.00    +0.000 A 
ATOM     23  C   UNL     1       7.712   2.476  22.326  0.00  0.00    +0.000 A 
ATOM     24  C   UNL     1       9.153   2.206  22.722  0.00  0.00    +0.000 A 
ATOM     25  C   UNL     1       9.657   3.008  23.792  0.00  0.00    +0.000 A 
ENDBRANCH   1  23
TORSDOF 1
ENDMDL
MODEL 4
REMARK VINA RESULT:      -7.5      2.151      5.236
REMARK  Name = 
REMARK  2 active torsions:
REMARK  status: ('A' for Active; 'I' for Inactive)
REMARK    1  A    between atoms: C_7  and  C_8
REMARK    2  A    between atoms: C_34  and  C_36
REMARK                            x       y       z     vdW  Elec       q    Type
REMARK                         _______ _______ _______ _____ _____    ______ ____
ROOT
ATOM      1  C   UNL     1       7.122  -1.947  22.142  0.00  0.00    +0.000 C 
ATOM      2  C   UNL     1       7.507  -3.243  22.379  0.00  0.00    +0.000 A 
ATOM      3  C   UNL     1       6.941  -4.335  21.614  0.00  0.00    +0.000 A 
ATOM      4  C   UNL     1       7.080  -5.755  21.912  0.00  0.00    +0.000 A 
ATOM      5  C   UNL     1       7.817  -5.827  23.239  0.00  0.00    +0.000 A 
ATOM      6  C   UNL     1       8.296  -4.899  24.205  0.00  0.00    +0.000 A 
ATOM      7  C   UNL     1       7.641  -3.621  23.873  0.00  0.00    +0.000 A 
ATOM      8  C   UNL     1       6.485  -3.171  24.869  0.00  0.00    +0.000 C 
ATOM      9  N   UNL     1       6.372  -1.866  24.530  0.00  0.00    +0.000 N 
ATOM     10  C   UNL     1       6.117  -0.765  25.375  0.00  0.00    +0.000 C 
ATOM     11  O   UNL     1       4.833  -0.887  25.592  0.00  0.00    +0.000 OA
ATOM     12  N   UNL     1       6.773  -0.539  26.515  0.00  0.00    +0.000 N 
ATOM     13  C   UNL     1       8.170  -0.911  26.742  0.00  0.00    +0.000 C 
ATOM     14  C   UNL     1       8.987  -0.195  25.641  0.00  0.00    +0.000 C 
ATOM     15  O   UNL     1       8.232   0.804  25.154  0.00  0.00    +0.000 OA
ATOM     16  C   UNL     1       7.619   1.636  26.075  0.00  0.00    +0.000 C 
ATOM     17  C   UNL     1       6.980   2.720  25.173  0.00  0.00    +0.000 C 
ATOM     18  C   UNL     1       6.554   0.929  26.850  0.00  0.00    +0.000 C 
ATOM     19  C   UNL     1       6.327  -1.439  23.284  0.00  0.00    +0.000 C 
ENDROOT
BRANCH   1  23
ATOM     20  C   UNL     1      10.075   0.948  22.315  0.00  0.00    +0.000 A 
ATOM     21  C   UNL     1       8.976   0.977  21.306  0.00  0.00    +0.000 A 
ATOM     22  C   UNL     1       8.105  -0.131  20.826  0.00  0.00    +0.000 A 
ATOM     23  C   UNL     1       8.317  -1.408  21.798  0.00  0.00    +0.000 A 
ATOM     24  C   UNL     1       9.721  -1.640  22.330  0.00  0.00    +0.000 A 
ATOM     25  C   UNL     1      10.440  -0.462  22.703  0.00  0.00    +0.000 A 
ENDBRANCH   1  23
TORSDOF 1
ENDMDL
MODEL 5
REMARK VINA RESULT:      -7.2      1.999      5.921
REMARK  Name = 
REMARK  2 active torsions:
REMARK  status: ('A' for Active; 'I' for Inactive)
REMARK    1  A    between atoms: C_7  and  C_8
REMARK    2  A    between atoms: C_34  and  C_36
REMARK                            x       y       z     vdW  Elec       q    Type
REMARK                         _______ _______ _______ _____ _____    ______ ____
ROOT
ATOM      1  C   UNL     1       7.866  -2.407  26.331  0.00  0.00    +0.000 C 
ATOM      2  C   UNL     1       6.979  -3.428  26.096  0.00  0.00    +0.000 A 
ATOM      3  C   UNL     1       7.005  -4.629  26.905  0.00  0.00    +0.000 A 
ATOM      4  C   UNL     1       6.291  -5.869  26.623  0.00  0.00    +0.000 A 
ATOM      5  C   UNL     1       5.641  -5.671  25.264  0.00  0.00    +0.000 A 
ATOM      6  C   UNL     1       5.633  -4.661  24.262  0.00  0.00    +0.000 A 
ATOM      7  C   UNL     1       6.753  -3.766  24.605  0.00  0.00    +0.000 A 
ATOM      8  C   UNL     1       8.026  -3.878  23.657  0.00  0.00    +0.000 C 
ATOM      9  N   UNL     1       8.667  -2.730  23.981  0.00  0.00    +0.000 N 
ATOM     10  C   UNL     1       9.392  -1.869  23.131  0.00  0.00    +0.000 C 
ATOM     11  O   UNL     1      10.512  -2.526  22.976  0.00  0.00    +0.000 OA
ATOM     12  N   UNL     1       8.935  -1.427  21.957  0.00  0.00    +0.000 N 
ATOM     13  C   UNL     1       7.520  -1.185  21.671  0.00  0.00    +0.000 C 
ATOM     14  C   UNL     1       7.041  -0.155  22.720  0.00  0.00    +0.000 C 
ATOM     15  O   UNL     1       8.129   0.451  23.226  0.00  0.00    +0.000 OA
ATOM     16  C   UNL     1       9.068   0.916  22.322  0.00  0.00    +0.000 C 
ATOM     17  C   UNL     1      10.072   1.661  23.237  0.00  0.00    +0.000 C 
ATOM     18  C   UNL     1       9.764  -0.200  21.610  0.00  0.00    +0.000 C 
ATOM     19  C   UNL     1       8.842  -2.320  25.220  0.00  0.00    +0.000 C 
ENDROOT
BRANCH   1  23
ATOM     20  C   UNL     1       6.151   1.304  25.683  0.00  0.00    +0.000 A 
ATOM     21  C   UNL     1       7.307   1.100  26.606  0.00  0.00    +0.000 A 
ATOM     22  C   UNL     1       7.776  -0.147  27.270  0.00  0.00    +0.000 A 
ATOM     23  C   UNL     1       6.998  -1.404  26.609  0.00  0.00    +0.000 A 
ATOM     24  C   UNL     1       5.549  -1.182  26.211  0.00  0.00    +0.000 A 
ATOM     25  C   UNL     1       5.259   0.091  25.629  0.00  0.00    +0.000 A 
ENDBRANCH   1  23
TORSDOF 1
ENDMDL
MODEL 6
REMARK VINA RESULT:      -7.0      2.127      3.265
REMARK  Name = 
REMARK  2 active torsions:
REMARK  status: ('A' for Active; 'I' for Inactive)
REMARK    1  A    between atoms: C_7  and  C_8
REMARK    2  A    between atoms: C_34  and  C_36
REMARK                            x       y       z     vdW  Elec       q    Type
REMARK                         _______ _______ _______ _____ _____    ______ ____
ROOT
ATOM      1  C   UNL     1       9.444   2.016  23.718  0.00  0.00    +0.000 C 
ATOM      2  C   UNL     1       8.627   3.088  23.982  0.00  0.00    +0.000 A 
ATOM      3  C   UNL     1       9.187   4.374  24.341  0.00  0.00    +0.000 A 
ATOM      4  C   UNL     1       8.448   5.516  24.867  0.00  0.00    +0.000 A 
ATOM      5  C   UNL     1       7.024   5.026  25.072  0.00  0.00    +0.000 A 
ATOM      6  C   UNL     1       6.330   3.791  24.944  0.00  0.00    +0.000 A 
ATOM      7  C   UNL     1       7.382   2.763  24.839  0.00  0.00    +0.000 A 
ATOM      8  C   UNL     1       7.574   1.854  26.130  0.00  0.00    +0.000 C 
ATOM      9  N   UNL     1       8.289   0.834  25.600  0.00  0.00    +0.000 N 
ATOM     10  C   UNL     1       8.207  -0.540  25.907  0.00  0.00    +0.000 C 
ATOM     11  O   UNL     1       8.847  -0.599  27.046  0.00  0.00    +0.000 OA
ATOM     12  N   UNL     1       7.058  -1.218  25.973  0.00  0.00    +0.000 N 
ATOM     13  C   UNL     1       5.882  -0.911  25.157  0.00  0.00    +0.000 C 
ATOM     14  C   UNL     1       6.343  -1.014  23.685  0.00  0.00    +0.000 C 
ATOM     15  O   UNL     1       7.481  -1.728  23.660  0.00  0.00    +0.000 OA
ATOM     16  C   UNL     1       7.494  -2.916  24.371  0.00  0.00    +0.000 C 
ATOM     17  C   UNL     1       8.873  -3.514  23.998  0.00  0.00    +0.000 C 
ATOM     18  C   UNL     1       7.422  -2.689  25.847  0.00  0.00    +0.000 C 
ATOM     19  C   UNL     1       9.319   1.008  24.797  0.00  0.00    +0.000 C 
ENDROOT
BRANCH   1  23
ATOM     20  C   UNL     1       7.629  -0.249  20.768  0.00  0.00    +0.000 A 
ATOM     21  C   UNL     1       9.068  -0.405  21.133  0.00  0.00    +0.000 A 
ATOM     22  C   UNL     1       9.973   0.549  21.831  0.00  0.00    +0.000 A 
ATOM     23  C   UNL     1       9.079   1.753  22.440  0.00  0.00    +0.000 A 
ATOM     24  C   UNL     1       7.887   2.208  21.615  0.00  0.00    +0.000 A 
ATOM     25  C   UNL     1       7.152   1.166  20.971  0.00  0.00    +0.000 A 
ENDBRANCH   1  23
TORSDOF 1
ENDMDL
MODEL 7
REMARK VINA RESULT:      -7.0      2.281      4.632
REMARK  Name = 
REMARK  2 active torsions:
REMARK  status: ('A' for Active; 'I' for Inactive)
REMARK    1  A    between atoms: C_7  and  C_8
REMARK    2  A    between atoms: C_34  and  C_36
REMARK                            x       y       z     vdW  Elec       q    Type
REMARK                         _______ _______ _______ _____ _____    ______ ____
ROOT
ATOM      1  C   UNL     1       6.779  -1.180  24.583  0.00  0.00    +0.000 C 
ATOM      2  C   UNL     1       8.061  -0.755  24.336  0.00  0.00    +0.000 A 
ATOM      3  C   UNL     1       8.357   0.656  24.194  0.00  0.00    +0.000 A 
ATOM      4  C   UNL     1       9.607   1.226  23.706  0.00  0.00    +0.000 A 
ATOM      5  C   UNL     1      10.455   0.044  23.266  0.00  0.00    +0.000 A 
ATOM      6  C   UNL     1      10.288  -1.366  23.168  0.00  0.00    +0.000 A 
ATOM      7  C   UNL     1       8.837  -1.594  23.294  0.00  0.00    +0.000 A 
ATOM      8  C   UNL     1       8.092  -1.997  21.947  0.00  0.00    +0.000 C 
ATOM      9  N   UNL     1       6.934  -2.484  22.451  0.00  0.00    +0.000 N 
ATOM     10  C   UNL     1       6.175  -3.579  21.988  0.00  0.00    +0.000 C 
ATOM     11  O   UNL     1       5.580  -3.068  20.941  0.00  0.00    +0.000 OA
ATOM     12  N   UNL     1       6.696  -4.774  21.701  0.00  0.00    +0.000 N 
ATOM     13  C   UNL     1       7.856  -5.344  22.387  0.00  0.00    +0.000 C 
ATOM     14  C   UNL     1       7.483  -5.401  23.886  0.00  0.00    +0.000 C 
ATOM     15  O   UNL     1       6.145  -5.316  23.979  0.00  0.00    +0.000 OA
ATOM     16  C   UNL     1       5.403  -6.141  23.150  0.00  0.00    +0.000 C 
ATOM     17  C   UNL     1       3.954  -5.881  23.631  0.00  0.00    +0.000 C 
ATOM     18  C   UNL     1       5.537  -5.759  21.712  0.00  0.00    +0.000 C 
ATOM     19  C   UNL     1       6.241  -1.880  23.394  0.00  0.00    +0.000 C 
ENDROOT
BRANCH   1  23
ATOM     20  C   UNL     1       6.464  -4.400  27.165  0.00  0.00    +0.000 A 
ATOM     21  C   UNL     1       5.443  -3.313  27.104  0.00  0.00    +0.000 A 
ATOM     22  C   UNL     1       5.571  -1.926  26.579  0.00  0.00    +0.000 A 
ATOM     23  C   UNL     1       6.968  -1.811  25.768  0.00  0.00    +0.000 A 
ATOM     24  C   UNL     1       8.149  -2.591  26.321  0.00  0.00    +0.000 A 
ATOM     25  C   UNL     1       7.843  -3.891  26.830  0.00  0.00    +0.000 A 
ENDBRANCH   1  23
TORSDOF 1
ENDMDL
MODEL 8
REMARK VINA RESULT:      -7.0      2.085      4.449
REMARK  Name = 
REMARK  2 active torsions:
REMARK  status: ('A' for Active; 'I' for Inactive)
REMARK    1  A    between atoms: C_7  and  C_8
REMARK    2  A    between atoms: C_34  and  C_36
REMARK                            x       y       z     vdW  Elec       q    Type
REMARK                         _______ _______ _______ _____ _____    ______ ____
ROOT
ATOM      1  C   UNL     1       6.465  -0.387  24.163  0.00  0.00    +0.000 C 
ATOM      2  C   UNL     1       7.417  -0.191  23.193  0.00  0.00    +0.000 A 
ATOM      3  C   UNL     1       7.129   0.623  22.030  0.00  0.00    +0.000 A 
ATOM      4  C   UNL     1       7.949   0.723  20.828  0.00  0.00    +0.000 A 
ATOM      5  C   UNL     1       9.069  -0.288  21.008  0.00  0.00    +0.000 A 
ATOM      6  C   UNL     1       9.424  -1.274  21.970  0.00  0.00    +0.000 A 
ATOM      7  C   UNL     1       8.222  -1.453  22.804  0.00  0.00    +0.000 A 
ATOM      8  C   UNL     1       7.425  -2.809  22.566  0.00  0.00    +0.000 C 
ATOM      9  N   UNL     1       6.661  -2.837  23.683  0.00  0.00    +0.000 N 
ATOM     10  C   UNL     1       6.289  -3.957  24.456  0.00  0.00    +0.000 C 
ATOM     11  O   UNL     1       5.347  -4.489  23.720  0.00  0.00    +0.000 OA
ATOM     12  N   UNL     1       7.148  -4.889  24.873  0.00  0.00    +0.000 N 
ATOM     13  C   UNL     1       8.551  -4.620  25.194  0.00  0.00    +0.000 C 
ATOM     14  C   UNL     1       8.537  -3.539  26.300  0.00  0.00    +0.000 C 
ATOM     15  O   UNL     1       7.313  -3.535  26.855  0.00  0.00    +0.000 OA
ATOM     16  C   UNL     1       6.782  -4.762  27.216  0.00  0.00    +0.000 C 
ATOM     17  C   UNL     1       5.470  -4.359  27.934  0.00  0.00    +0.000 C 
ATOM     18  C   UNL     1       6.469  -5.611  26.027  0.00  0.00    +0.000 C 
ATOM     19  C   UNL     1       5.999  -1.793  24.136  0.00  0.00    +0.000 C 
ENDROOT
BRANCH   1  23
ATOM     20  C   UNL     1       6.953   2.347  27.232  0.00  0.00    +0.000 A 
ATOM     21  C   UNL     1       7.562   2.533  25.882  0.00  0.00    +0.000 A 
ATOM     22  C   UNL     1       7.848   1.521  24.828  0.00  0.00    +0.000 A 
ATOM     23  C   UNL     1       7.112   0.137  25.233  0.00  0.00    +0.000 A 
ATOM     24  C   UNL     1       7.068  -0.210  26.711  0.00  0.00    +0.000 A 
ATOM     25  C   UNL     1       6.830   0.889  27.593  0.00  0.00    +0.000 A 
ENDBRANCH   1  23
TORSDOF 1
ENDMDL
MODEL 9
REMARK VINA RESULT:      -6.9      3.955      6.094
REMARK  Name = 
REMARK  2 active torsions:
REMARK  status: ('A' for Active; 'I' for Inactive)
REMARK    1  A    between atoms: C_7  and  C_8
REMARK    2  A    between atoms: C_34  and  C_36
REMARK                            x       y       z     vdW  Elec       q    Type
REMARK                         _______ _______ _______ _____ _____    ______ ____
ROOT
ATOM      1  C   UNL     1       6.939   0.860  22.824  0.00  0.00    +0.000 C 
ATOM      2  C   UNL     1       8.275   0.681  23.083  0.00  0.00    +0.000 A 
ATOM      3  C   UNL     1       8.776  -0.604  23.524  0.00  0.00    +0.000 A 
ATOM      4  C   UNL     1      10.109  -0.871  24.053  0.00  0.00    +0.000 A 
ATOM      5  C   UNL     1      10.789   0.485  24.158  0.00  0.00    +0.000 A 
ATOM      6  C   UNL     1      10.422   1.842  23.943  0.00  0.00    +0.000 A 
ATOM      7  C   UNL     1       8.950   1.837  23.856  0.00  0.00    +0.000 A 
ATOM      8  C   UNL     1       8.194   2.441  25.119  0.00  0.00    +0.000 C 
ATOM      9  N   UNL     1       6.963   2.636  24.589  0.00  0.00    +0.000 N 
ATOM     10  C   UNL     1       6.067   3.697  24.836  0.00  0.00    +0.000 C 
ATOM     11  O   UNL     1       5.582   3.370  26.006  0.00  0.00    +0.000 OA
ATOM     12  N   UNL     1       6.417   4.985  24.810  0.00  0.00    +0.000 N 
ATOM     13  C   UNL     1       7.463   5.529  23.943  0.00  0.00    +0.000 C 
ATOM     14  C   UNL     1       7.043   5.182  22.496  0.00  0.00    +0.000 C 
ATOM     15  O   UNL     1       5.729   4.899  22.506  0.00  0.00    +0.000 OA
ATOM     16  C   UNL     1       4.900   5.787  23.169  0.00  0.00    +0.000 C 
ATOM     17  C   UNL     1       3.491   5.230  22.850  0.00  0.00    +0.000 C 
ATOM     18  C   UNL     1       5.128   5.775  24.646  0.00  0.00    +0.000 C 
ATOM     19  C   UNL     1       6.338   1.741  23.853  0.00  0.00    +0.000 C 
ENDROOT
BRANCH   1  23
ATOM     20  C   UNL     1       6.508   0.173  18.765  0.00  0.00    +0.000 A 
ATOM     21  C   UNL     1       7.791  -0.062  19.490  0.00  0.00    +0.000 A 
ATOM     22  C   UNL     1       8.255   0.494  20.791  0.00  0.00    +0.000 A 
ATOM     23  C   UNL     1       7.001   1.216  21.517  0.00  0.00    +0.000 A 
ATOM     24  C   UNL     1       6.015   1.945  20.620  0.00  0.00    +0.000 A 
ATOM     25  C   UNL     1       5.714   1.295  19.383  0.00  0.00    +0.000 A 
ENDBRANCH   1  23
TORSDOF 1
ENDMDL
