MODEL 1
REMARK VINA RESULT:      -8.8      0.000      0.000
REMARK  Name = 
REMARK  6 active torsions:
REMARK  status: ('A' for Active; 'I' for Inactive)
REMARK    1  A    between atoms: C_7  and  N_8
REMARK    2  A    between atoms: N_8  and  N_10
REMARK    3  A    between atoms: N_10  and  N_12
REMARK    4  A    between atoms: C_14  and  C_16
REMARK    5  A    between atoms: C_34  and  N_35
REMARK    6  A    between atoms: C_43  and  C_45
REMARK                            x       y       z     vdW  Elec       q    Type
REMARK                         _______ _______ _______ _____ _____    ______ ____
ROOT
ATOM      1  N   UNL     1       6.047  -2.655  21.695  0.00  0.00    +0.000 N 
ATOM      2  O   UNL     1       5.535  -3.038  20.581  0.00  0.00    +0.000 OA
ENDROOT
BRANCH   1   6
ATOM      3  C   UNL     1       6.145  -6.179  22.920  0.00  0.00    +0.000 A 
ATOM      4  C   UNL     1       4.879  -5.341  23.041  0.00  0.00    +0.000 A 
ATOM      5  C   UNL     1       4.732  -3.852  23.052  0.00  0.00    +0.000 A 
ATOM      6  C   UNL     1       6.151  -3.370  22.554  0.00  0.00    +0.000 A 
ATOM      7  C   UNL     1       7.466  -3.880  22.811  0.00  0.00    +0.000 A 
ATOM      8  C   UNL     1       7.299  -5.399  22.489  0.00  0.00    +0.000 A 
BRANCH   7   9
ATOM      9  N   UNL     1       7.853  -3.658  24.101  0.00  0.00    +0.000 N 
ATOM     10  C   UNL     1       7.385  -2.491  24.854  0.00  0.00    +0.000 C 
ATOM     11  C   UNL     1       7.720  -2.629  26.320  0.00  0.00    +0.000 C 
ATOM     12  N   UNL     1       7.912  -4.071  26.596  0.00  0.00    +0.000 N 
ATOM     13  C   UNL     1       6.792  -4.852  26.475  0.00  0.00    +0.000 C 
ATOM     14  O   UNL     1       6.578  -5.417  25.424  0.00  0.00    +0.000 OA
ATOM     15  C   UNL     1       9.129  -4.622  25.980  0.00  0.00    +0.000 C 
ATOM     16  C   UNL     1       9.153  -4.195  24.515  0.00  0.00    +0.000 C 
BRANCH  13  17
ATOM     17  C   UNL     1       5.771  -4.748  27.559  0.00  0.00    +0.000 C 
ATOM     18 CL   UNL     1       4.269  -4.027  26.943  0.00  0.00    +0.000 Cl
ENDBRANCH  13  17
ENDBRANCH   7   9
ENDBRANCH   1   6
BRANCH   1  19
ATOM     19  N   UNL     1       6.113  -1.552  21.509  0.00  0.00    +0.000 N 
ATOM     20  H   UNL     1       6.599  -1.117  22.243  0.00  0.00    +0.000 HD
BRANCH  19  21
ATOM     21  N   UNL     1       6.079  -0.802  20.468  0.00  0.00    +0.000 N 
ATOM     22  H   UNL     1       5.838  -1.279  19.662  0.00  0.00    +0.000 HD
ATOM     23  C   UNL     1       7.330  -0.256  20.234  0.00  0.00    +0.000 C 
ATOM     24  O   UNL     1       7.480   0.355  19.189  0.00  0.00    +0.000 OA
BRANCH  23  25
ATOM     25  C   UNL     1       8.009   0.122  21.491  0.00  0.00    +0.000 C 
ATOM     26  S   UNL     1       8.057   1.937  21.685  0.00  0.00    +0.000 S 
ATOM     27  C   UNL     1       9.589   1.837  22.664  0.00  0.00    +0.000 C 
ATOM     28  C   UNL     1      10.084   0.521  22.592  0.00  0.00    +0.000 C 
ATOM     29  C   UNL     1       9.523  -0.276  21.366  0.00  0.00    +0.000 C 
ATOM     30  C   UNL     1      10.395  -0.572  23.764  0.00  0.00    +0.000 C 
ATOM     31  C   UNL     1      10.305   0.559  24.925  0.00  0.00    +0.000 C 
ATOM     32  C   UNL     1       9.119   1.472  24.899  0.00  0.00    +0.000 C 
ATOM     33  C   UNL     1       9.274   2.710  23.951  0.00  0.00    +0.000 C 
ENDBRANCH  23  25
ENDBRANCH  19  21
ENDBRANCH   1  19
TORSDOF 6
ENDMDL
MODEL 2
REMARK VINA RESULT:      -8.7      1.939      2.486
REMARK  Name = 
REMARK  6 active torsions:
REMARK  status: ('A' for Active; 'I' for Inactive)
REMARK    1  A    between atoms: C_7  and  N_8
REMARK    2  A    between atoms: N_8  and  N_10
REMARK    3  A    between atoms: N_10  and  N_12
REMARK    4  A    between atoms: C_14  and  C_16
REMARK    5  A    between atoms: C_34  and  N_35
REMARK    6  A    between atoms: C_43  and  C_45
REMARK                            x       y       z     vdW  Elec       q    Type
REMARK                         _______ _______ _______ _____ _____    ______ ____
ROOT
ATOM      1  N   UNL     1       6.019  -2.704  21.558  0.00  0.00    +0.000 N 
ATOM      2  O   UNL     1       5.548  -3.084  20.426  0.00  0.00    +0.000 OA
ENDROOT
BRANCH   1   6
ATOM      3  C   UNL     1       7.997  -5.282  23.394  0.00  0.00    +0.000 A 
ATOM      4  C   UNL     1       6.890  -5.683  22.428  0.00  0.00    +0.000 A 
ATOM      5  C   UNL     1       5.716  -4.885  21.956  0.00  0.00    +0.000 A 
ATOM      6  C   UNL     1       6.096  -3.423  22.417  0.00  0.00    +0.000 A 
ATOM      7  C   UNL     1       6.754  -2.946  23.598  0.00  0.00    +0.000 A 
ATOM      8  C   UNL     1       8.029  -3.847  23.651  0.00  0.00    +0.000 A 
BRANCH   7   9
ATOM      9  N   UNL     1       5.970  -3.083  24.707  0.00  0.00    +0.000 N 
ATOM     10  C   UNL     1       6.546  -3.352  26.027  0.00  0.00    +0.000 C 
ATOM     11  C   UNL     1       5.510  -3.176  27.111  0.00  0.00    +0.000 C 
ATOM     12  N   UNL     1       4.448  -2.299  26.568  0.00  0.00    +0.000 N 
ATOM     13  C   UNL     1       4.824  -1.006  26.305  0.00  0.00    +0.000 C 
ATOM     14  O   UNL     1       5.183  -0.713  25.186  0.00  0.00    +0.000 OA
ATOM     15  C   UNL     1       3.644  -2.943  25.518  0.00  0.00    +0.000 C 
ATOM     16  C   UNL     1       4.601  -3.567  24.506  0.00  0.00    +0.000 C 
BRANCH  13  17
ATOM     17  C   UNL     1       5.014  -0.103  27.479  0.00  0.00    +0.000 C 
ATOM     18 CL   UNL     1       6.734   0.277  27.708  0.00  0.00    +0.000 Cl
ENDBRANCH  13  17
ENDBRANCH   7   9
ENDBRANCH   1   6
BRANCH   1  19
ATOM     19  N   UNL     1       6.085  -1.600  21.380  0.00  0.00    +0.000 N 
ATOM     20  H   UNL     1       6.500  -1.160  22.154  0.00  0.00    +0.000 HD
BRANCH  19  21
ATOM     21  N   UNL     1       6.133  -0.848  20.341  0.00  0.00    +0.000 N 
ATOM     22  H   UNL     1       5.925  -1.318  19.521  0.00  0.00    +0.000 HD
ATOM     23  C   UNL     1       7.409  -0.338  20.180  0.00  0.00    +0.000 C 
ATOM     24  O   UNL     1       7.637   0.269  19.147  0.00  0.00    +0.000 OA
BRANCH  23  25
ATOM     25  C   UNL     1       8.026   0.019  21.475  0.00  0.00    +0.000 C 
ATOM     26  S   UNL     1       8.169   1.831  21.650  0.00  0.00    +0.000 S 
ATOM     27  C   UNL     1       9.625   1.658  22.730  0.00  0.00    +0.000 C 
ATOM     28  C   UNL     1      10.045   0.314  22.707  0.00  0.00    +0.000 C 
ATOM     29  C   UNL     1       9.519  -0.468  21.455  0.00  0.00    +0.000 C 
ATOM     30  C   UNL     1      10.212  -0.777  23.910  0.00  0.00    +0.000 C 
ATOM     31  C   UNL     1      10.113   0.376  25.049  0.00  0.00    +0.000 C 
ATOM     32  C   UNL     1       8.988   1.356  24.933  0.00  0.00    +0.000 C 
ATOM     33  C   UNL     1       9.278   2.568  23.982  0.00  0.00    +0.000 C 
ENDBRANCH  23  25
ENDBRANCH  19  21
ENDBRANCH   1  19
TORSDOF 6
ENDMDL
MODEL 3
REMARK VINA RESULT:      -8.3      1.642      2.671
REMARK  Name = 
REMARK  6 active torsions:
REMARK  status: ('A' for Active; 'I' for Inactive)
REMARK    1  A    between atoms: C_7  and  N_8
REMARK    2  A    between atoms: N_8  and  N_10
REMARK    3  A    between atoms: N_10  and  N_12
REMARK    4  A    between atoms: C_14  and  C_16
REMARK    5  A    between atoms: C_34  and  N_35
REMARK    6  A    between atoms: C_43  and  C_45
REMARK                            x       y       z     vdW  Elec       q    Type
REMARK                         _______ _______ _______ _____ _____    ______ ____
ROOT
ATOM      1  N   UNL     1       6.199  -2.695  22.007  0.00  0.00    +0.000 N 
ATOM      2  O   UNL     1       5.537  -3.350  21.123  0.00  0.00    +0.000 OA
ENDROOT
BRANCH   1   6
ATOM      3  C   UNL     1       8.164  -2.498  25.174  0.00  0.00    +0.000 A 
ATOM      4  C   UNL     1       8.810  -2.966  23.877  0.00  0.00    +0.000 A 
ATOM      5  C   UNL     1       8.165  -3.542  22.657  0.00  0.00    +0.000 A 
ATOM      6  C   UNL     1       6.639  -3.218  22.898  0.00  0.00    +0.000 A 
ATOM      7  C   UNL     1       5.849  -3.222  24.095  0.00  0.00    +0.000 A 
ATOM      8  C   UNL     1       6.717  -2.357  25.064  0.00  0.00    +0.000 A 
BRANCH   7   9
ATOM      9  N   UNL     1       5.646  -4.487  24.564  0.00  0.00    +0.000 N 
ATOM     10  C   UNL     1       6.076  -4.887  25.907  0.00  0.00    +0.000 C 
ATOM     11  C   UNL     1       5.487  -6.226  26.282  0.00  0.00    +0.000 C 
ATOM     12  N   UNL     1       4.288  -6.434  25.439  0.00  0.00    +0.000 N 
ATOM     13  C   UNL     1       3.243  -5.576  25.672  0.00  0.00    +0.000 C 
ATOM     14  O   UNL     1       3.141  -4.574  24.998  0.00  0.00    +0.000 OA
ATOM     15  C   UNL     1       4.607  -6.659  24.021  0.00  0.00    +0.000 C 
ATOM     16  C   UNL     1       5.578  -5.568  23.576  0.00  0.00    +0.000 C 
BRANCH  13  17
ATOM     17  C   UNL     1       2.447  -5.799  26.916  0.00  0.00    +0.000 C 
ATOM     18 CL   UNL     1       2.675  -4.457  28.058  0.00  0.00    +0.000 Cl
ENDBRANCH  13  17
ENDBRANCH   7   9
ENDBRANCH   1   6
BRANCH   1  19
ATOM     19  N   UNL     1       5.996  -1.648  21.664  0.00  0.00    +0.000 N 
ATOM     20  H   UNL     1       6.189  -1.014  22.390  0.00  0.00    +0.000 HD
BRANCH  19  21
ATOM     21  N   UNL     1       5.965  -1.053  20.528  0.00  0.00    +0.000 N 
ATOM     22  H   UNL     1       5.752  -1.645  19.793  0.00  0.00    +0.000 HD
ATOM     23  C   UNL     1       7.207  -0.512  20.240  0.00  0.00    +0.000 C 
ATOM     24  O   UNL     1       7.364  -0.050  19.122  0.00  0.00    +0.000 OA
BRANCH  23  25
ATOM     25  C   UNL     1       7.851   0.057  21.442  0.00  0.00    +0.000 C 
ATOM     26  S   UNL     1       7.423   1.821  21.637  0.00  0.00    +0.000 S 
ATOM     27  C   UNL     1       8.994   2.155  22.495  0.00  0.00    +0.000 C 
ATOM     28  C   UNL     1       9.818   1.020  22.382  0.00  0.00    +0.000 C 
ATOM     29  C   UNL     1       9.403   0.079  21.200  0.00  0.00    +0.000 C 
ATOM     30  C   UNL     1      10.499   0.072  23.524  0.00  0.00    +0.000 C 
ATOM     31  C   UNL     1      10.194   1.158  24.691  0.00  0.00    +0.000 C 
ATOM     32  C   UNL     1       8.807   1.717  24.759  0.00  0.00    +0.000 C 
ATOM     33  C   UNL     1       8.552   2.934  23.805  0.00  0.00    +0.000 C 
ENDBRANCH  23  25
ENDBRANCH  19  21
ENDBRANCH   1  19
TORSDOF 6
ENDMDL
MODEL 4
REMARK VINA RESULT:      -8.1      1.585      2.159
REMARK  Name = 
REMARK  6 active torsions:
REMARK  status: ('A' for Active; 'I' for Inactive)
REMARK    1  A    between atoms: C_7  and  N_8
REMARK    2  A    between atoms: N_8  and  N_10
REMARK    3  A    between atoms: N_10  and  N_12
REMARK    4  A    between atoms: C_14  and  C_16
REMARK    5  A    between atoms: C_34  and  N_35
REMARK    6  A    between atoms: C_43  and  C_45
REMARK                            x       y       z     vdW  Elec       q    Type
REMARK                         _______ _______ _______ _____ _____    ______ ____
ROOT
ATOM      1  N   UNL     1       6.044  -2.864  21.505  0.00  0.00    +0.000 N 
ATOM      2  O   UNL     1       5.569  -3.137  20.344  0.00  0.00    +0.000 OA
ENDROOT
BRANCH   1   6
ATOM      3  C   UNL     1       8.064  -5.447  23.287  0.00  0.00    +0.000 A 
ATOM      4  C   UNL     1       7.086  -5.837  22.186  0.00  0.00    +0.000 A 
ATOM      5  C   UNL     1       5.895  -5.089  21.676  0.00  0.00    +0.000 A 
ATOM      6  C   UNL     1       6.105  -3.654  22.300  0.00  0.00    +0.000 A 
ATOM      7  C   UNL     1       6.612  -3.244  23.577  0.00  0.00    +0.000 A 
ATOM      8  C   UNL     1       7.949  -4.045  23.673  0.00  0.00    +0.000 A 
BRANCH   7   9
ATOM      9  N   UNL     1       5.746  -3.548  24.588  0.00  0.00    +0.000 N 
ATOM     10  C   UNL     1       4.317  -3.238  24.495  0.00  0.00    +0.000 C 
ATOM     11  C   UNL     1       3.547  -3.922  25.599  0.00  0.00    +0.000 C 
ATOM     12  N   UNL     1       4.363  -5.067  26.063  0.00  0.00    +0.000 N 
ATOM     13  C   UNL     1       4.538  -6.079  25.154  0.00  0.00    +0.000 C 
ATOM     14  O   UNL     1       5.528  -6.078  24.455  0.00  0.00    +0.000 OA
ATOM     15  C   UNL     1       5.578  -4.658  26.785  0.00  0.00    +0.000 C 
ATOM     16  C   UNL     1       6.292  -3.601  25.947  0.00  0.00    +0.000 C 
BRANCH  13  17
ATOM     17  C   UNL     1       3.370  -6.973  24.901  0.00  0.00    +0.000 C 
ATOM     18 CL   UNL     1       2.569  -6.547  23.374  0.00  0.00    +0.000 Cl
ENDBRANCH  13  17
ENDBRANCH   7   9
ENDBRANCH   1   6
BRANCH   1  19
ATOM     19  N   UNL     1       6.131  -1.749  21.421  0.00  0.00    +0.000 N 
ATOM     20  H   UNL     1       6.710  -1.404  22.137  0.00  0.00    +0.000 HD
BRANCH  19  21
ATOM     21  N   UNL     1       6.015  -0.898  20.469  0.00  0.00    +0.000 N 
ATOM     22  H   UNL     1       5.765  -1.301  19.625  0.00  0.00    +0.000 HD
ATOM     23  C   UNL     1       7.225  -0.262  20.249  0.00  0.00    +0.000 C 
ATOM     24  O   UNL     1       7.300   0.463  19.270  0.00  0.00    +0.000 OA
BRANCH  23  25
ATOM     25  C   UNL     1       7.936   0.020  21.514  0.00  0.00    +0.000 C 
ATOM     26  S   UNL     1       8.214   1.813  21.718  0.00  0.00    +0.000 S 
ATOM     27  C   UNL     1       9.713   1.513  22.709  0.00  0.00    +0.000 C 
ATOM     28  C   UNL     1      10.036   0.145  22.634  0.00  0.00    +0.000 C 
ATOM     29  C   UNL     1       9.388  -0.568  21.398  0.00  0.00    +0.000 C 
ATOM     30  C   UNL     1      10.194  -0.985  23.801  0.00  0.00    +0.000 C 
ATOM     31  C   UNL     1      10.240   0.143  24.968  0.00  0.00    +0.000 C 
ATOM     32  C   UNL     1       9.180   1.200  24.938  0.00  0.00    +0.000 C 
ATOM     33  C   UNL     1       9.501   2.413  23.998  0.00  0.00    +0.000 C 
ENDBRANCH  23  25
ENDBRANCH  19  21
ENDBRANCH   1  19
TORSDOF 6
ENDMDL
MODEL 5
REMARK VINA RESULT:      -8.1      1.770      2.988
REMARK  Name = 
REMARK  6 active torsions:
REMARK  status: ('A' for Active; 'I' for Inactive)
REMARK    1  A    between atoms: C_7  and  N_8
REMARK    2  A    between atoms: N_8  and  N_10
REMARK    3  A    between atoms: N_10  and  N_12
REMARK    4  A    between atoms: C_14  and  C_16
REMARK    5  A    between atoms: C_34  and  N_35
REMARK    6  A    between atoms: C_43  and  C_45
REMARK                            x       y       z     vdW  Elec       q    Type
REMARK                         _______ _______ _______ _____ _____    ______ ____
ROOT
ATOM      1  N   UNL     1       7.186  -2.055  22.441  0.00  0.00    +0.000 N 
ATOM      2  O   UNL     1       6.715  -3.081  21.829  0.00  0.00    +0.000 OA
ENDROOT
BRANCH   1   6
ATOM      3  C   UNL     1       9.209  -0.481  25.154  0.00  0.00    +0.000 A 
ATOM      4  C   UNL     1       9.870  -1.011  23.888  0.00  0.00    +0.000 A 
ATOM      5  C   UNL     1       9.370  -2.040  22.924  0.00  0.00    +0.000 A 
ATOM      6  C   UNL     1       7.852  -2.178  23.337  0.00  0.00    +0.000 A 
ATOM      7  C   UNL     1       7.216  -2.150  24.621  0.00  0.00    +0.000 A 
ATOM      8  C   UNL     1       7.801  -0.846  25.250  0.00  0.00    +0.000 A 
BRANCH   7   9
ATOM      9  N   UNL     1       7.508  -3.262  25.357  0.00  0.00    +0.000 N 
ATOM     10  C   UNL     1       7.144  -3.365  26.772  0.00  0.00    +0.000 C 
ATOM     11  C   UNL     1       7.318  -4.779  27.270  0.00  0.00    +0.000 C 
ATOM     12  N   UNL     1       7.276  -5.672  26.089  0.00  0.00    +0.000 N 
ATOM     13  C   UNL     1       6.072  -5.735  25.436  0.00  0.00    +0.000 C 
ATOM     14  O   UNL     1       5.879  -5.009  24.485  0.00  0.00    +0.000 OA
ATOM     15  C   UNL     1       8.454  -5.537  25.218  0.00  0.00    +0.000 C 
ATOM     16  C   UNL     1       8.674  -4.051  24.948  0.00  0.00    +0.000 C 
BRANCH  13  17
ATOM     17  C   UNL     1       4.980  -6.508  26.099  0.00  0.00    +0.000 C 
ATOM     18 CL   UNL     1       3.938  -7.289  24.891  0.00  0.00    +0.000 Cl
ENDBRANCH  13  17
ENDBRANCH   7   9
ENDBRANCH   1   6
BRANCH   1  19
ATOM     19  N   UNL     1       6.608  -1.242  21.931  0.00  0.00    +0.000 N 
ATOM     20  H   UNL     1       6.394  -0.530  22.573  0.00  0.00    +0.000 HD
BRANCH  19  21
ATOM     21  N   UNL     1       6.501  -0.823  20.723  0.00  0.00    +0.000 N 
ATOM     22  H   UNL     1       6.734  -1.494  20.065  0.00  0.00    +0.000 HD
ATOM     23  C   UNL     1       7.361   0.241  20.511  0.00  0.00    +0.000 C 
ATOM     24  O   UNL     1       7.476   0.639  19.363  0.00  0.00    +0.000 OA
BRANCH  23  25
ATOM     25  C   UNL     1       7.425   1.138  21.683  0.00  0.00    +0.000 C 
ATOM     26  S   UNL     1       6.166   2.456  21.564  0.00  0.00    +0.000 S 
ATOM     27  C   UNL     1       7.199   3.593  22.542  0.00  0.00    +0.000 C 
ATOM     28  C   UNL     1       8.477   3.023  22.695  0.00  0.00    +0.000 C 
ATOM     29  C   UNL     1       8.785   1.922  21.623  0.00  0.00    +0.000 C 
ATOM     30  C   UNL     1       9.321   2.627  24.035  0.00  0.00    +0.000 C 
ATOM     31  C   UNL     1       8.328   3.490  24.987  0.00  0.00    +0.000 C 
ATOM     32  C   UNL     1       6.856   3.278  24.808  0.00  0.00    +0.000 C 
ATOM     33  C   UNL     1       6.213   4.132  23.662  0.00  0.00    +0.000 C 
ENDBRANCH  23  25
ENDBRANCH  19  21
ENDBRANCH   1  19
TORSDOF 6
ENDMDL
MODEL 6
REMARK VINA RESULT:      -8.0      3.321      7.074
REMARK  Name = 
REMARK  6 active torsions:
REMARK  status: ('A' for Active; 'I' for Inactive)
REMARK    1  A    between atoms: C_7  and  N_8
REMARK    2  A    between atoms: N_8  and  N_10
REMARK    3  A    between atoms: N_10  and  N_12
REMARK    4  A    between atoms: C_14  and  C_16
REMARK    5  A    between atoms: C_34  and  N_35
REMARK    6  A    between atoms: C_43  and  C_45
REMARK                            x       y       z     vdW  Elec       q    Type
REMARK                         _______ _______ _______ _____ _____    ______ ____
ROOT
ATOM      1  N   UNL     1       8.172  -5.306  24.762  0.00  0.00    +0.000 N 
ATOM      2  O   UNL     1       9.422  -5.500  24.978  0.00  0.00    +0.000 OA
ENDROOT
BRANCH   1   6
ATOM      3  C   UNL     1       5.360  -3.971  22.703  0.00  0.00    +0.000 A 
ATOM      4  C   UNL     1       6.163  -5.181  22.245  0.00  0.00    +0.000 A 
ATOM      5  C   UNL     1       7.546  -5.596  22.634  0.00  0.00    +0.000 A 
ATOM      6  C   UNL     1       7.830  -4.684  23.892  0.00  0.00    +0.000 A 
ATOM      7  C   UNL     1       7.474  -3.325  24.173  0.00  0.00    +0.000 A 
ATOM      8  C   UNL     1       5.942  -3.317  23.870  0.00  0.00    +0.000 A 
BRANCH   7   9
ATOM      9  N   UNL     1       8.166  -2.446  23.390  0.00  0.00    +0.000 N 
ATOM     10  C   UNL     1       7.698  -2.076  22.051  0.00  0.00    +0.000 C 
ATOM     11  C   UNL     1       8.473  -0.894  21.520  0.00  0.00    +0.000 C 
ATOM     12  N   UNL     1       9.048  -0.183  22.684  0.00  0.00    +0.000 N 
ATOM     13  C   UNL     1       8.141   0.411  23.524  0.00  0.00    +0.000 C 
ATOM     14  O   UNL     1       7.755  -0.195  24.500  0.00  0.00    +0.000 OA
ATOM     15  C   UNL     1      10.118  -0.938  23.354  0.00  0.00    +0.000 C 
ATOM     16  C   UNL     1       9.614  -2.358  23.597  0.00  0.00    +0.000 C 
BRANCH  13  17
ATOM     17  C   UNL     1       7.489   1.664  23.040  0.00  0.00    +0.000 C 
ATOM     18 CL   UNL     1       8.598   2.594  22.010  0.00  0.00    +0.000 Cl
ENDBRANCH  13  17
ENDBRANCH   7   9
ENDBRANCH   1   6
BRANCH   1  19
ATOM     19  N   UNL     1       7.743  -5.743  25.701  0.00  0.00    +0.000 N 
ATOM     20  H   UNL     1       7.430  -6.659  25.531  0.00  0.00    +0.000 HD
BRANCH  19  21
ATOM     21  N   UNL     1       7.903  -5.535  26.957  0.00  0.00    +0.000 N 
ATOM     22  H   UNL     1       8.613  -6.067  27.344  0.00  0.00    +0.000 HD
ATOM     23  C   UNL     1       6.750  -5.870  27.645  0.00  0.00    +0.000 C 
ATOM     24  O   UNL     1       6.813  -5.867  28.864  0.00  0.00    +0.000 OA
BRANCH  23  25
ATOM     25  C   UNL     1       5.533  -5.481  26.902  0.00  0.00    +0.000 C 
ATOM     26  S   UNL     1       4.457  -4.419  27.926  0.00  0.00    +0.000 S 
ATOM     27  C   UNL     1       2.971  -5.001  27.049  0.00  0.00    +0.000 C 
ATOM     28  C   UNL     1       3.329  -6.090  26.231  0.00  0.00    +0.000 C 
ATOM     29  C   UNL     1       4.668  -6.772  26.675  0.00  0.00    +0.000 C 
ATOM     30  C   UNL     1       3.200  -6.307  24.618  0.00  0.00    +0.000 C 
ATOM     31  C   UNL     1       2.195  -5.041  24.469  0.00  0.00    +0.000 C 
ATOM     32  C   UNL     1       2.606  -3.762  25.130  0.00  0.00    +0.000 C 
ATOM     33  C   UNL     1       2.220  -3.663  26.646  0.00  0.00    +0.000 C 
ENDBRANCH  23  25
ENDBRANCH  19  21
ENDBRANCH   1  19
TORSDOF 6
ENDMDL
MODEL 7
REMARK VINA RESULT:      -7.9      2.185      3.731
REMARK  Name = 
REMARK  6 active torsions:
REMARK  status: ('A' for Active; 'I' for Inactive)
REMARK    1  A    between atoms: C_7  and  N_8
REMARK    2  A    between atoms: N_8  and  N_10
REMARK    3  A    between atoms: N_10  and  N_12
REMARK    4  A    between atoms: C_14  and  C_16
REMARK    5  A    between atoms: C_34  and  N_35
REMARK    6  A    between atoms: C_43  and  C_45
REMARK                            x       y       z     vdW  Elec       q    Type
REMARK                         _______ _______ _______ _____ _____    ______ ____
ROOT
ATOM      1  N   UNL     1       8.874  -2.645  23.569  0.00  0.00    +0.000 N 
ATOM      2  O   UNL     1      10.141  -2.636  23.357  0.00  0.00    +0.000 OA
ENDROOT
BRANCH   1   6
ATOM      3  C   UNL     1       7.572  -3.808  26.868  0.00  0.00    +0.000 A 
ATOM      4  C   UNL     1       8.961  -4.207  26.387  0.00  0.00    +0.000 A 
ATOM      5  C   UNL     1       9.498  -4.255  24.992  0.00  0.00    +0.000 A 
ATOM      6  C   UNL     1       8.401  -3.458  24.182  0.00  0.00    +0.000 A 
ATOM      7  C   UNL     1       6.974  -3.418  24.311  0.00  0.00    +0.000 A 
ATOM      8  C   UNL     1       6.790  -3.136  25.836  0.00  0.00    +0.000 A 
BRANCH   7   9
ATOM      9  N   UNL     1       6.396  -4.592  23.923  0.00  0.00    +0.000 N 
ATOM     10  C   UNL     1       5.879  -5.554  24.899  0.00  0.00    +0.000 C 
ATOM     11  C   UNL     1       5.047  -6.615  24.220  0.00  0.00    +0.000 C 
ATOM     12  N   UNL     1       4.590  -6.057  22.926  0.00  0.00    +0.000 N 
ATOM     13  C   UNL     1       3.716  -5.004  23.010  0.00  0.00    +0.000 C 
ATOM     14  O   UNL     1       4.150  -3.872  22.971  0.00  0.00    +0.000 OA
ATOM     15  C   UNL     1       5.679  -5.890  21.950  0.00  0.00    +0.000 C 
ATOM     16  C   UNL     1       6.828  -5.163  22.644  0.00  0.00    +0.000 C 
BRANCH  13  17
ATOM     17  C   UNL     1       2.311  -5.319  23.406  0.00  0.00    +0.000 C 
ATOM     18 CL   UNL     1       1.746  -6.796  22.598  0.00  0.00    +0.000 Cl
ENDBRANCH  13  17
ENDBRANCH   7   9
ENDBRANCH   1   6
BRANCH   1  19
ATOM     19  N   UNL     1       8.556  -1.823  22.877  0.00  0.00    +0.000 N 
ATOM     20  H   UNL     1       8.926  -0.965  23.183  0.00  0.00    +0.000 HD
BRANCH  19  21
ATOM     21  N   UNL     1       8.196  -1.758  21.647  0.00  0.00    +0.000 N 
ATOM     22  H   UNL     1       8.624  -2.423  21.089  0.00  0.00    +0.000 HD
ATOM     23  C   UNL     1       8.540  -0.527  21.115  0.00  0.00    +0.000 C 
ATOM     24  O   UNL     1       8.396  -0.385  19.911  0.00  0.00    +0.000 OA
BRANCH  23  25
ATOM     25  C   UNL     1       8.334   0.569  22.084  0.00  0.00    +0.000 C 
ATOM     26  S   UNL     1       6.926   1.620  21.587  0.00  0.00    +0.000 S 
ATOM     27  C   UNL     1       7.661   3.070  22.409  0.00  0.00    +0.000 C 
ATOM     28  C   UNL     1       8.978   2.752  22.791  0.00  0.00    +0.000 C 
ATOM     29  C   UNL     1       9.567   1.537  21.995  0.00  0.00    +0.000 C 
ATOM     30  C   UNL     1       9.699   2.751  24.256  0.00  0.00    +0.000 C 
ATOM     31  C   UNL     1       8.485   3.602  24.919  0.00  0.00    +0.000 C 
ATOM     32  C   UNL     1       7.091   3.126  24.650  0.00  0.00    +0.000 C 
ATOM     33  C   UNL     1       6.479   3.639  23.302  0.00  0.00    +0.000 C 
ENDBRANCH  23  25
ENDBRANCH  19  21
ENDBRANCH   1  19
TORSDOF 6
ENDMDL
MODEL 8
REMARK VINA RESULT:      -7.6      2.602      3.659
REMARK  Name = 
REMARK  6 active torsions:
REMARK  status: ('A' for Active; 'I' for Inactive)
REMARK    1  A    between atoms: C_7  and  N_8
REMARK    2  A    between atoms: N_8  and  N_10
REMARK    3  A    between atoms: N_10  and  N_12
REMARK    4  A    between atoms: C_14  and  C_16
REMARK    5  A    between atoms: C_34  and  N_35
REMARK    6  A    between atoms: C_43  and  C_45
REMARK                            x       y       z     vdW  Elec       q    Type
REMARK                         _______ _______ _______ _____ _____    ______ ____
ROOT
ATOM      1  N   UNL     1       7.818  -2.532  24.932  0.00  0.00    +0.000 N 
ATOM      2  O   UNL     1       8.215  -2.481  26.151  0.00  0.00    +0.000 OA
ENDROOT
BRANCH   1   6
ATOM      3  C   UNL     1       5.864  -4.485  22.423  0.00  0.00    +0.000 A 
ATOM      4  C   UNL     1       5.629  -2.992  22.611  0.00  0.00    +0.000 A 
ATOM      5  C   UNL     1       5.932  -2.133  23.798  0.00  0.00    +0.000 A 
ATOM      6  C   UNL     1       6.869  -3.067  24.659  0.00  0.00    +0.000 A 
ATOM      7  C   UNL     1       6.839  -4.481  24.892  0.00  0.00    +0.000 A 
ATOM      8  C   UNL     1       6.742  -5.050  23.440  0.00  0.00    +0.000 A 
BRANCH   7   9
ATOM      9  N   UNL     1       5.777  -4.845  25.668  0.00  0.00    +0.000 N 
ATOM     10  C   UNL     1       5.261  -6.217  25.671  0.00  0.00    +0.000 C 
ATOM     11  C   UNL     1       4.289  -6.422  26.807  0.00  0.00    +0.000 C 
ATOM     12  N   UNL     1       4.576  -5.388  27.827  0.00  0.00    +0.000 N 
ATOM     13  C   UNL     1       5.790  -5.494  28.454  0.00  0.00    +0.000 C 
ATOM     14  O   UNL     1       6.733  -4.865  28.025  0.00  0.00    +0.000 OA
ATOM     15  C   UNL     1       4.213  -4.029  27.393  0.00  0.00    +0.000 C 
ATOM     16  C   UNL     1       4.801  -3.804  26.003  0.00  0.00    +0.000 C 
BRANCH  13  17
ATOM     17  C   UNL     1       5.936  -6.580  29.469  0.00  0.00    +0.000 C 
ATOM     18 CL   UNL     1       4.549  -6.596  30.578  0.00  0.00    +0.000 Cl
ENDBRANCH  13  17
ENDBRANCH   7   9
ENDBRANCH   1   6
BRANCH   1  19
ATOM     19  N   UNL     1       8.716  -2.101  24.417  0.00  0.00    +0.000 N 
ATOM     20  H   UNL     1       9.114  -1.395  24.973  0.00  0.00    +0.000 HD
BRANCH  19  21
ATOM     21  N   UNL     1       9.551  -2.525  23.540  0.00  0.00    +0.000 N 
ATOM     22  H   UNL     1      10.257  -3.069  23.917  0.00  0.00    +0.000 HD
ATOM     23  C   UNL     1      10.176  -1.456  22.922  0.00  0.00    +0.000 C 
ATOM     24  O   UNL     1      11.105  -1.714  22.174  0.00  0.00    +0.000 OA
BRANCH  23  25
ATOM     25  C   UNL     1       9.241  -0.335  22.685  0.00  0.00    +0.000 C 
ATOM     26  S   UNL     1       8.269  -0.608  21.164  0.00  0.00    +0.000 S 
ATOM     27  C   UNL     1       8.096   1.185  20.898  0.00  0.00    +0.000 C 
ATOM     28  C   UNL     1       8.943   1.857  21.800  0.00  0.00    +0.000 C 
ATOM     29  C   UNL     1      10.090   0.945  22.356  0.00  0.00    +0.000 C 
ATOM     30  C   UNL     1       8.616   2.963  22.956  0.00  0.00    +0.000 C 
ATOM     31  C   UNL     1       7.127   3.226  22.366  0.00  0.00    +0.000 C 
ATOM     32  C   UNL     1       6.287   2.023  22.071  0.00  0.00    +0.000 C 
ATOM     33  C   UNL     1       6.541   1.385  20.662  0.00  0.00    +0.000 C 
ENDBRANCH  23  25
ENDBRANCH  19  21
ENDBRANCH   1  19
TORSDOF 6
ENDMDL
MODEL 9
REMARK VINA RESULT:      -7.5      2.115      3.131
REMARK  Name = 
REMARK  6 active torsions:
REMARK  status: ('A' for Active; 'I' for Inactive)
REMARK    1  A    between atoms: C_7  and  N_8
REMARK    2  A    between atoms: N_8  and  N_10
REMARK    3  A    between atoms: N_10  and  N_12
REMARK    4  A    between atoms: C_14  and  C_16
REMARK    5  A    between atoms: C_34  and  N_35
REMARK    6  A    between atoms: C_43  and  C_45
REMARK                            x       y       z     vdW  Elec       q    Type
REMARK                         _______ _______ _______ _____ _____    ______ ____
ROOT
ATOM      1  N   UNL     1       7.106  -3.416  23.045  0.00  0.00    +0.000 N 
ATOM      2  O   UNL     1       7.325  -4.084  21.971  0.00  0.00    +0.000 OA
ENDROOT
BRANCH   1   6
ATOM      3  C   UNL     1       8.703  -4.008  26.366  0.00  0.00    +0.000 A 
ATOM      4  C   UNL     1       8.861  -5.009  25.229  0.00  0.00    +0.000 A 
ATOM      5  C   UNL     1       7.992  -5.219  24.030  0.00  0.00    +0.000 A 
ATOM      6  C   UNL     1       7.082  -3.928  24.045  0.00  0.00    +0.000 A 
ATOM      7  C   UNL     1       6.500  -3.194  25.130  0.00  0.00    +0.000 A 
ATOM      8  C   UNL     1       7.727  -2.966  26.068  0.00  0.00    +0.000 A 
BRANCH   7   9
ATOM      9  N   UNL     1       5.499  -3.896  25.738  0.00  0.00    +0.000 N 
ATOM     10  C   UNL     1       5.473  -4.094  27.189  0.00  0.00    +0.000 C 
ATOM     11  C   UNL     1       4.138  -4.644  27.631  0.00  0.00    +0.000 C 
ATOM     12  N   UNL     1       3.150  -4.304  26.582  0.00  0.00    +0.000 N 
ATOM     13  C   UNL     1       2.883  -2.968  26.430  0.00  0.00    +0.000 C 
ATOM     14  O   UNL     1       3.496  -2.335  25.597  0.00  0.00    +0.000 OA
ATOM     15  C   UNL     1       3.356  -5.047  25.329  0.00  0.00    +0.000 C 
ATOM     16  C   UNL     1       4.829  -4.933  24.948  0.00  0.00    +0.000 C 
BRANCH  13  17
ATOM     17  C   UNL     1       2.040  -2.321  27.479  0.00  0.00    +0.000 C 
ATOM     18 CL   UNL     1       3.020  -1.252  28.504  0.00  0.00    +0.000 Cl
ENDBRANCH  13  17
ENDBRANCH   7   9
ENDBRANCH   1   6
BRANCH   1  19
ATOM     19  N   UNL     1       6.823  -2.426  22.603  0.00  0.00    +0.000 N 
ATOM     20  H   UNL     1       7.524  -1.763  22.790  0.00  0.00    +0.000 HD
BRANCH  19  21
ATOM     21  N   UNL     1       6.071  -2.043  21.636  0.00  0.00    +0.000 N 
ATOM     22  H   UNL     1       5.843  -2.758  21.025  0.00  0.00    +0.000 HD
ATOM     23  C   UNL     1       6.720  -1.081  20.881  0.00  0.00    +0.000 C 
ATOM     24  O   UNL     1       6.182  -0.740  19.840  0.00  0.00    +0.000 OA
BRANCH  23  25
ATOM     25  C   UNL     1       7.500  -0.152  21.726  0.00  0.00    +0.000 C 
ATOM     26  S   UNL     1       6.915   1.565  21.516  0.00  0.00    +0.000 S 
ATOM     27  C   UNL     1       8.566   2.223  21.912  0.00  0.00    +0.000 C 
ATOM     28  C   UNL     1       9.481   1.154  21.946  0.00  0.00    +0.000 C 
ATOM     29  C   UNL     1       8.970  -0.111  21.175  0.00  0.00    +0.000 C 
ATOM     30  C   UNL     1      10.458   0.617  23.139  0.00  0.00    +0.000 C 
ATOM     31  C   UNL     1      10.246   1.975  24.004  0.00  0.00    +0.000 C 
ATOM     32  C   UNL     1       8.838   2.448  24.198  0.00  0.00    +0.000 C 
ATOM     33  C   UNL     1       8.280   3.320  23.021  0.00  0.00    +0.000 C 
ENDBRANCH  23  25
ENDBRANCH  19  21
ENDBRANCH   1  19
TORSDOF 6
ENDMDL
