MODEL 1
REMARK VINA RESULT:      -8.6      0.000      0.000
REMARK  Name = 
REMARK  5 active torsions:
REMARK  status: ('A' for Active; 'I' for Inactive)
REMARK    1  A    between atoms: C_7  and  C_8
REMARK    2  A    between atoms: C_24  and  C_26
REMARK    3  A    between atoms: C_26  and  C_29
REMARK    4  A    between atoms: C_38  and  N_39
REMARK    5  A    between atoms: C_47  and  C_49
REMARK                            x       y       z     vdW  Elec       q    Type
REMARK                         _______ _______ _______ _____ _____    ______ ____
ROOT
ATOM      1  C   UNL     1       9.806   1.185  22.515  0.00  0.00    +0.000 C 
ATOM      2  C   UNL     1       8.629   1.162  21.842  0.00  0.00    +0.000 A 
ATOM      3  C   UNL     1       7.397   1.640  22.174  0.00  0.00    +0.000 A 
ATOM      4  C   UNL     1       6.186   1.561  21.364  0.00  0.00    +0.000 A 
ATOM      5  C   UNL     1       6.536   0.889  20.050  0.00  0.00    +0.000 A 
ATOM      6  C   UNL     1       7.731   0.234  19.547  0.00  0.00    +0.000 A 
ATOM      7  C   UNL     1       8.635   0.062  20.694  0.00  0.00    +0.000 A 
ATOM      8  C   UNL     1       8.836  -1.395  21.220  0.00  0.00    +0.000 C 
ATOM      9  N   UNL     1       9.767  -1.312  22.158  0.00  0.00    +0.000 N 
ATOM     10  C   UNL     1       9.517  -1.770  23.539  0.00  0.00    +0.000 C 
ATOM     11  O   UNL     1       9.448  -0.991  24.447  0.00  0.00    +0.000 OA
ATOM     12  C   UNL     1      10.420  -0.175  22.339  0.00  0.00    +0.000 C 
ENDROOT
BRANCH   1  16
ATOM     13  C   UNL     1       9.086   4.629  24.150  0.00  0.00    +0.000 A 
ATOM     14  C   UNL     1      10.419   4.307  23.535  0.00  0.00    +0.000 A 
ATOM     15  C   UNL     1      11.088   3.019  23.473  0.00  0.00    +0.000 A 
ATOM     16  C   UNL     1      10.075   1.839  23.776  0.00  0.00    +0.000 A 
ATOM     17  C   UNL     1       8.968   2.069  24.789  0.00  0.00    +0.000 A 
ATOM     18  C   UNL     1       8.552   3.549  24.983  0.00  0.00    +0.000 A 
ENDBRANCH   1  16
BRANCH  10  19
ATOM     19  C   UNL     1       8.744  -2.980  23.629  0.00  0.00    +0.000 C 
BRANCH  19  20
ATOM     20  C   UNL     1       7.399  -3.010  24.298  0.00  0.00    +0.000 A 
ATOM     21  C   UNL     1       6.515  -1.857  23.778  0.00  0.00    +0.000 A 
ATOM     22  C   UNL     1       6.077  -0.671  24.592  0.00  0.00    +0.000 A 
ATOM     23  C   UNL     1       6.753  -0.833  25.886  0.00  0.00    +0.000 A 
ATOM     24  C   UNL     1       7.285  -1.820  26.677  0.00  0.00    +0.000 A 
ATOM     25  C   UNL     1       7.282  -3.133  25.780  0.00  0.00    +0.000 A 
BRANCH  25  26
ATOM     26  N   UNL     1       6.359  -4.065  26.325  0.00  0.00    +0.000 N 
ATOM     27  C   UNL     1       5.857  -5.024  25.357  0.00  0.00    +0.000 C 
ATOM     28  C   UNL     1       5.144  -6.210  25.973  0.00  0.00    +0.000 C 
ATOM     29  N   UNL     1       4.626  -5.860  27.283  0.00  0.00    +0.000 N 
ATOM     30  C   UNL     1       4.769  -6.715  28.304  0.00  0.00    +0.000 C 
ATOM     31  O   UNL     1       5.842  -7.272  28.502  0.00  0.00    +0.000 OA
ATOM     32  C   UNL     1       4.251  -4.475  27.495  0.00  0.00    +0.000 C 
ATOM     33  C   UNL     1       5.469  -3.578  27.363  0.00  0.00    +0.000 C 
BRANCH  30  34
ATOM     34  C   UNL     1       3.546  -7.107  29.082  0.00  0.00    +0.000 C 
ATOM     35 CL   UNL     1       2.148  -7.265  27.999  0.00  0.00    +0.000 Cl
ENDBRANCH  30  34
ENDBRANCH  25  26
ENDBRANCH  19  20
ENDBRANCH  10  19
TORSDOF 5
ENDMDL
MODEL 2
REMARK VINA RESULT:      -8.5      1.484      2.340
REMARK  Name = 
REMARK  5 active torsions:
REMARK  status: ('A' for Active; 'I' for Inactive)
REMARK    1  A    between atoms: C_7  and  C_8
REMARK    2  A    between atoms: C_24  and  C_26
REMARK    3  A    between atoms: C_26  and  C_29
REMARK    4  A    between atoms: C_38  and  N_39
REMARK    5  A    between atoms: C_47  and  C_49
REMARK                            x       y       z     vdW  Elec       q    Type
REMARK                         _______ _______ _______ _____ _____    ______ ____
ROOT
ATOM      1  C   UNL     1       7.681   2.000  22.056  0.00  0.00    +0.000 C 
ATOM      2  C   UNL     1       7.057   1.614  20.916  0.00  0.00    +0.000 A 
ATOM      3  C   UNL     1       5.834   1.940  20.408  0.00  0.00    +0.000 A 
ATOM      4  C   UNL     1       5.256   1.460  19.157  0.00  0.00    +0.000 A 
ATOM      5  C   UNL     1       6.272   0.560  18.479  0.00  0.00    +0.000 A 
ATOM      6  C   UNL     1       7.557   0.017  18.883  0.00  0.00    +0.000 A 
ATOM      7  C   UNL     1       7.697   0.286  20.321  0.00  0.00    +0.000 A 
ATOM      8  C   UNL     1       7.600  -0.945  21.280  0.00  0.00    +0.000 C 
ATOM      9  N   UNL     1       7.874  -0.478  22.489  0.00  0.00    +0.000 N 
ATOM     10  C   UNL     1       6.922  -0.623  23.608  0.00  0.00    +0.000 C 
ATOM     11  O   UNL     1       6.361   0.329  24.072  0.00  0.00    +0.000 OA
ATOM     12  C   UNL     1       8.309   0.763  22.633  0.00  0.00    +0.000 C 
ENDROOT
BRANCH   1  16
ATOM     13  C   UNL     1       8.868   5.423  23.442  0.00  0.00    +0.000 A 
ATOM     14  C   UNL     1       9.089   4.143  24.198  0.00  0.00    +0.000 A 
ATOM     15  C   UNL     1       8.245   2.961  24.220  0.00  0.00    +0.000 A 
ATOM     16  C   UNL     1       7.215   2.976  23.016  0.00  0.00    +0.000 A 
ATOM     17  C   UNL     1       6.643   4.307  22.562  0.00  0.00    +0.000 A 
ATOM     18  C   UNL     1       7.522   5.543  22.877  0.00  0.00    +0.000 A 
ENDBRANCH   1  16
BRANCH  10  19
ATOM     19  C   UNL     1       6.239  -1.889  23.642  0.00  0.00    +0.000 C 
BRANCH  19  20
ATOM     20  C   UNL     1       6.492  -2.894  24.731  0.00  0.00    +0.000 A 
ATOM     21  C   UNL     1       7.929  -2.747  25.273  0.00  0.00    +0.000 A 
ATOM     22  C   UNL     1       9.027  -3.760  25.094  0.00  0.00    +0.000 A 
ATOM     23  C   UNL     1       8.443  -4.798  24.234  0.00  0.00    +0.000 A 
ATOM     24  C   UNL     1       7.218  -5.316  23.896  0.00  0.00    +0.000 A 
ATOM     25  C   UNL     1       6.147  -4.333  24.541  0.00  0.00    +0.000 A 
BRANCH  25  26
ATOM     26  N   UNL     1       5.450  -5.018  25.572  0.00  0.00    +0.000 N 
ATOM     27  C   UNL     1       4.716  -6.182  25.107  0.00  0.00    +0.000 C 
ATOM     28  C   UNL     1       4.247  -7.101  26.215  0.00  0.00    +0.000 C 
ATOM     29  N   UNL     1       4.122  -6.364  27.460  0.00  0.00    +0.000 N 
ATOM     30  C   UNL     1       4.579  -6.901  28.599  0.00  0.00    +0.000 C 
ATOM     31  O   UNL     1       5.679  -7.439  28.633  0.00  0.00    +0.000 OA
ATOM     32  C   UNL     1       3.785  -4.958  27.361  0.00  0.00    +0.000 C 
ATOM     33  C   UNL     1       4.885  -4.206  26.634  0.00  0.00    +0.000 C 
BRANCH  30  34
ATOM     34  C   UNL     1       3.647  -6.985  29.773  0.00  0.00    +0.000 C 
ATOM     35 CL   UNL     1       2.102  -7.712  29.284  0.00  0.00    +0.000 Cl
ENDBRANCH  30  34
ENDBRANCH  25  26
ENDBRANCH  19  20
ENDBRANCH  10  19
TORSDOF 5
ENDMDL
MODEL 3
REMARK VINA RESULT:      -8.0      1.803      2.191
REMARK  Name = 
REMARK  5 active torsions:
REMARK  status: ('A' for Active; 'I' for Inactive)
REMARK    1  A    between atoms: C_7  and  C_8
REMARK    2  A    between atoms: C_24  and  C_26
REMARK    3  A    between atoms: C_26  and  C_29
REMARK    4  A    between atoms: C_38  and  N_39
REMARK    5  A    between atoms: C_47  and  C_49
REMARK                            x       y       z     vdW  Elec       q    Type
REMARK                         _______ _______ _______ _____ _____    ______ ____
ROOT
ATOM      1  C   UNL     1       9.583   1.475  22.552  0.00  0.00    +0.000 C 
ATOM      2  C   UNL     1       8.435   1.390  21.836  0.00  0.00    +0.000 A 
ATOM      3  C   UNL     1       7.169   1.810  22.118  0.00  0.00    +0.000 A 
ATOM      4  C   UNL     1       5.994   1.665  21.265  0.00  0.00    +0.000 A 
ATOM      5  C   UNL     1       6.426   1.000  19.972  0.00  0.00    +0.000 A 
ATOM      6  C   UNL     1       7.669   0.400  19.520  0.00  0.00    +0.000 A 
ATOM      7  C   UNL     1       8.536   0.282  20.701  0.00  0.00    +0.000 A 
ATOM      8  C   UNL     1       8.787  -1.160  21.249  0.00  0.00    +0.000 C 
ATOM      9  N   UNL     1       9.678  -1.024  22.220  0.00  0.00    +0.000 N 
ATOM     10  C   UNL     1       9.399  -1.482  23.595  0.00  0.00    +0.000 C 
ATOM     11  O   UNL     1       9.258  -0.699  24.492  0.00  0.00    +0.000 OA
ATOM     12  C   UNL     1      10.268   0.145  22.413  0.00  0.00    +0.000 C 
ENDROOT
BRANCH   1  16
ATOM     13  C   UNL     1       8.934   5.008  24.019  0.00  0.00    +0.000 A 
ATOM     14  C   UNL     1      10.295   4.585  23.544  0.00  0.00    +0.000 A 
ATOM     15  C   UNL     1      10.883   3.257  23.581  0.00  0.00    +0.000 A 
ATOM     16  C   UNL     1       9.773   2.151  23.816  0.00  0.00    +0.000 A 
ATOM     17  C   UNL     1       8.592   2.482  24.711  0.00  0.00    +0.000 A 
ATOM     18  C   UNL     1       8.255   3.990  24.825  0.00  0.00    +0.000 A 
ENDBRANCH   1  16
BRANCH  10  19
ATOM     19  C   UNL     1       8.682  -2.727  23.669  0.00  0.00    +0.000 C 
BRANCH  19  20
ATOM     20  C   UNL     1       7.193  -2.771  23.864  0.00  0.00    +0.000 A 
ATOM     21  C   UNL     1       6.577  -1.380  23.609  0.00  0.00    +0.000 A 
ATOM     22  C   UNL     1       5.951  -0.507  24.662  0.00  0.00    +0.000 A 
ATOM     23  C   UNL     1       6.165  -1.229  25.924  0.00  0.00    +0.000 A 
ATOM     24  C   UNL     1       6.368  -2.506  26.382  0.00  0.00    +0.000 A 
ATOM     25  C   UNL     1       6.597  -3.393  25.083  0.00  0.00    +0.000 A 
BRANCH  25  26
ATOM     26  N   UNL     1       5.508  -4.293  24.937  0.00  0.00    +0.000 N 
ATOM     27  C   UNL     1       4.492  -4.153  25.965  0.00  0.00    +0.000 C 
ATOM     28  C   UNL     1       3.189  -4.857  25.649  0.00  0.00    +0.000 C 
ATOM     29  N   UNL     1       3.420  -5.947  24.719  0.00  0.00    +0.000 N 
ATOM     30  C   UNL     1       2.587  -6.128  23.687  0.00  0.00    +0.000 C 
ATOM     31  O   UNL     1       2.224  -5.176  23.007  0.00  0.00    +0.000 OA
ATOM     32  C   UNL     1       4.714  -6.600  24.778  0.00  0.00    +0.000 C 
ATOM     33  C   UNL     1       5.813  -5.616  24.423  0.00  0.00    +0.000 C 
BRANCH  30  34
ATOM     34  C   UNL     1       1.972  -7.485  23.495  0.00  0.00    +0.000 C 
ATOM     35 CL   UNL     1       1.634  -8.238  25.068  0.00  0.00    +0.000 Cl
ENDBRANCH  30  34
ENDBRANCH  25  26
ENDBRANCH  19  20
ENDBRANCH  10  19
TORSDOF 5
ENDMDL
MODEL 4
REMARK VINA RESULT:      -7.9      3.218      7.954
REMARK  Name = 
REMARK  5 active torsions:
REMARK  status: ('A' for Active; 'I' for Inactive)
REMARK    1  A    between atoms: C_7  and  C_8
REMARK    2  A    between atoms: C_24  and  C_26
REMARK    3  A    between atoms: C_26  and  C_29
REMARK    4  A    between atoms: C_38  and  N_39
REMARK    5  A    between atoms: C_47  and  C_49
REMARK                            x       y       z     vdW  Elec       q    Type
REMARK                         _______ _______ _______ _____ _____    ______ ____
ROOT
ATOM      1  C   UNL     1       5.265  -5.729  24.566  0.00  0.00    +0.000 C 
ATOM      2  C   UNL     1       6.240  -5.092  25.259  0.00  0.00    +0.000 A 
ATOM      3  C   UNL     1       6.185  -4.036  26.120  0.00  0.00    +0.000 A 
ATOM      4  C   UNL     1       7.310  -3.424  26.818  0.00  0.00    +0.000 A 
ATOM      5  C   UNL     1       8.567  -4.195  26.461  0.00  0.00    +0.000 A 
ATOM      6  C   UNL     1       8.856  -5.259  25.515  0.00  0.00    +0.000 A 
ATOM      7  C   UNL     1       7.678  -5.382  24.645  0.00  0.00    +0.000 A 
ATOM      8  C   UNL     1       7.840  -4.899  23.168  0.00  0.00    +0.000 C 
ATOM      9  N   UNL     1       6.707  -5.217  22.560  0.00  0.00    +0.000 N 
ATOM     10  C   UNL     1       5.874  -4.197  21.893  0.00  0.00    +0.000 C 
ATOM     11  O   UNL     1       4.801  -3.890  22.330  0.00  0.00    +0.000 OA
ATOM     12  C   UNL     1       5.811  -5.964  23.186  0.00  0.00    +0.000 C 
ENDROOT
BRANCH   1  16
ATOM     13  C   UNL     1       2.103  -7.697  25.655  0.00  0.00    +0.000 A 
ATOM     14  C   UNL     1       2.487  -7.551  24.209  0.00  0.00    +0.000 A 
ATOM     15  C   UNL     1       3.158  -6.432  23.570  0.00  0.00    +0.000 A 
ATOM     16  C   UNL     1       3.841  -5.491  24.646  0.00  0.00    +0.000 A 
ATOM     17  C   UNL     1       3.155  -5.298  25.987  0.00  0.00    +0.000 A 
ATOM     18  C   UNL     1       2.214  -6.451  26.417  0.00  0.00    +0.000 A 
ENDBRANCH   1  16
BRANCH  10  19
ATOM     19  C   UNL     1       6.623  -3.196  21.182  0.00  0.00    +0.000 C 
BRANCH  19  20
ATOM     20  C   UNL     1       6.737  -1.786  21.689  0.00  0.00    +0.000 A 
ATOM     21  C   UNL     1       6.375  -0.783  20.575  0.00  0.00    +0.000 A 
ATOM     22  C   UNL     1       7.345   0.158  19.912  0.00  0.00    +0.000 A 
ATOM     23  C   UNL     1       8.653  -0.184  20.488  0.00  0.00    +0.000 A 
ATOM     24  C   UNL     1       9.188  -0.747  21.619  0.00  0.00    +0.000 A 
ATOM     25  C   UNL     1       7.951  -1.333  22.429  0.00  0.00    +0.000 A 
BRANCH  25  26
ATOM     26  N   UNL     1       7.792  -0.595  23.632  0.00  0.00    +0.000 N 
ATOM     27  C   UNL     1       8.832  -0.848  24.615  0.00  0.00    +0.000 C 
ATOM     28  C   UNL     1       8.868   0.155  25.749  0.00  0.00    +0.000 C 
ATOM     29  N   UNL     1       7.564   0.769  25.918  0.00  0.00    +0.000 N 
ATOM     30  C   UNL     1       7.473   2.092  26.111  0.00  0.00    +0.000 C 
ATOM     31  O   UNL     1       8.124   2.866  25.421  0.00  0.00    +0.000 OA
ATOM     32  C   UNL     1       6.408  -0.032  25.567  0.00  0.00    +0.000 C 
ATOM     33  C   UNL     1       6.433  -0.365  24.086  0.00  0.00    +0.000 C 
BRANCH  30  34
ATOM     34  C   UNL     1       6.699   2.588  27.298  0.00  0.00    +0.000 C 
ATOM     35 CL   UNL     1       7.054   1.595  28.727  0.00  0.00    +0.000 Cl
ENDBRANCH  30  34
ENDBRANCH  25  26
ENDBRANCH  19  20
ENDBRANCH  10  19
TORSDOF 5
ENDMDL
MODEL 5
REMARK VINA RESULT:      -7.8      2.449      3.263
REMARK  Name = 
REMARK  5 active torsions:
REMARK  status: ('A' for Active; 'I' for Inactive)
REMARK    1  A    between atoms: C_7  and  C_8
REMARK    2  A    between atoms: C_24  and  C_26
REMARK    3  A    between atoms: C_26  and  C_29
REMARK    4  A    between atoms: C_38  and  N_39
REMARK    5  A    between atoms: C_47  and  C_49
REMARK                            x       y       z     vdW  Elec       q    Type
REMARK                         _______ _______ _______ _____ _____    ______ ____
ROOT
ATOM      1  C   UNL     1       9.814   1.469  22.657  0.00  0.00    +0.000 C 
ATOM      2  C   UNL     1       8.657   1.380  21.956  0.00  0.00    +0.000 A 
ATOM      3  C   UNL     1       7.415   1.882  22.207  0.00  0.00    +0.000 A 
ATOM      4  C   UNL     1       6.228   1.724  21.374  0.00  0.00    +0.000 A 
ATOM      5  C   UNL     1       6.617   0.933  20.139  0.00  0.00    +0.000 A 
ATOM      6  C   UNL     1       7.826   0.239  19.733  0.00  0.00    +0.000 A 
ATOM      7  C   UNL     1       8.696   0.178  20.916  0.00  0.00    +0.000 A 
ATOM      8  C   UNL     1       8.883  -1.224  21.581  0.00  0.00    +0.000 C 
ATOM      9  N   UNL     1       9.787  -1.050  22.534  0.00  0.00    +0.000 N 
ATOM     10  C   UNL     1       9.498  -1.379  23.943  0.00  0.00    +0.000 C 
ATOM     11  O   UNL     1       9.402  -0.518  24.773  0.00  0.00    +0.000 OA
ATOM     12  C   UNL     1      10.433   0.100  22.627  0.00  0.00    +0.000 C 
ENDROOT
BRANCH   1  16
ATOM     13  C   UNL     1       9.348   5.139  23.826  0.00  0.00    +0.000 A 
ATOM     14  C   UNL     1      10.683   4.612  23.383  0.00  0.00    +0.000 A 
ATOM     15  C   UNL     1      11.207   3.265  23.529  0.00  0.00    +0.000 A 
ATOM     16  C   UNL     1      10.046   2.238  23.860  0.00  0.00    +0.000 A 
ATOM     17  C   UNL     1       8.889   2.700  24.728  0.00  0.00    +0.000 A 
ATOM     18  C   UNL     1       8.627   4.226  24.717  0.00  0.00    +0.000 A 
ENDBRANCH   1  16
BRANCH  10  19
ATOM     19  C   UNL     1       8.724  -2.578  24.124  0.00  0.00    +0.000 C 
BRANCH  19  20
ATOM     20  C   UNL     1       7.867  -2.789  25.341  0.00  0.00    +0.000 A 
ATOM     21  C   UNL     1       8.520  -3.819  26.285  0.00  0.00    +0.000 A 
ATOM     22  C   UNL     1       7.978  -5.194  26.570  0.00  0.00    +0.000 A 
ATOM     23  C   UNL     1       6.809  -5.326  25.689  0.00  0.00    +0.000 A 
ATOM     24  C   UNL     1       5.886  -4.543  25.045  0.00  0.00    +0.000 A 
ATOM     25  C   UNL     1       6.403  -3.049  25.211  0.00  0.00    +0.000 A 
BRANCH  25  26
ATOM     26  N   UNL     1       5.499  -2.334  26.041  0.00  0.00    +0.000 N 
ATOM     27  C   UNL     1       4.105  -2.676  25.817  0.00  0.00    +0.000 C 
ATOM     28  C   UNL     1       3.165  -2.182  26.896  0.00  0.00    +0.000 C 
ATOM     29  N   UNL     1       3.739  -1.035  27.576  0.00  0.00    +0.000 N 
ATOM     30  C   UNL     1       3.677  -0.954  28.912  0.00  0.00    +0.000 C 
ATOM     31  O   UNL     1       3.945  -1.927  29.606  0.00  0.00    +0.000 OA
ATOM     32  C   UNL     1       4.620  -0.183  26.801  0.00  0.00    +0.000 C 
ATOM     33  C   UNL     1       5.846  -0.961  26.360  0.00  0.00    +0.000 C 
BRANCH  30  34
ATOM     34  C   UNL     1       3.103   0.291  29.525  0.00  0.00    +0.000 C 
ATOM     35 CL   UNL     1       4.405   1.371  30.065  0.00  0.00    +0.000 Cl
ENDBRANCH  30  34
ENDBRANCH  25  26
ENDBRANCH  19  20
ENDBRANCH  10  19
TORSDOF 5
ENDMDL
MODEL 6
REMARK VINA RESULT:      -7.4      3.231      9.053
REMARK  Name = 
REMARK  5 active torsions:
REMARK  status: ('A' for Active; 'I' for Inactive)
REMARK    1  A    between atoms: C_7  and  C_8
REMARK    2  A    between atoms: C_24  and  C_26
REMARK    3  A    between atoms: C_26  and  C_29
REMARK    4  A    between atoms: C_38  and  N_39
REMARK    5  A    between atoms: C_47  and  C_49
REMARK                            x       y       z     vdW  Elec       q    Type
REMARK                         _______ _______ _______ _____ _____    ______ ____
ROOT
ATOM      1  C   UNL     1       4.108  -6.380  26.405  0.00  0.00    +0.000 C 
ATOM      2  C   UNL     1       3.571  -5.183  26.746  0.00  0.00    +0.000 A 
ATOM      3  C   UNL     1       2.907  -4.254  26.001  0.00  0.00    +0.000 A 
ATOM      4  C   UNL     1       2.365  -2.985  26.476  0.00  0.00    +0.000 A 
ATOM      5  C   UNL     1       2.626  -2.886  27.968  0.00  0.00    +0.000 A 
ATOM      6  C   UNL     1       3.381  -3.694  28.909  0.00  0.00    +0.000 A 
ATOM      7  C   UNL     1       4.175  -4.640  28.113  0.00  0.00    +0.000 A 
ATOM      8  C   UNL     1       5.719  -4.400  28.068  0.00  0.00    +0.000 C 
ATOM      9  N   UNL     1       6.221  -5.430  27.403  0.00  0.00    +0.000 N 
ATOM     10  C   UNL     1       7.027  -5.243  26.181  0.00  0.00    +0.000 C 
ATOM     11  O   UNL     1       6.613  -5.580  25.108  0.00  0.00    +0.000 OA
ATOM     12  C   UNL     1       5.445  -6.454  27.089  0.00  0.00    +0.000 C 
ENDROOT
BRANCH   1  16
ATOM     13  C   UNL     1       1.713  -6.370  23.353  0.00  0.00    +0.000 A 
ATOM     14  C   UNL     1       1.659  -7.448  24.399  0.00  0.00    +0.000 A 
ATOM     15  C   UNL     1       2.756  -7.991  25.181  0.00  0.00    +0.000 A 
ATOM     16  C   UNL     1       4.022  -7.040  25.121  0.00  0.00    +0.000 A 
ATOM     17  C   UNL     1       4.308  -6.287  23.834  0.00  0.00    +0.000 A 
ATOM     18  C   UNL     1       3.076  -6.035  22.931  0.00  0.00    +0.000 A 
ENDBRANCH   1  16
BRANCH  10  19
ATOM     19  C   UNL     1       7.928  -4.122  26.233  0.00  0.00    +0.000 C 
BRANCH  19  20
ATOM     20  C   UNL     1       7.712  -2.895  25.392  0.00  0.00    +0.000 A 
ATOM     21  C   UNL     1       6.206  -2.587  25.269  0.00  0.00    +0.000 A 
ATOM     22  C   UNL     1       5.402  -2.701  24.002  0.00  0.00    +0.000 A 
ATOM     23  C   UNL     1       6.338  -3.249  23.012  0.00  0.00    +0.000 A 
ATOM     24  C   UNL     1       7.686  -3.311  22.762  0.00  0.00    +0.000 A 
ATOM     25  C   UNL     1       8.388  -2.743  24.070  0.00  0.00    +0.000 A 
BRANCH  25  26
ATOM     26  N   UNL     1       9.026  -1.513  23.758  0.00  0.00    +0.000 N 
ATOM     27  C   UNL     1       9.689  -1.510  22.466  0.00  0.00    +0.000 C 
ATOM     28  C   UNL     1      10.083  -0.132  21.976  0.00  0.00    +0.000 C 
ATOM     29  N   UNL     1      10.239   0.775  23.098  0.00  0.00    +0.000 N 
ATOM     30  C   UNL     1       9.733   2.013  23.028  0.00  0.00    +0.000 C 
ATOM     31  O   UNL     1       8.600   2.197  22.599  0.00  0.00    +0.000 OA
ATOM     32  C   UNL     1      10.668   0.197  24.357  0.00  0.00    +0.000 C 
ATOM     33  C   UNL     1       9.628  -0.787  24.862  0.00  0.00    +0.000 C 
BRANCH  30  34
ATOM     34  C   UNL     1      10.642   3.173  23.314  0.00  0.00    +0.000 C 
ATOM     35 CL   UNL     1       9.724   4.519  24.021  0.00  0.00    +0.000 Cl
ENDBRANCH  30  34
ENDBRANCH  25  26
ENDBRANCH  19  20
ENDBRANCH  10  19
TORSDOF 5
ENDMDL
MODEL 7
REMARK VINA RESULT:      -7.2      1.427      2.206
REMARK  Name = 
REMARK  5 active torsions:
REMARK  status: ('A' for Active; 'I' for Inactive)
REMARK    1  A    between atoms: C_7  and  C_8
REMARK    2  A    between atoms: C_24  and  C_26
REMARK    3  A    between atoms: C_26  and  C_29
REMARK    4  A    between atoms: C_38  and  N_39
REMARK    5  A    between atoms: C_47  and  C_49
REMARK                            x       y       z     vdW  Elec       q    Type
REMARK                         _______ _______ _______ _____ _____    ______ ____
ROOT
ATOM      1  C   UNL     1       9.668   1.232  22.689  0.00  0.00    +0.000 C 
ATOM      2  C   UNL     1       8.603   1.356  21.859  0.00  0.00    +0.000 A 
ATOM      3  C   UNL     1       7.500   2.154  21.927  0.00  0.00    +0.000 A 
ATOM      4  C   UNL     1       6.403   2.206  20.967  0.00  0.00    +0.000 A 
ATOM      5  C   UNL     1       6.717   1.244  19.836  0.00  0.00    +0.000 A 
ATOM      6  C   UNL     1       7.758   0.255  19.621  0.00  0.00    +0.000 A 
ATOM      7  C   UNL     1       8.460   0.094  20.902  0.00  0.00    +0.000 A 
ATOM      8  C   UNL     1       8.232  -1.251  21.665  0.00  0.00    +0.000 C 
ATOM      9  N   UNL     1       9.047  -1.213  22.709  0.00  0.00    +0.000 N 
ATOM     10  C   UNL     1       8.542  -1.343  24.090  0.00  0.00    +0.000 C 
ATOM     11  O   UNL     1       8.570  -0.417  24.850  0.00  0.00    +0.000 OA
ATOM     12  C   UNL     1       9.939  -0.241  22.813  0.00  0.00    +0.000 C 
ENDROOT
BRANCH   1  16
ATOM     13  C   UNL     1       9.271   4.930  23.796  0.00  0.00    +0.000 A 
ATOM     14  C   UNL     1      10.585   4.384  23.312  0.00  0.00    +0.000 A 
ATOM     15  C   UNL     1      11.105   3.036  23.466  0.00  0.00    +0.000 A 
ATOM     16  C   UNL     1       9.952   2.025  23.864  0.00  0.00    +0.000 A 
ATOM     17  C   UNL     1       8.834   2.514  24.767  0.00  0.00    +0.000 A 
ATOM     18  C   UNL     1       8.580   4.041  24.733  0.00  0.00    +0.000 A 
ENDBRANCH   1  16
BRANCH  10  19
ATOM     19  C   UNL     1       7.487  -2.309  24.244  0.00  0.00    +0.000 C 
BRANCH  19  20
ATOM     20  C   UNL     1       7.453  -3.264  25.404  0.00  0.00    +0.000 A 
ATOM     21  C   UNL     1       8.857  -3.400  26.028  0.00  0.00    +0.000 A 
ATOM     22  C   UNL     1       9.706  -4.641  25.980  0.00  0.00    +0.000 A 
ATOM     23  C   UNL     1       8.947  -5.583  25.148  0.00  0.00    +0.000 A 
ATOM     24  C   UNL     1       7.655  -5.840  24.763  0.00  0.00    +0.000 A 
ATOM     25  C   UNL     1       6.803  -4.601  25.278  0.00  0.00    +0.000 A 
BRANCH  25  26
ATOM     26  N   UNL     1       5.919  -5.038  26.301  0.00  0.00    +0.000 N 
ATOM     27  C   UNL     1       6.288  -4.579  27.628  0.00  0.00    +0.000 C 
ATOM     28  C   UNL     1       5.200  -4.750  28.667  0.00  0.00    +0.000 C 
ATOM     29  N   UNL     1       4.293  -5.813  28.275  0.00  0.00    +0.000 N 
ATOM     30  C   UNL     1       2.971  -5.639  28.401  0.00  0.00    +0.000 C 
ATOM     31  O   UNL     1       2.445  -4.594  28.039  0.00  0.00    +0.000 OA
ATOM     32  C   UNL     1       4.847  -6.892  27.481  0.00  0.00    +0.000 C 
ATOM     33  C   UNL     1       5.340  -6.360  26.147  0.00  0.00    +0.000 C 
BRANCH  30  34
ATOM     34  C   UNL     1       2.184  -6.672  29.156  0.00  0.00    +0.000 C 
ATOM     35 CL   UNL     1       3.111  -7.256  30.554  0.00  0.00    +0.000 Cl
ENDBRANCH  30  34
ENDBRANCH  25  26
ENDBRANCH  19  20
ENDBRANCH  10  19
TORSDOF 5
ENDMDL
MODEL 8
REMARK VINA RESULT:      -7.2      3.078      7.823
REMARK  Name = 
REMARK  5 active torsions:
REMARK  status: ('A' for Active; 'I' for Inactive)
REMARK    1  A    between atoms: C_7  and  C_8
REMARK    2  A    between atoms: C_24  and  C_26
REMARK    3  A    between atoms: C_26  and  C_29
REMARK    4  A    between atoms: C_38  and  N_39
REMARK    5  A    between atoms: C_47  and  C_49
REMARK                            x       y       z     vdW  Elec       q    Type
REMARK                         _______ _______ _______ _____ _____    ______ ____
ROOT
ATOM      1  C   UNL     1       6.297  -3.975  25.860  0.00  0.00    +0.000 C 
ATOM      2  C   UNL     1       6.589  -2.697  26.205  0.00  0.00    +0.000 A 
ATOM      3  C   UNL     1       5.782  -1.618  26.411  0.00  0.00    +0.000 A 
ATOM      4  C   UNL     1       6.208  -0.273  26.784  0.00  0.00    +0.000 A 
ATOM      5  C   UNL     1       7.716  -0.282  26.953  0.00  0.00    +0.000 A 
ATOM      6  C   UNL     1       8.747  -1.271  26.694  0.00  0.00    +0.000 A 
ATOM      7  C   UNL     1       8.115  -2.351  25.923  0.00  0.00    +0.000 A 
ATOM      8  C   UNL     1       8.520  -2.473  24.419  0.00  0.00    +0.000 C 
ATOM      9  N   UNL     1       7.925  -3.571  23.976  0.00  0.00    +0.000 N 
ATOM     10  C   UNL     1       6.997  -3.538  22.830  0.00  0.00    +0.000 C 
ATOM     11  O   UNL     1       5.824  -3.738  22.976  0.00  0.00    +0.000 OA
ATOM     12  C   UNL     1       7.313  -4.377  24.828  0.00  0.00    +0.000 C 
ENDROOT
BRANCH   1  16
ATOM     13  C   UNL     1       4.043  -6.464  27.804  0.00  0.00    +0.000 A 
ATOM     14  C   UNL     1       4.847  -6.891  26.609  0.00  0.00    +0.000 A 
ATOM     15  C   UNL     1       5.196  -6.105  25.438  0.00  0.00    +0.000 A 
ATOM     16  C   UNL     1       4.982  -4.558  25.709  0.00  0.00    +0.000 A 
ATOM     17  C   UNL     1       3.829  -4.126  26.596  0.00  0.00    +0.000 A 
ATOM     18  C   UNL     1       3.347  -5.189  27.614  0.00  0.00    +0.000 A 
ENDBRANCH   1  16
BRANCH  10  19
ATOM     19  C   UNL     1       7.402  -2.658  21.766  0.00  0.00    +0.000 C 
BRANCH  19  20
ATOM     20  C   UNL     1       6.744  -1.324  21.551  0.00  0.00    +0.000 A 
ATOM     21  C   UNL     1       5.955  -1.322  20.225  0.00  0.00    +0.000 A 
ATOM     22  C   UNL     1       6.316  -0.516  19.007  0.00  0.00    +0.000 A 
ATOM     23  C   UNL     1       7.586   0.136  19.351  0.00  0.00    +0.000 A 
ATOM     24  C   UNL     1       8.292   0.544  20.455  0.00  0.00    +0.000 A 
ATOM     25  C   UNL     1       7.514  -0.055  21.705  0.00  0.00    +0.000 A 
BRANCH  25  26
ATOM     26  N   UNL     1       6.947   1.010  22.453  0.00  0.00    +0.000 N 
ATOM     27  C   UNL     1       6.420   2.086  21.632  0.00  0.00    +0.000 C 
ATOM     28  C   UNL     1       5.531   3.057  22.380  0.00  0.00    +0.000 C 
ATOM     29  N   UNL     1       5.853   3.046  23.795  0.00  0.00    +0.000 N 
ATOM     30  C   UNL     1       4.867   3.032  24.701  0.00  0.00    +0.000 C 
ATOM     31  O   UNL     1       3.911   2.278  24.566  0.00  0.00    +0.000 OA
ATOM     32  C   UNL     1       7.224   2.743  24.156  0.00  0.00    +0.000 C 
ATOM     33  C   UNL     1       7.581   1.335  23.718  0.00  0.00    +0.000 C 
BRANCH  30  34
ATOM     34  C   UNL     1       4.873   4.077  25.779  0.00  0.00    +0.000 C 
ATOM     35 CL   UNL     1       4.743   3.317  27.379  0.00  0.00    +0.000 Cl
ENDBRANCH  30  34
ENDBRANCH  25  26
ENDBRANCH  19  20
ENDBRANCH  10  19
TORSDOF 5
ENDMDL
MODEL 9
REMARK VINA RESULT:      -6.9      3.438      6.465
REMARK  Name = 
REMARK  5 active torsions:
REMARK  status: ('A' for Active; 'I' for Inactive)
REMARK    1  A    between atoms: C_7  and  C_8
REMARK    2  A    between atoms: C_24  and  C_26
REMARK    3  A    between atoms: C_26  and  C_29
REMARK    4  A    between atoms: C_38  and  N_39
REMARK    5  A    between atoms: C_47  and  C_49
REMARK                            x       y       z     vdW  Elec       q    Type
REMARK                         _______ _______ _______ _____ _____    ______ ____
ROOT
ATOM      1  C   UNL     1       8.366  -1.689  22.422  0.00  0.00    +0.000 C 
ATOM      2  C   UNL     1       8.948  -1.066  23.476  0.00  0.00    +0.000 A 
ATOM      3  C   UNL     1       8.509  -0.861  24.750  0.00  0.00    +0.000 A 
ATOM      4  C   UNL     1       9.226  -0.170  25.816  0.00  0.00    +0.000 A 
ATOM      5  C   UNL     1      10.581   0.253  25.280  0.00  0.00    +0.000 A 
ATOM      6  C   UNL     1      11.192   0.223  23.962  0.00  0.00    +0.000 A 
ATOM      7  C   UNL     1      10.122  -0.102  23.008  0.00  0.00    +0.000 A 
ATOM      8  C   UNL     1       9.653   1.047  22.058  0.00  0.00    +0.000 C 
ATOM      9  N   UNL     1       8.787   0.491  21.225  0.00  0.00    +0.000 N 
ATOM     10  C   UNL     1       7.404   0.992  21.099  0.00  0.00    +0.000 C 
ATOM     11  O   UNL     1       6.472   0.341  21.479  0.00  0.00    +0.000 OA
ATOM     12  C   UNL     1       8.625  -0.822  21.222  0.00  0.00    +0.000 C 
ENDROOT
BRANCH   1  16
ATOM     13  C   UNL     1       6.624  -4.389  24.597  0.00  0.00    +0.000 A 
ATOM     14  C   UNL     1       7.326  -4.736  23.314  0.00  0.00    +0.000 A 
ATOM     15  C   UNL     1       7.453  -3.925  22.116  0.00  0.00    +0.000 A 
ATOM     16  C   UNL     1       7.111  -2.408  22.419  0.00  0.00    +0.000 A 
ATOM     17  C   UNL     1       6.028  -2.093  23.436  0.00  0.00    +0.000 A 
ATOM     18  C   UNL     1       5.781  -3.195  24.496  0.00  0.00    +0.000 A 
ENDBRANCH   1  16
BRANCH  10  19
ATOM     19  C   UNL     1       7.289   2.425  21.146  0.00  0.00    +0.000 C 
BRANCH  19  20
ATOM     20  C   UNL     1       6.782   3.137  22.369  0.00  0.00    +0.000 A 
ATOM     21  C   UNL     1       6.994   4.659  22.231  0.00  0.00    +0.000 A 
ATOM     22  C   UNL     1       7.954   5.474  23.054  0.00  0.00    +0.000 A 
ATOM     23  C   UNL     1       8.663   4.493  23.885  0.00  0.00    +0.000 A 
ATOM     24  C   UNL     1       8.486   3.238  24.413  0.00  0.00    +0.000 A 
ATOM     25  C   UNL     1       7.161   2.676  23.736  0.00  0.00    +0.000 A 
BRANCH  25  26
ATOM     26  N   UNL     1       6.152   2.549  24.727  0.00  0.00    +0.000 N 
ATOM     27  C   UNL     1       4.890   3.166  24.358  0.00  0.00    +0.000 C 
ATOM     28  C   UNL     1       3.724   2.763  25.237  0.00  0.00    +0.000 C 
ATOM     29  N   UNL     1       4.200   2.339  26.541  0.00  0.00    +0.000 N 
ATOM     30  C   UNL     1       3.687   1.241  27.111  0.00  0.00    +0.000 C 
ATOM     31  O   UNL     1       3.533   0.216  26.457  0.00  0.00    +0.000 OA
ATOM     32  C   UNL     1       5.422   2.950  27.026  0.00  0.00    +0.000 C 
ATOM     33  C   UNL     1       6.582   2.597  26.113  0.00  0.00    +0.000 C 
BRANCH  30  34
ATOM     34  C   UNL     1       3.144   1.349  28.506  0.00  0.00    +0.000 C 
ATOM     35 CL   UNL     1       4.187   0.471  29.645  0.00  0.00    +0.000 Cl
ENDBRANCH  30  34
ENDBRANCH  25  26
ENDBRANCH  19  20
ENDBRANCH  10  19
TORSDOF 5
ENDMDL
