MODEL 1
REMARK VINA RESULT:      -9.3      0.000      0.000
REMARK  Name = 
REMARK  6 active torsions:
REMARK  status: ('A' for Active; 'I' for Inactive)
REMARK    1  A    between atoms: C_7  and  C_8
REMARK    2  A    between atoms: N_23  and  C_24
REMARK    3  A    between atoms: C_24  and  C_27
REMARK    4  A    between atoms: N_29  and  C_31
REMARK    5  A    between atoms: C_36  and  C_37
REMARK    6  A    between atoms: C_41  and  N_42
REMARK                            x       y       z     vdW  Elec       q    Type
REMARK                         _______ _______ _______ _____ _____    ______ ____
ROOT
ATOM      1  C   UNL     1       9.820  -2.129  23.818  0.00  0.00    +0.000 C 
ENDROOT
BRANCH   1  10
ATOM      2  C   UNL     1       7.557   0.733  23.706  0.00  0.00    +0.000 C 
ATOM      3  C   UNL     1       8.375   1.733  24.426  0.00  0.00    +0.000 A 
ATOM      4  C   UNL     1       8.209   2.897  24.735  0.00  0.00    +0.000 A 
ATOM      5  C   UNL     1       8.826   4.153  24.293  0.00  0.00    +0.000 A 
ATOM      6  C   UNL     1      10.200   3.669  23.793  0.00  0.00    +0.000 A 
ATOM      7  C   UNL     1      10.818   2.463  23.481  0.00  0.00    +0.000 A 
ATOM      8  C   UNL     1       9.930   1.411  24.033  0.00  0.00    +0.000 A 
ATOM      9  C   UNL     1      10.348   0.139  24.733  0.00  0.00    +0.000 C 
ATOM     10  N   UNL     1       9.573  -0.807  24.222  0.00  0.00    +0.000 N 
ATOM     11  C   UNL     1       8.318  -0.531  24.048  0.00  0.00    +0.000 C 
BRANCH   2  15
ATOM     12  C   UNL     1       6.898   0.667  19.479  0.00  0.00    +0.000 A 
ATOM     13  C   UNL     1       6.288   1.682  20.452  0.00  0.00    +0.000 A 
ATOM     14  C   UNL     1       6.776   2.099  21.774  0.00  0.00    +0.000 A 
ATOM     15  C   UNL     1       7.818   1.081  22.283  0.00  0.00    +0.000 A 
ATOM     16  C   UNL     1       8.646   0.179  21.454  0.00  0.00    +0.000 A 
ATOM     17  C   UNL     1       7.895  -0.177  20.129  0.00  0.00    +0.000 A 
ENDBRANCH   2  15
ENDBRANCH   1  10
BRANCH   1  18
ATOM     18  C   UNL     1       9.251  -3.410  24.178  0.00  0.00    +0.000 C 
ATOM     19  O   UNL     1       9.828  -4.242  24.898  0.00  0.00    +0.000 OA
ATOM     20  N   UNL     1       8.413  -3.887  23.258  0.00  0.00    +0.000 N 
ATOM     21  H   UNL     1       8.751  -3.946  22.431  0.00  0.00    +0.000 HD
BRANCH  20  22
ATOM     22  C   UNL     1       7.127  -3.794  23.456  0.00  0.00    +0.000 A 
ATOM     23  C   UNL     1       6.646  -4.566  22.242  0.00  0.00    +0.000 A 
ATOM     24  C   UNL     1       5.811  -5.714  22.224  0.00  0.00    +0.000 A 
ATOM     25  C   UNL     1       5.002  -5.859  23.602  0.00  0.00    +0.000 A 
ATOM     26  C   UNL     1       3.510  -5.833  23.027  0.00  0.00    +0.000 C 
ATOM     27  C   UNL     1       5.442  -5.351  24.840  0.00  0.00    +0.000 A 
ATOM     28  C   UNL     1       6.382  -4.062  24.681  0.00  0.00    +0.000 A 
BRANCH  27  29
ATOM     29  N   UNL     1       5.711  -5.999  25.940  0.00  0.00    +0.000 N 
ATOM     30  C   UNL     1       6.734  -5.464  26.724  0.00  0.00    +0.000 C 
ATOM     31  O   UNL     1       7.863  -5.875  26.526  0.00  0.00    +0.000 OA
ATOM     32  C   UNL     1       6.212  -5.388  28.181  0.00  0.00    +0.000 C 
ATOM     33  C   UNL     1       4.950  -6.261  28.174  0.00  0.00    +0.000 C 
ATOM     34  C   UNL     1       4.819  -6.812  26.729  0.00  0.00    +0.000 C 
ENDBRANCH  27  29
ENDBRANCH  20  22
ENDBRANCH   1  18
TORSDOF 5
ENDMDL
MODEL 2
REMARK VINA RESULT:      -9.1      2.213      7.349
REMARK  Name = 
REMARK  6 active torsions:
REMARK  status: ('A' for Active; 'I' for Inactive)
REMARK    1  A    between atoms: C_7  and  C_8
REMARK    2  A    between atoms: N_23  and  C_24
REMARK    3  A    between atoms: C_24  and  C_27
REMARK    4  A    between atoms: N_29  and  C_31
REMARK    5  A    between atoms: C_36  and  C_37
REMARK    6  A    between atoms: C_41  and  N_42
REMARK                            x       y       z     vdW  Elec       q    Type
REMARK                         _______ _______ _______ _____ _____    ______ ____
ROOT
ATOM      1  C   UNL     1       9.993  -2.853  24.224  0.00  0.00    +0.000 C 
ENDROOT
BRANCH   1  10
ATOM      2  C   UNL     1       7.616  -5.260  25.594  0.00  0.00    +0.000 C 
ATOM      3  C   UNL     1       7.170  -4.522  26.795  0.00  0.00    +0.000 A 
ATOM      4  C   UNL     1       6.382  -4.760  27.690  0.00  0.00    +0.000 A 
ATOM      5  C   UNL     1       5.079  -4.196  28.060  0.00  0.00    +0.000 A 
ATOM      6  C   UNL     1       5.166  -2.782  27.456  0.00  0.00    +0.000 A 
ATOM      7  C   UNL     1       5.976  -2.090  26.562  0.00  0.00    +0.000 A 
ATOM      8  C   UNL     1       7.178  -2.939  26.381  0.00  0.00    +0.000 A 
ATOM      9  C   UNL     1       8.613  -2.479  26.276  0.00  0.00    +0.000 C 
ATOM     10  N   UNL     1       9.130  -3.183  25.281  0.00  0.00    +0.000 N 
ATOM     11  C   UNL     1       8.836  -4.445  25.217  0.00  0.00    +0.000 C 
BRANCH   2  15
ATOM     12  C   UNL     1       5.089  -5.980  22.217  0.00  0.00    +0.000 A 
ATOM     13  C   UNL     1       4.786  -6.416  23.655  0.00  0.00    +0.000 A 
ATOM     14  C   UNL     1       5.293  -5.851  24.914  0.00  0.00    +0.000 A 
ATOM     15  C   UNL     1       6.525  -4.969  24.624  0.00  0.00    +0.000 A 
ATOM     16  C   UNL     1       6.848  -4.300  23.347  0.00  0.00    +0.000 A 
ATOM     17  C   UNL     1       6.262  -5.114  22.147  0.00  0.00    +0.000 A 
ENDBRANCH   2  15
ENDBRANCH   1  10
BRANCH   1  18
ATOM     18  C   UNL     1      10.150  -1.685  23.384  0.00  0.00    +0.000 C 
ATOM     19  O   UNL     1      10.405  -1.739  22.169  0.00  0.00    +0.000 OA
ATOM     20  N   UNL     1      10.598  -0.620  24.048  0.00  0.00    +0.000 N 
ATOM     21  H   UNL     1      11.359  -0.749  24.503  0.00  0.00    +0.000 HD
BRANCH  20  22
ATOM     22  C   UNL     1       9.761   0.321  24.388  0.00  0.00    +0.000 A 
ATOM     23  C   UNL     1      10.582   1.527  23.974  0.00  0.00    +0.000 A 
ATOM     24  C   UNL     1      10.212   2.551  23.063  0.00  0.00    +0.000 A 
ATOM     25  C   UNL     1       8.622   2.591  22.856  0.00  0.00    +0.000 A 
ATOM     26  C   UNL     1       8.342   4.097  23.316  0.00  0.00    +0.000 C 
ATOM     27  C   UNL     1       7.770   1.482  23.023  0.00  0.00    +0.000 A 
ATOM     28  C   UNL     1       8.339   0.417  24.076  0.00  0.00    +0.000 A 
BRANCH  27  29
ATOM     29  N   UNL     1       6.994   0.908  22.144  0.00  0.00    +0.000 N 
ATOM     30  C   UNL     1       6.660   1.684  21.031  0.00  0.00    +0.000 C 
ATOM     31  O   UNL     1       5.641   2.346  21.099  0.00  0.00    +0.000 OA
ATOM     32  C   UNL     1       6.908   0.818  19.770  0.00  0.00    +0.000 C 
ATOM     33  C   UNL     1       7.062  -0.607  20.317  0.00  0.00    +0.000 C 
ATOM     34  C   UNL     1       6.875  -0.499  21.854  0.00  0.00    +0.000 C 
ENDBRANCH  27  29
ENDBRANCH  20  22
ENDBRANCH   1  18
TORSDOF 5
ENDMDL
MODEL 3
REMARK VINA RESULT:      -8.9      1.688      2.372
REMARK  Name = 
REMARK  6 active torsions:
REMARK  status: ('A' for Active; 'I' for Inactive)
REMARK    1  A    between atoms: C_7  and  C_8
REMARK    2  A    between atoms: N_23  and  C_24
REMARK    3  A    between atoms: C_24  and  C_27
REMARK    4  A    between atoms: N_29  and  C_31
REMARK    5  A    between atoms: C_36  and  C_37
REMARK    6  A    between atoms: C_41  and  N_42
REMARK                            x       y       z     vdW  Elec       q    Type
REMARK                         _______ _______ _______ _____ _____    ______ ____
ROOT
ATOM      1  C   UNL     1       8.077  -3.290  22.436  0.00  0.00    +0.000 C 
ENDROOT
BRANCH   1  10
ATOM      2  C   UNL     1       6.723   0.086  22.735  0.00  0.00    +0.000 C 
ATOM      3  C   UNL     1       7.864   0.762  23.388  0.00  0.00    +0.000 A 
ATOM      4  C   UNL     1       8.071   1.899  23.766  0.00  0.00    +0.000 A 
ATOM      5  C   UNL     1       8.967   2.966  23.304  0.00  0.00    +0.000 A 
ATOM      6  C   UNL     1      10.084   2.160  22.615  0.00  0.00    +0.000 A 
ATOM      7  C   UNL     1      10.296   0.858  22.175  0.00  0.00    +0.000 A 
ATOM      8  C   UNL     1       9.212   0.054  22.788  0.00  0.00    +0.000 A 
ATOM      9  C   UNL     1       9.324  -1.334  23.374  0.00  0.00    +0.000 C 
ATOM     10  N   UNL     1       8.262  -1.987  22.925  0.00  0.00    +0.000 N 
ATOM     11  C   UNL     1       7.125  -1.361  22.923  0.00  0.00    +0.000 C 
BRANCH   2  15
ATOM     12  C   UNL     1       5.571   0.669  18.655  0.00  0.00    +0.000 A 
ATOM     13  C   UNL     1       5.494   1.734  19.755  0.00  0.00    +0.000 A 
ATOM     14  C   UNL     1       6.259   1.821  21.007  0.00  0.00    +0.000 A 
ATOM     15  C   UNL     1       6.915   0.458  21.306  0.00  0.00    +0.000 A 
ATOM     16  C   UNL     1       7.252  -0.592  20.322  0.00  0.00    +0.000 A 
ATOM     17  C   UNL     1       6.266  -0.531  19.109  0.00  0.00    +0.000 A 
ENDBRANCH   2  15
ENDBRANCH   1  10
BRANCH   1  18
ATOM     18  C   UNL     1       7.597  -4.522  23.023  0.00  0.00    +0.000 C 
ATOM     19  O   UNL     1       8.344  -5.404  23.480  0.00  0.00    +0.000 OA
ATOM     20  N   UNL     1       6.431  -4.922  22.518  0.00  0.00    +0.000 N 
ATOM     21  H   UNL     1       6.410  -5.003  21.626  0.00  0.00    +0.000 HD
BRANCH  20  22
ATOM     22  C   UNL     1       5.337  -4.725  23.201  0.00  0.00    +0.000 A 
ATOM     23  C   UNL     1       5.002  -6.167  23.530  0.00  0.00    +0.000 A 
ATOM     24  C   UNL     1       4.821  -6.741  24.816  0.00  0.00    +0.000 A 
ATOM     25  C   UNL     1       4.524  -5.609  25.914  0.00  0.00    +0.000 A 
ATOM     26  C   UNL     1       3.105  -6.127  26.437  0.00  0.00    +0.000 C 
ATOM     27  C   UNL     1       4.952  -4.271  25.813  0.00  0.00    +0.000 A 
ATOM     28  C   UNL     1       5.115  -3.785  24.295  0.00  0.00    +0.000 A 
BRANCH  27  29
ATOM     29  N   UNL     1       5.743  -3.605  26.610  0.00  0.00    +0.000 N 
ATOM     30  C   UNL     1       7.063  -4.057  26.671  0.00  0.00    +0.000 C 
ATOM     31  O   UNL     1       7.332  -4.876  27.531  0.00  0.00    +0.000 OA
ATOM     32  C   UNL     1       7.985  -2.824  26.498  0.00  0.00    +0.000 C 
ATOM     33  C   UNL     1       7.050  -1.625  26.697  0.00  0.00    +0.000 C 
ATOM     34  C   UNL     1       5.648  -2.219  26.996  0.00  0.00    +0.000 C 
ENDBRANCH  27  29
ENDBRANCH  20  22
ENDBRANCH   1  18
TORSDOF 5
ENDMDL
MODEL 4
REMARK VINA RESULT:      -8.9      1.698      2.723
REMARK  Name = 
REMARK  6 active torsions:
REMARK  status: ('A' for Active; 'I' for Inactive)
REMARK    1  A    between atoms: C_7  and  C_8
REMARK    2  A    between atoms: N_23  and  C_24
REMARK    3  A    between atoms: C_24  and  C_27
REMARK    4  A    between atoms: N_29  and  C_31
REMARK    5  A    between atoms: C_36  and  C_37
REMARK    6  A    between atoms: C_41  and  N_42
REMARK                            x       y       z     vdW  Elec       q    Type
REMARK                         _______ _______ _______ _____ _____    ______ ____
ROOT
ATOM      1  C   UNL     1       8.689  -3.298  24.594  0.00  0.00    +0.000 C 
ENDROOT
BRANCH   1  10
ATOM      2  C   UNL     1       9.212   0.207  25.466  0.00  0.00    +0.000 C 
ATOM      3  C   UNL     1      10.140   0.603  24.385  0.00  0.00    +0.000 A 
ATOM      4  C   UNL     1      10.702   1.640  24.090  0.00  0.00    +0.000 A 
ATOM      5  C   UNL     1      10.554   2.582  22.974  0.00  0.00    +0.000 A 
ATOM      6  C   UNL     1       9.964   1.677  21.876  0.00  0.00    +0.000 A 
ATOM      7  C   UNL     1       9.392   0.413  21.778  0.00  0.00    +0.000 A 
ATOM      8  C   UNL     1       9.691  -0.256  23.067  0.00  0.00    +0.000 A 
ATOM      9  C   UNL     1      10.090  -1.698  23.277  0.00  0.00    +0.000 C 
ATOM     10  N   UNL     1       9.378  -2.107  24.316  0.00  0.00    +0.000 N 
ATOM     11  C   UNL     1       9.266  -1.300  25.326  0.00  0.00    +0.000 C 
BRANCH   2  15
ATOM     12  C   UNL     1       5.153   1.534  25.725  0.00  0.00    +0.000 A 
ATOM     13  C   UNL     1       6.384   2.446  25.768  0.00  0.00    +0.000 A 
ATOM     14  C   UNL     1       7.732   2.199  25.237  0.00  0.00    +0.000 A 
ATOM     15  C   UNL     1       7.904   0.693  24.949  0.00  0.00    +0.000 A 
ATOM     16  C   UNL     1       6.826  -0.280  24.674  0.00  0.00    +0.000 A 
ATOM     17  C   UNL     1       5.507   0.158  25.392  0.00  0.00    +0.000 A 
ENDBRANCH   2  15
ENDBRANCH   1  10
BRANCH   1  18
ATOM     18  C   UNL     1       8.101  -4.332  23.770  0.00  0.00    +0.000 C 
ATOM     19  O   UNL     1       8.569  -5.479  23.665  0.00  0.00    +0.000 OA
ATOM     20  N   UNL     1       7.445  -3.850  22.715  0.00  0.00    +0.000 N 
ATOM     21  H   UNL     1       7.920  -3.301  22.190  0.00  0.00    +0.000 HD
BRANCH  20  22
ATOM     22  C   UNL     1       6.142  -3.792  22.745  0.00  0.00    +0.000 A 
ATOM     23  C   UNL     1       5.833  -5.069  21.986  0.00  0.00    +0.000 A 
ATOM     24  C   UNL     1       5.056  -6.171  22.431  0.00  0.00    +0.000 A 
ATOM     25  C   UNL     1       4.106  -5.749  23.652  0.00  0.00    +0.000 A 
ATOM     26  C   UNL     1       2.687  -6.119  23.013  0.00  0.00    +0.000 C 
ATOM     27  C   UNL     1       4.381  -4.699  24.549  0.00  0.00    +0.000 A 
ATOM     28  C   UNL     1       5.277  -3.544  23.893  0.00  0.00    +0.000 A 
BRANCH  27  29
ATOM     29  N   UNL     1       4.554  -4.753  25.842  0.00  0.00    +0.000 N 
ATOM     30  C   UNL     1       5.750  -5.332  26.271  0.00  0.00    +0.000 C 
ATOM     31  O   UNL     1       5.743  -6.528  26.494  0.00  0.00    +0.000 OA
ATOM     32  C   UNL     1       6.377  -4.379  27.320  0.00  0.00    +0.000 C 
ATOM     33  C   UNL     1       5.239  -3.416  27.681  0.00  0.00    +0.000 C 
ATOM     34  C   UNL     1       4.012  -3.870  26.845  0.00  0.00    +0.000 C 
ENDBRANCH  27  29
ENDBRANCH  20  22
ENDBRANCH   1  18
TORSDOF 5
ENDMDL
MODEL 5
REMARK VINA RESULT:      -8.8      2.228      4.132
REMARK  Name = 
REMARK  6 active torsions:
REMARK  status: ('A' for Active; 'I' for Inactive)
REMARK    1  A    between atoms: C_7  and  C_8
REMARK    2  A    between atoms: N_23  and  C_24
REMARK    3  A    between atoms: C_24  and  C_27
REMARK    4  A    between atoms: N_29  and  C_31
REMARK    5  A    between atoms: C_36  and  C_37
REMARK    6  A    between atoms: C_41  and  N_42
REMARK                            x       y       z     vdW  Elec       q    Type
REMARK                         _______ _______ _______ _____ _____    ______ ____
ROOT
ATOM      1  C   UNL     1       9.477  -1.518  24.164  0.00  0.00    +0.000 C 
ENDROOT
BRANCH   1  10
ATOM      2  C   UNL     1       8.462   0.970  21.695  0.00  0.00    +0.000 C 
ATOM      3  C   UNL     1       8.090   0.080  20.574  0.00  0.00    +0.000 A 
ATOM      4  C   UNL     1       7.668   0.267  19.449  0.00  0.00    +0.000 A 
ATOM      5  C   UNL     1       6.379   0.002  18.801  0.00  0.00    +0.000 A 
ATOM      6  C   UNL     1       5.832  -1.158  19.654  0.00  0.00    +0.000 A 
ATOM      7  C   UNL     1       6.120  -1.770  20.869  0.00  0.00    +0.000 A 
ATOM      8  C   UNL     1       7.459  -1.266  21.257  0.00  0.00    +0.000 A 
ATOM      9  C   UNL     1       8.582  -2.053  21.890  0.00  0.00    +0.000 C 
ATOM     10  N   UNL     1       9.056  -1.270  22.848  0.00  0.00    +0.000 N 
ATOM     11  C   UNL     1       9.203  -0.010  22.580  0.00  0.00    +0.000 C 
BRANCH   2  15
ATOM     12  C   UNL     1       5.602   3.264  23.901  0.00  0.00    +0.000 A 
ATOM     13  C   UNL     1       5.815   3.341  22.385  0.00  0.00    +0.000 A 
ATOM     14  C   UNL     1       6.384   2.330  21.483  0.00  0.00    +0.000 A 
ATOM     15  C   UNL     1       7.140   1.269  22.309  0.00  0.00    +0.000 A 
ATOM     16  C   UNL     1       6.904   0.925  23.728  0.00  0.00    +0.000 A 
ATOM     17  C   UNL     1       6.360   2.171  24.502  0.00  0.00    +0.000 A 
ENDBRANCH   2  15
ENDBRANCH   1  10
BRANCH   1  18
ATOM     18  C   UNL     1       8.858  -2.143  25.314  0.00  0.00    +0.000 C 
ATOM     19  O   UNL     1       8.635  -1.550  26.383  0.00  0.00    +0.000 OA
ATOM     20  N   UNL     1       9.096  -3.452  25.388  0.00  0.00    +0.000 N 
ATOM     21  H   UNL     1       9.961  -3.683  25.368  0.00  0.00    +0.000 HD
BRANCH  20  22
ATOM     22  C   UNL     1       8.166  -4.292  25.026  0.00  0.00    +0.000 A 
ATOM     23  C   UNL     1       8.152  -5.175  26.259  0.00  0.00    +0.000 A 
ATOM     24  C   UNL     1       7.047  -5.462  27.103  0.00  0.00    +0.000 A 
ATOM     25  C   UNL     1       5.660  -5.151  26.360  0.00  0.00    +0.000 A 
ATOM     26  C   UNL     1       4.993  -6.602  26.445  0.00  0.00    +0.000 C 
ATOM     27  C   UNL     1       5.505  -4.208  25.325  0.00  0.00    +0.000 A 
ATOM     28  C   UNL     1       6.848  -3.994  24.477  0.00  0.00    +0.000 A 
BRANCH  27  29
ATOM     29  N   UNL     1       4.755  -3.140  25.299  0.00  0.00    +0.000 N 
ATOM     30  C   UNL     1       3.478  -3.282  25.847  0.00  0.00    +0.000 C 
ATOM     31  O   UNL     1       2.579  -3.603  25.092  0.00  0.00    +0.000 OA
ATOM     32  C   UNL     1       3.253  -2.093  26.814  0.00  0.00    +0.000 C 
ATOM     33  C   UNL     1       4.377  -1.108  26.466  0.00  0.00    +0.000 C 
ATOM     34  C   UNL     1       5.177  -1.761  25.308  0.00  0.00    +0.000 C 
ENDBRANCH  27  29
ENDBRANCH  20  22
ENDBRANCH   1  18
TORSDOF 5
ENDMDL
MODEL 6
REMARK VINA RESULT:      -8.8      2.063      8.098
REMARK  Name = 
REMARK  6 active torsions:
REMARK  status: ('A' for Active; 'I' for Inactive)
REMARK    1  A    between atoms: C_7  and  C_8
REMARK    2  A    between atoms: N_23  and  C_24
REMARK    3  A    between atoms: C_24  and  C_27
REMARK    4  A    between atoms: N_29  and  C_31
REMARK    5  A    between atoms: C_36  and  C_37
REMARK    6  A    between atoms: C_41  and  N_42
REMARK                            x       y       z     vdW  Elec       q    Type
REMARK                         _______ _______ _______ _____ _____    ______ ____
ROOT
ATOM      1  C   UNL     1       8.564  -1.696  25.318  0.00  0.00    +0.000 C 
ENDROOT
BRANCH   1  10
ATOM      2  C   UNL     1       5.492  -3.639  24.992  0.00  0.00    +0.000 C 
ATOM      3  C   UNL     1       5.605  -4.058  23.578  0.00  0.00    +0.000 A 
ATOM      4  C   UNL     1       4.912  -4.727  22.836  0.00  0.00    +0.000 A 
ATOM      5  C   UNL     1       5.081  -6.049  22.221  0.00  0.00    +0.000 A 
ATOM      6  C   UNL     1       6.615  -6.184  22.185  0.00  0.00    +0.000 A 
ATOM      7  C   UNL     1       7.720  -5.546  22.738  0.00  0.00    +0.000 A 
ATOM      8  C   UNL     1       7.202  -4.274  23.297  0.00  0.00    +0.000 A 
ATOM      9  C   UNL     1       7.867  -2.919  23.250  0.00  0.00    +0.000 C 
ATOM     10  N   UNL     1       7.712  -2.415  24.465  0.00  0.00    +0.000 N 
ATOM     11  C   UNL     1       6.557  -2.563  25.037  0.00  0.00    +0.000 C 
BRANCH   2  15
ATOM     12  C   UNL     1       5.657  -6.509  28.161  0.00  0.00    +0.000 A 
ATOM     13  C   UNL     1       4.795  -6.635  26.900  0.00  0.00    +0.000 A 
ATOM     14  C   UNL     1       4.989  -6.006  25.586  0.00  0.00    +0.000 A 
ATOM     15  C   UNL     1       5.991  -4.841  25.715  0.00  0.00    +0.000 A 
ATOM     16  C   UNL     1       7.030  -4.683  26.755  0.00  0.00    +0.000 A 
ATOM     17  C   UNL     1       6.575  -5.377  28.081  0.00  0.00    +0.000 A 
ENDBRANCH   2  15
ENDBRANCH   1  10
BRANCH   1  18
ATOM     18  C   UNL     1       8.996  -0.316  25.375  0.00  0.00    +0.000 C 
ATOM     19  O   UNL     1      10.189   0.032  25.389  0.00  0.00    +0.000 OA
ATOM     20  N   UNL     1       8.128   0.478  26.001  0.00  0.00    +0.000 N 
ATOM     21  H   UNL     1       7.900   0.216  26.827  0.00  0.00    +0.000 HD
BRANCH  20  22
ATOM     22  C   UNL     1       7.343   1.247  25.298  0.00  0.00    +0.000 A 
ATOM     23  C   UNL     1       7.820   2.595  25.804  0.00  0.00    +0.000 A 
ATOM     24  C   UNL     1       8.336   3.672  25.036  0.00  0.00    +0.000 A 
ATOM     25  C   UNL     1       7.924   3.529  23.493  0.00  0.00    +0.000 A 
ATOM     26  C   UNL     1       7.140   4.910  23.307  0.00  0.00    +0.000 C 
ATOM     27  C   UNL     1       7.644   2.305  22.854  0.00  0.00    +0.000 A 
ATOM     28  C   UNL     1       7.080   1.195  23.864  0.00  0.00    +0.000 A 
BRANCH  27  29
ATOM     29  N   UNL     1       8.254   1.754  21.841  0.00  0.00    +0.000 N 
ATOM     30  C   UNL     1       9.545   1.284  22.092  0.00  0.00    +0.000 C 
ATOM     31  O   UNL     1      10.468   2.050  21.885  0.00  0.00    +0.000 OA
ATOM     32  C   UNL     1       9.631  -0.159  21.534  0.00  0.00    +0.000 C 
ATOM     33  C   UNL     1       8.389  -0.292  20.643  0.00  0.00    +0.000 C 
ATOM     34  C   UNL     1       7.663   1.078  20.712  0.00  0.00    +0.000 C 
ENDBRANCH  27  29
ENDBRANCH  20  22
ENDBRANCH   1  18
TORSDOF 5
ENDMDL
MODEL 7
REMARK VINA RESULT:      -8.7      2.518      7.568
REMARK  Name = 
REMARK  6 active torsions:
REMARK  status: ('A' for Active; 'I' for Inactive)
REMARK    1  A    between atoms: C_7  and  C_8
REMARK    2  A    between atoms: N_23  and  C_24
REMARK    3  A    between atoms: C_24  and  C_27
REMARK    4  A    between atoms: N_29  and  C_31
REMARK    5  A    between atoms: C_36  and  C_37
REMARK    6  A    between atoms: C_41  and  N_42
REMARK                            x       y       z     vdW  Elec       q    Type
REMARK                         _______ _______ _______ _____ _____    ______ ____
ROOT
ATOM      1  C   UNL     1       9.700  -2.719  23.966  0.00  0.00    +0.000 C 
ENDROOT
BRANCH   1  10
ATOM      2  C   UNL     1       6.102  -3.085  24.454  0.00  0.00    +0.000 C 
ATOM      3  C   UNL     1       6.036  -4.522  24.798  0.00  0.00    +0.000 A 
ATOM      4  C   UNL     1       5.131  -5.285  25.078  0.00  0.00    +0.000 A 
ATOM      5  C   UNL     1       4.744  -5.975  26.314  0.00  0.00    +0.000 A 
ATOM      6  C   UNL     1       6.087  -6.052  27.064  0.00  0.00    +0.000 A 
ATOM      7  C   UNL     1       7.355  -5.489  26.970  0.00  0.00    +0.000 A 
ATOM      8  C   UNL     1       7.404  -4.850  25.633  0.00  0.00    +0.000 A 
ATOM      9  C   UNL     1       8.568  -4.836  24.670  0.00  0.00    +0.000 C 
ATOM     10  N   UNL     1       8.630  -3.592  24.220  0.00  0.00    +0.000 N 
ATOM     11  C   UNL     1       7.515  -3.004  23.915  0.00  0.00    +0.000 C 
BRANCH   2  15
ATOM     12  C   UNL     1       5.518   0.106  27.245  0.00  0.00    +0.000 A 
ATOM     13  C   UNL     1       4.438  -0.888  26.801  0.00  0.00    +0.000 A 
ATOM     14  C   UNL     1       4.602  -2.244  26.258  0.00  0.00    +0.000 A 
ATOM     15  C   UNL     1       6.060  -2.441  25.795  0.00  0.00    +0.000 A 
ATOM     16  C   UNL     1       7.246  -1.707  26.285  0.00  0.00    +0.000 A 
ATOM     17  C   UNL     1       6.838  -0.270  26.750  0.00  0.00    +0.000 A 
ENDBRANCH   2  15
ENDBRANCH   1  10
BRANCH   1  18
ATOM     18  C   UNL     1       9.879  -1.578  23.094  0.00  0.00    +0.000 C 
ATOM     19  O   UNL     1      10.352  -1.655  21.948  0.00  0.00    +0.000 OA
ATOM     20  N   UNL     1      10.086  -0.441  23.758  0.00  0.00    +0.000 N 
ATOM     21  H   UNL     1      10.762  -0.461  24.345  0.00  0.00    +0.000 HD
BRANCH  20  22
ATOM     22  C   UNL     1       9.106   0.410  23.887  0.00  0.00    +0.000 A 
ATOM     23  C   UNL     1       9.870   1.692  23.618  0.00  0.00    +0.000 A 
ATOM     24  C   UNL     1       9.601   2.665  22.620  0.00  0.00    +0.000 A 
ATOM     25  C   UNL     1       8.094   2.538  22.084  0.00  0.00    +0.000 A 
ATOM     26  C   UNL     1       7.574   4.009  22.430  0.00  0.00    +0.000 C 
ATOM     27  C   UNL     1       7.341   1.347  22.102  0.00  0.00    +0.000 A 
ATOM     28  C   UNL     1       7.779   0.356  23.282  0.00  0.00    +0.000 A 
BRANCH  27  29
ATOM     29  N   UNL     1       6.830   0.689  21.097  0.00  0.00    +0.000 N 
ATOM     30  C   UNL     1       6.373   1.467  20.031  0.00  0.00    +0.000 C 
ATOM     31  O   UNL     1       5.205   1.810  20.052  0.00  0.00    +0.000 OA
ATOM     32  C   UNL     1       6.951   0.858  18.730  0.00  0.00    +0.000 C 
ATOM     33  C   UNL     1       7.464  -0.523  19.157  0.00  0.00    +0.000 C 
ATOM     34  C   UNL     1       7.139  -0.653  20.669  0.00  0.00    +0.000 C 
ENDBRANCH  27  29
ENDBRANCH  20  22
ENDBRANCH   1  18
TORSDOF 5
ENDMDL
MODEL 8
REMARK VINA RESULT:      -8.5      2.108      4.208
REMARK  Name = 
REMARK  6 active torsions:
REMARK  status: ('A' for Active; 'I' for Inactive)
REMARK    1  A    between atoms: C_7  and  C_8
REMARK    2  A    between atoms: N_23  and  C_24
REMARK    3  A    between atoms: C_24  and  C_27
REMARK    4  A    between atoms: N_29  and  C_31
REMARK    5  A    between atoms: C_36  and  C_37
REMARK    6  A    between atoms: C_41  and  N_42
REMARK                            x       y       z     vdW  Elec       q    Type
REMARK                         _______ _______ _______ _____ _____    ______ ____
ROOT
ATOM      1  C   UNL     1       9.427  -1.770  24.226  0.00  0.00    +0.000 C 
ENDROOT
BRANCH   1  10
ATOM      2  C   UNL     1       8.641   0.760  21.716  0.00  0.00    +0.000 C 
ATOM      3  C   UNL     1       8.175  -0.109  20.615  0.00  0.00    +0.000 A 
ATOM      4  C   UNL     1       7.765   0.098  19.489  0.00  0.00    +0.000 A 
ATOM      5  C   UNL     1       6.450  -0.051  18.854  0.00  0.00    +0.000 A 
ATOM      6  C   UNL     1       5.800  -1.137  19.731  0.00  0.00    +0.000 A 
ATOM      7  C   UNL     1       6.035  -1.752  20.956  0.00  0.00    +0.000 A 
ATOM      8  C   UNL     1       7.420  -1.374  21.326  0.00  0.00    +0.000 A 
ATOM      9  C   UNL     1       8.466  -2.256  21.967  0.00  0.00    +0.000 C 
ATOM     10  N   UNL     1       9.022  -1.506  22.908  0.00  0.00    +0.000 N 
ATOM     11  C   UNL     1       9.290  -0.271  22.615  0.00  0.00    +0.000 C 
BRANCH   2  15
ATOM     12  C   UNL     1       5.998   3.423  23.775  0.00  0.00    +0.000 A 
ATOM     13  C   UNL     1       6.170   3.351  22.253  0.00  0.00    +0.000 A 
ATOM     14  C   UNL     1       6.647   2.229  21.433  0.00  0.00    +0.000 A 
ATOM     15  C   UNL     1       7.359   1.198  22.333  0.00  0.00    +0.000 A 
ATOM     16  C   UNL     1       7.145   0.998  23.782  0.00  0.00    +0.000 A 
ATOM     17  C   UNL     1       6.704   2.340  24.453  0.00  0.00    +0.000 A 
ENDBRANCH   2  15
ENDBRANCH   1  10
BRANCH   1  18
ATOM     18  C   UNL     1       8.897  -1.422  25.527  0.00  0.00    +0.000 C 
ATOM     19  O   UNL     1       9.073  -0.318  26.069  0.00  0.00    +0.000 OA
ATOM     20  N   UNL     1       8.755  -2.474  26.332  0.00  0.00    +0.000 N 
ATOM     21  H   UNL     1       9.494  -2.967  26.447  0.00  0.00    +0.000 HD
BRANCH  20  22
ATOM     22  C   UNL     1       7.569  -2.987  26.511  0.00  0.00    +0.000 A 
ATOM     23  C   UNL     1       6.732  -1.826  26.008  0.00  0.00    +0.000 A 
ATOM     24  C   UNL     1       5.770  -1.842  24.964  0.00  0.00    +0.000 A 
ATOM     25  C   UNL     1       5.276  -3.338  24.660  0.00  0.00    +0.000 A 
ATOM     26  C   UNL     1       3.711  -3.149  24.925  0.00  0.00    +0.000 C 
ATOM     27  C   UNL     1       6.043  -4.494  24.905  0.00  0.00    +0.000 A 
ATOM     28  C   UNL     1       7.086  -4.303  26.106  0.00  0.00    +0.000 A 
BRANCH  27  29
ATOM     29  N   UNL     1       6.462  -5.391  24.054  0.00  0.00    +0.000 N 
ATOM     30  C   UNL     1       5.466  -6.068  23.346  0.00  0.00    +0.000 C 
ATOM     31  O   UNL     1       5.051  -7.108  23.825  0.00  0.00    +0.000 OA
ATOM     32  C   UNL     1       5.860  -6.039  21.848  0.00  0.00    +0.000 C 
ATOM     33  C   UNL     1       7.330  -5.600  21.854  0.00  0.00    +0.000 C 
ATOM     34  C   UNL     1       7.718  -5.421  23.346  0.00  0.00    +0.000 C 
ENDBRANCH  27  29
ENDBRANCH  20  22
ENDBRANCH   1  18
TORSDOF 5
ENDMDL
MODEL 9
REMARK VINA RESULT:      -8.4      2.177      6.924
REMARK  Name = 
REMARK  6 active torsions:
REMARK  status: ('A' for Active; 'I' for Inactive)
REMARK    1  A    between atoms: C_7  and  C_8
REMARK    2  A    between atoms: N_23  and  C_24
REMARK    3  A    between atoms: C_24  and  C_27
REMARK    4  A    between atoms: N_29  and  C_31
REMARK    5  A    between atoms: C_36  and  C_37
REMARK    6  A    between atoms: C_41  and  N_42
REMARK                            x       y       z     vdW  Elec       q    Type
REMARK                         _______ _______ _______ _____ _____    ______ ____
ROOT
ATOM      1  C   UNL     1       9.713  -2.633  23.968  0.00  0.00    +0.000 C 
ENDROOT
BRANCH   1  10
ATOM      2  C   UNL     1       7.668  -5.263  25.459  0.00  0.00    +0.000 C 
ATOM      3  C   UNL     1       7.301  -4.609  26.733  0.00  0.00    +0.000 A 
ATOM      4  C   UNL     1       6.631  -4.940  27.692  0.00  0.00    +0.000 A 
ATOM      5  C   UNL     1       5.337  -4.491  28.220  0.00  0.00    +0.000 A 
ATOM      6  C   UNL     1       5.261  -3.051  27.678  0.00  0.00    +0.000 A 
ATOM      7  C   UNL     1       5.921  -2.266  26.740  0.00  0.00    +0.000 A 
ATOM      8  C   UNL     1       7.154  -3.015  26.396  0.00  0.00    +0.000 A 
ATOM      9  C   UNL     1       8.534  -2.445  26.167  0.00  0.00    +0.000 C 
ATOM     10  N   UNL     1       8.992  -3.069  25.091  0.00  0.00    +0.000 N 
ATOM     11  C   UNL     1       8.781  -4.345  24.998  0.00  0.00    +0.000 C 
BRANCH   2  15
ATOM     12  C   UNL     1       4.789  -6.098  22.406  0.00  0.00    +0.000 A 
ATOM     13  C   UNL     1       4.670  -6.526  23.873  0.00  0.00    +0.000 A 
ATOM     14  C   UNL     1       5.301  -5.932  25.060  0.00  0.00    +0.000 A 
ATOM     15  C   UNL     1       6.463  -5.017  24.621  0.00  0.00    +0.000 A 
ATOM     16  C   UNL     1       6.614  -4.352  23.310  0.00  0.00    +0.000 A 
ATOM     17  C   UNL     1       5.918  -5.198  22.193  0.00  0.00    +0.000 A 
ENDBRANCH   2  15
ENDBRANCH   1  10
BRANCH   1  18
ATOM     18  C   UNL     1       9.490  -1.612  22.967  0.00  0.00    +0.000 C 
ATOM     19  O   UNL     1       8.814  -1.792  21.940  0.00  0.00    +0.000 OA
ATOM     20  N   UNL     1      10.486  -0.731  22.887  0.00  0.00    +0.000 N 
ATOM     21  H   UNL     1      11.299  -1.087  22.758  0.00  0.00    +0.000 HD
BRANCH  20  22
ATOM     22  C   UNL     1      10.345   0.444  23.435  0.00  0.00    +0.000 A 
ATOM     23  C   UNL     1      10.033   1.249  22.188  0.00  0.00    +0.000 A 
ATOM     24  C   UNL     1       8.885   2.046  21.939  0.00  0.00    +0.000 A 
ATOM     25  C   UNL     1       8.139   2.423  23.309  0.00  0.00    +0.000 A 
ATOM     26  C   UNL     1       8.201   4.017  23.203  0.00  0.00    +0.000 C 
ATOM     27  C   UNL     1       8.195   1.650  24.484  0.00  0.00    +0.000 A 
ATOM     28  C   UNL     1       9.551   0.803  24.605  0.00  0.00    +0.000 A 
BRANCH  27  29
ATOM     29  N   UNL     1       7.218   1.071  25.129  0.00  0.00    +0.000 N 
ATOM     30  C   UNL     1       7.080   1.431  26.471  0.00  0.00    +0.000 C 
ATOM     31  O   UNL     1       7.666   0.751  27.294  0.00  0.00    +0.000 OA
ATOM     32  C   UNL     1       5.588   1.772  26.709  0.00  0.00    +0.000 C 
ATOM     33  C   UNL     1       4.873   1.220  25.469  0.00  0.00    +0.000 C 
ATOM     34  C   UNL     1       5.977   0.571  24.592  0.00  0.00    +0.000 C 
ENDBRANCH  27  29
ENDBRANCH  20  22
ENDBRANCH   1  18
TORSDOF 5
ENDMDL
