MODEL 1
REMARK VINA RESULT:      -8.7      0.000      0.000
REMARK  Name = 
REMARK  6 active torsions:
REMARK  status: ('A' for Active; 'I' for Inactive)
REMARK    1  A    between atoms: C_7  and  C_8
REMARK    2  A    between atoms: C_24  and  C_26
REMARK    3  A    between atoms: C_26  and  C_29
REMARK    4  A    between atoms: C_29  and  N_32
REMARK    5  A    between atoms: C_34  and  C_36
REMARK    6  A    between atoms: N_38  and  C_39
REMARK                            x       y       z     vdW  Elec       q    Type
REMARK                         _______ _______ _______ _____ _____    ______ ____
ROOT
ATOM      1  C   UNL     1       7.567   0.123  21.963  0.00  0.00    +0.000 C 
ATOM      2  C   UNL     1       7.889   1.369  22.579  0.00  0.00    +0.000 A 
ATOM      3  C   UNL     1       9.371   1.385  21.836  0.00  0.00    +0.000 A 
ATOM      4  C   UNL     1      10.492   2.032  22.516  0.00  0.00    +0.000 A 
ATOM      5  C   UNL     1       9.940   2.627  23.899  0.00  0.00    +0.000 A 
ATOM      6  C   UNL     1       8.694   2.494  24.500  0.00  0.00    +0.000 A 
ATOM      7  C   UNL     1       8.244   1.149  24.007  0.00  0.00    +0.000 A 
ATOM      8  C   UNL     1       8.796  -0.052  24.786  0.00  0.00    +0.000 C 
ATOM      9  N   UNL     1       8.793  -0.984  23.789  0.00  0.00    +0.000 N 
ATOM     10  C   UNL     1       8.906  -2.349  24.231  0.00  0.00    +0.000 C 
ATOM     11  O   UNL     1       9.988  -2.759  23.766  0.00  0.00    +0.000 OA
ATOM     12  C   UNL     1       7.937  -0.971  22.674  0.00  0.00    +0.000 C 
ENDROOT
BRANCH   1  16
ATOM     13  C   UNL     1       5.233   0.520  18.587  0.00  0.00    +0.000 A 
ATOM     14  C   UNL     1       5.292   1.570  19.617  0.00  0.00    +0.000 A 
ATOM     15  C   UNL     1       6.338   1.847  20.662  0.00  0.00    +0.000 A 
ATOM     16  C   UNL     1       7.320   0.595  20.782  0.00  0.00    +0.000 A 
ATOM     17  C   UNL     1       7.706   0.034  19.376  0.00  0.00    +0.000 A 
ATOM     18  C   UNL     1       6.552  -0.122  18.397  0.00  0.00    +0.000 A 
ENDBRANCH   1  16
BRANCH  10  19
ATOM     19  C   UNL     1       8.872  -2.282  25.768  0.00  0.00    +0.000 C 
BRANCH  19  20
ATOM     20  C   UNL     1       8.505  -3.495  26.493  0.00  0.00    +0.000 C 
BRANCH  20  21
ATOM     21  N   UNL     1       7.706  -4.545  25.930  0.00  0.00    +0.000 N 
ATOM     22  H   UNL     1       7.560  -4.584  24.983  0.00  0.00    +0.000 HD
ATOM     23  C   UNL     1       7.064  -5.541  26.536  0.00  0.00    +0.000 C 
ATOM     24  O   UNL     1       7.393  -5.863  27.682  0.00  0.00    +0.000 OA
BRANCH  23  25
ATOM     25  C   UNL     1       5.884  -5.862  25.944  0.00  0.00    +0.000 C 
ATOM     26  N   UNL     1       5.947  -5.470  24.586  0.00  0.00    +0.000 NA
ATOM     27  N   UNL     1       5.099  -5.986  23.977  0.00  0.00    +0.000 N 
ATOM     28  C   UNL     1       4.081  -5.146  23.326  0.00  0.00    +0.000 C 
ATOM     29  C   UNL     1       4.384  -7.019  24.640  0.00  0.00    +0.000 C 
ATOM     30  C   UNL     1       4.764  -6.680  26.035  0.00  0.00    +0.000 C 
ENDBRANCH  23  25
ENDBRANCH  20  21
ENDBRANCH  19  20
ENDBRANCH  10  19
TORSDOF 5
ENDMDL
MODEL 2
REMARK VINA RESULT:      -7.6      2.139      7.547
REMARK  Name = 
REMARK  6 active torsions:
REMARK  status: ('A' for Active; 'I' for Inactive)
REMARK    1  A    between atoms: C_7  and  C_8
REMARK    2  A    between atoms: C_24  and  C_26
REMARK    3  A    between atoms: C_26  and  C_29
REMARK    4  A    between atoms: C_29  and  N_32
REMARK    5  A    between atoms: C_34  and  C_36
REMARK    6  A    between atoms: N_38  and  C_39
REMARK                            x       y       z     vdW  Elec       q    Type
REMARK                         _______ _______ _______ _____ _____    ______ ____
ROOT
ATOM      1  C   UNL     1       5.929  -4.623  24.921  0.00  0.00    +0.000 C 
ATOM      2  C   UNL     1       5.446  -4.511  23.583  0.00  0.00    +0.000 A 
ATOM      3  C   UNL     1       5.977  -6.042  23.233  0.00  0.00    +0.000 A 
ATOM      4  C   UNL     1       6.406  -6.344  21.868  0.00  0.00    +0.000 A 
ATOM      5  C   UNL     1       6.206  -5.014  20.994  0.00  0.00    +0.000 A 
ATOM      6  C   UNL     1       5.837  -3.732  21.382  0.00  0.00    +0.000 A 
ATOM      7  C   UNL     1       6.367  -3.658  22.785  0.00  0.00    +0.000 A 
ATOM      8  C   UNL     1       7.858  -3.312  22.904  0.00  0.00    +0.000 C 
ATOM      9  N   UNL     1       8.141  -3.952  24.075  0.00  0.00    +0.000 N 
ATOM     10  C   UNL     1       9.371  -3.550  24.706  0.00  0.00    +0.000 C 
ATOM     11  O   UNL     1      10.095  -4.564  24.695  0.00  0.00    +0.000 OA
ATOM     12  C   UNL     1       7.212  -4.220  25.094  0.00  0.00    +0.000 C 
ENDROOT
BRANCH   1  16
ATOM     13  C   UNL     1       2.983  -5.631  27.624  0.00  0.00    +0.000 A 
ATOM     14  C   UNL     1       2.665  -5.030  26.320  0.00  0.00    +0.000 A 
ATOM     15  C   UNL     1       3.473  -4.978  25.051  0.00  0.00    +0.000 A 
ATOM     16  C   UNL     1       4.982  -5.391  25.361  0.00  0.00    +0.000 A 
ATOM     17  C   UNL     1       5.053  -6.623  26.319  0.00  0.00    +0.000 A 
ATOM     18  C   UNL     1       4.123  -6.569  27.521  0.00  0.00    +0.000 A 
ENDBRANCH   1  16
BRANCH  10  19
ATOM     19  C   UNL     1       9.907  -2.391  23.849  0.00  0.00    +0.000 C 
BRANCH  19  20
ATOM     20  C   UNL     1       9.776  -1.037  24.379  0.00  0.00    +0.000 C 
BRANCH  20  21
ATOM     21  N   UNL     1       9.018  -0.003  23.738  0.00  0.00    +0.000 N 
ATOM     22  H   UNL     1       8.065   0.036  23.850  0.00  0.00    +0.000 HD
ATOM     23  C   UNL     1       9.426   0.978  22.937  0.00  0.00    +0.000 C 
ATOM     24  O   UNL     1      10.618   1.304  22.941  0.00  0.00    +0.000 OA
BRANCH  23  25
ATOM     25  C   UNL     1       8.539   1.276  21.951  0.00  0.00    +0.000 C 
ATOM     26  N   UNL     1       8.335   0.113  21.172  0.00  0.00    +0.000 NA
ATOM     27  N   UNL     1       7.378   0.228  20.519  0.00  0.00    +0.000 N 
ATOM     28  C   UNL     1       7.510   0.198  19.054  0.00  0.00    +0.000 C 
ATOM     29  C   UNL     1       6.544   1.340  20.811  0.00  0.00    +0.000 C 
ATOM     30  C   UNL     1       7.527   2.150  21.573  0.00  0.00    +0.000 C 
ENDBRANCH  23  25
ENDBRANCH  20  21
ENDBRANCH  19  20
ENDBRANCH  10  19
TORSDOF 5
ENDMDL
MODEL 3
REMARK VINA RESULT:      -7.6      2.310      6.843
REMARK  Name = 
REMARK  6 active torsions:
REMARK  status: ('A' for Active; 'I' for Inactive)
REMARK    1  A    between atoms: C_7  and  C_8
REMARK    2  A    between atoms: C_24  and  C_26
REMARK    3  A    between atoms: C_26  and  C_29
REMARK    4  A    between atoms: C_29  and  N_32
REMARK    5  A    between atoms: C_34  and  C_36
REMARK    6  A    between atoms: N_38  and  C_39
REMARK                            x       y       z     vdW  Elec       q    Type
REMARK                         _______ _______ _______ _____ _____    ______ ____
ROOT
ATOM      1  C   UNL     1       6.430  -3.533  23.757  0.00  0.00    +0.000 C 
ATOM      2  C   UNL     1       7.436  -4.432  24.222  0.00  0.00    +0.000 A 
ATOM      3  C   UNL     1       6.760  -4.451  25.735  0.00  0.00    +0.000 A 
ATOM      4  C   UNL     1       7.631  -4.641  26.893  0.00  0.00    +0.000 A 
ATOM      5  C   UNL     1       9.128  -4.823  26.347  0.00  0.00    +0.000 A 
ATOM      6  C   UNL     1       9.633  -4.704  25.058  0.00  0.00    +0.000 A 
ATOM      7  C   UNL     1       8.708  -3.693  24.444  0.00  0.00    +0.000 A 
ATOM      8  C   UNL     1       9.039  -2.228  24.756  0.00  0.00    +0.000 C 
ATOM      9  N   UNL     1       7.785  -1.696  24.679  0.00  0.00    +0.000 N 
ATOM     10  C   UNL     1       7.739  -0.262  24.556  0.00  0.00    +0.000 C 
ATOM     11  O   UNL     1       7.175   0.141  25.592  0.00  0.00    +0.000 OA
ATOM     12  C   UNL     1       6.731  -2.219  23.911  0.00  0.00    +0.000 C 
ENDROOT
BRANCH   1  16
ATOM     13  C   UNL     1       3.873  -6.355  25.339  0.00  0.00    +0.000 A 
ATOM     14  C   UNL     1       3.423  -4.988  25.031  0.00  0.00    +0.000 A 
ATOM     15  C   UNL     1       4.006  -3.962  24.096  0.00  0.00    +0.000 A 
ATOM     16  C   UNL     1       5.476  -4.405  23.663  0.00  0.00    +0.000 A 
ATOM     17  C   UNL     1       5.541  -5.932  23.336  0.00  0.00    +0.000 A 
ATOM     18  C   UNL     1       4.842  -6.843  24.334  0.00  0.00    +0.000 A 
ENDBRANCH   1  16
BRANCH  10  19
ATOM     19  C   UNL     1       9.206   0.182  24.431  0.00  0.00    +0.000 C 
BRANCH  19  20
ATOM     20  C   UNL     1       9.602   0.882  23.212  0.00  0.00    +0.000 C 
BRANCH  20  21
ATOM     21  N   UNL     1       8.925   0.736  21.957  0.00  0.00    +0.000 N 
ATOM     22  H   UNL     1       8.505   1.495  21.546  0.00  0.00    +0.000 HD
ATOM     23  C   UNL     1       8.742  -0.350  21.211  0.00  0.00    +0.000 C 
ATOM     24  O   UNL     1       9.474  -1.331  21.383  0.00  0.00    +0.000 OA
BRANCH  23  25
ATOM     25  C   UNL     1       7.540  -0.376  20.579  0.00  0.00    +0.000 C 
ATOM     26  N   UNL     1       7.685   0.256  19.321  0.00  0.00    +0.000 NA
ATOM     27  N   UNL     1       6.783  -0.004  18.632  0.00  0.00    +0.000 N 
ATOM     28  C   UNL     1       5.911   1.084  18.163  0.00  0.00    +0.000 C 
ATOM     29  C   UNL     1       5.913  -1.029  19.090  0.00  0.00    +0.000 C 
ATOM     30  C   UNL     1       6.311  -1.023  20.521  0.00  0.00    +0.000 C 
ENDBRANCH  23  25
ENDBRANCH  20  21
ENDBRANCH  19  20
ENDBRANCH  10  19
TORSDOF 5
ENDMDL
MODEL 4
REMARK VINA RESULT:      -7.5      2.577      4.482
REMARK  Name = 
REMARK  6 active torsions:
REMARK  status: ('A' for Active; 'I' for Inactive)
REMARK    1  A    between atoms: C_7  and  C_8
REMARK    2  A    between atoms: C_24  and  C_26
REMARK    3  A    between atoms: C_26  and  C_29
REMARK    4  A    between atoms: C_29  and  N_32
REMARK    5  A    between atoms: C_34  and  C_36
REMARK    6  A    between atoms: N_38  and  C_39
REMARK                            x       y       z     vdW  Elec       q    Type
REMARK                         _______ _______ _______ _____ _____    ______ ____
ROOT
ATOM      1  C   UNL     1       9.477   2.051  24.168  0.00  0.00    +0.000 C 
ATOM      2  C   UNL     1      10.083   1.191  23.203  0.00  0.00    +0.000 A 
ATOM      3  C   UNL     1       8.808   1.411  22.166  0.00  0.00    +0.000 A 
ATOM      4  C   UNL     1       8.442   0.323  21.261  0.00  0.00    +0.000 A 
ATOM      5  C   UNL     1       9.470  -0.883  21.513  0.00  0.00    +0.000 A 
ATOM      6  C   UNL     1      10.465  -1.027  22.471  0.00  0.00    +0.000 A 
ATOM      7  C   UNL     1       9.921  -0.228  23.620  0.00  0.00    +0.000 A 
ATOM      8  C   UNL     1       8.903  -0.961  24.504  0.00  0.00    +0.000 C 
ATOM      9  N   UNL     1       8.171   0.108  24.933  0.00  0.00    +0.000 N 
ATOM     10  C   UNL     1       7.338  -0.145  26.080  0.00  0.00    +0.000 C 
ATOM     11  O   UNL     1       6.168   0.004  25.677  0.00  0.00    +0.000 OA
ATOM     12  C   UNL     1       8.653   1.424  25.044  0.00  0.00    +0.000 C 
ENDROOT
BRANCH   1  16
ATOM     13  C   UNL     1      11.053   5.859  24.051  0.00  0.00    +0.000 A 
ATOM     14  C   UNL     1      11.755   4.711  23.455  0.00  0.00    +0.000 A 
ATOM     15  C   UNL     1      11.225   3.377  23.002  0.00  0.00    +0.000 A 
ATOM     16  C   UNL     1       9.749   3.168  23.569  0.00  0.00    +0.000 A 
ATOM     17  C   UNL     1       8.894   4.469  23.436  0.00  0.00    +0.000 A 
ATOM     18  C   UNL     1       9.590   5.752  23.863  0.00  0.00    +0.000 A 
ENDBRANCH   1  16
BRANCH  10  19
ATOM     19  C   UNL     1       7.671  -1.582  26.513  0.00  0.00    +0.000 C 
BRANCH  19  20
ATOM     20  C   UNL     1       6.560  -2.513  26.689  0.00  0.00    +0.000 C 
BRANCH  20  21
ATOM     21  N   UNL     1       6.021  -3.315  25.629  0.00  0.00    +0.000 N 
ATOM     22  H   UNL     1       6.509  -4.076  25.306  0.00  0.00    +0.000 HD
ATOM     23  C   UNL     1       4.888  -3.171  24.948  0.00  0.00    +0.000 C 
ATOM     24  O   UNL     1       3.981  -2.479  25.423  0.00  0.00    +0.000 OA
BRANCH  23  25
ATOM     25  C   UNL     1       4.994  -3.527  23.641  0.00  0.00    +0.000 C 
ATOM     26  N   UNL     1       5.908  -2.647  23.014  0.00  0.00    +0.000 NA
ATOM     27  N   UNL     1       6.257  -3.086  21.994  0.00  0.00    +0.000 N 
ATOM     28  C   UNL     1       5.955  -2.345  20.761  0.00  0.00    +0.000 C 
ATOM     29  C   UNL     1       5.902  -4.436  21.734  0.00  0.00    +0.000 C 
ATOM     30  C   UNL     1       4.816  -4.569  22.738  0.00  0.00    +0.000 C 
ENDBRANCH  23  25
ENDBRANCH  20  21
ENDBRANCH  19  20
ENDBRANCH  10  19
TORSDOF 5
ENDMDL
MODEL 5
REMARK VINA RESULT:      -7.4      1.578      3.767
REMARK  Name = 
REMARK  6 active torsions:
REMARK  status: ('A' for Active; 'I' for Inactive)
REMARK    1  A    between atoms: C_7  and  C_8
REMARK    2  A    between atoms: C_24  and  C_26
REMARK    3  A    between atoms: C_26  and  C_29
REMARK    4  A    between atoms: C_29  and  N_32
REMARK    5  A    between atoms: C_34  and  C_36
REMARK    6  A    between atoms: N_38  and  C_39
REMARK                            x       y       z     vdW  Elec       q    Type
REMARK                         _______ _______ _______ _____ _____    ______ ____
ROOT
ATOM      1  C   UNL     1       8.696   1.466  24.592  0.00  0.00    +0.000 C 
ATOM      2  C   UNL     1       9.083   1.254  23.236  0.00  0.00    +0.000 A 
ATOM      3  C   UNL     1       7.496   1.194  22.762  0.00  0.00    +0.000 A 
ATOM      4  C   UNL     1       7.133   0.355  21.621  0.00  0.00    +0.000 A 
ATOM      5  C   UNL     1       8.480  -0.317  21.068  0.00  0.00    +0.000 A 
ATOM      6  C   UNL     1       9.772  -0.289  21.578  0.00  0.00    +0.000 A 
ATOM      7  C   UNL     1       9.531  -0.153  23.054  0.00  0.00    +0.000 A 
ATOM      8  C   UNL     1       9.222  -1.464  23.790  0.00  0.00    +0.000 C 
ATOM      9  N   UNL     1       8.448  -0.974  24.800  0.00  0.00    +0.000 N 
ATOM     10  C   UNL     1       8.265  -1.867  25.915  0.00  0.00    +0.000 C 
ATOM     11  O   UNL     1       7.046  -2.123  25.937  0.00  0.00    +0.000 OA
ATOM     12  C   UNL     1       8.522   0.332  25.315  0.00  0.00    +0.000 C 
ENDROOT
BRANCH   1  16
ATOM     13  C   UNL     1       9.048   5.473  25.500  0.00  0.00    +0.000 A 
ATOM     14  C   UNL     1       9.612   4.906  24.264  0.00  0.00    +0.000 A 
ATOM     15  C   UNL     1       9.261   3.640  23.529  0.00  0.00    +0.000 A 
ATOM     16  C   UNL     1       8.360   2.711  24.463  0.00  0.00    +0.000 A 
ATOM     17  C   UNL     1       7.271   3.541  25.215  0.00  0.00    +0.000 A 
ATOM     18  C   UNL     1       7.759   4.837  25.845  0.00  0.00    +0.000 A 
ENDBRANCH   1  16
BRANCH  10  19
ATOM     19  C   UNL     1       9.153  -3.086  25.608  0.00  0.00    +0.000 C 
BRANCH  19  20
ATOM     20  C   UNL     1       8.963  -4.285  26.418  0.00  0.00    +0.000 C 
BRANCH  20  21
ATOM     21  N   UNL     1       7.913  -5.236  26.195  0.00  0.00    +0.000 N 
ATOM     22  H   UNL     1       7.939  -5.811  25.427  0.00  0.00    +0.000 HD
ATOM     23  C   UNL     1       6.813  -5.470  26.907  0.00  0.00    +0.000 C 
ATOM     24  O   UNL     1       6.762  -5.089  28.082  0.00  0.00    +0.000 OA
BRANCH  23  25
ATOM     25  C   UNL     1       5.737  -5.798  26.146  0.00  0.00    +0.000 C 
ATOM     26  N   UNL     1       6.003  -5.414  24.811  0.00  0.00    +0.000 NA
ATOM     27  N   UNL     1       5.258  -5.936  24.084  0.00  0.00    +0.000 N 
ATOM     28  C   UNL     1       4.349  -5.105  23.281  0.00  0.00    +0.000 C 
ATOM     29  C   UNL     1       4.455  -6.968  24.638  0.00  0.00    +0.000 C 
ATOM     30  C   UNL     1       4.618  -6.620  26.072  0.00  0.00    +0.000 C 
ENDBRANCH  23  25
ENDBRANCH  20  21
ENDBRANCH  19  20
ENDBRANCH  10  19
TORSDOF 5
ENDMDL
MODEL 6
REMARK VINA RESULT:      -7.4      2.463      4.551
REMARK  Name = 
REMARK  6 active torsions:
REMARK  status: ('A' for Active; 'I' for Inactive)
REMARK    1  A    between atoms: C_7  and  C_8
REMARK    2  A    between atoms: C_24  and  C_26
REMARK    3  A    between atoms: C_26  and  C_29
REMARK    4  A    between atoms: C_29  and  N_32
REMARK    5  A    between atoms: C_34  and  C_36
REMARK    6  A    between atoms: N_38  and  C_39
REMARK                            x       y       z     vdW  Elec       q    Type
REMARK                         _______ _______ _______ _____ _____    ______ ____
ROOT
ATOM      1  C   UNL     1       7.979  -2.154  23.705  0.00  0.00    +0.000 C 
ATOM      2  C   UNL     1       7.788  -3.155  22.707  0.00  0.00    +0.000 A 
ATOM      3  C   UNL     1       6.188  -2.749  22.564  0.00  0.00    +0.000 A 
ATOM      4  C   UNL     1       5.226  -3.789  22.204  0.00  0.00    +0.000 A 
ATOM      5  C   UNL     1       6.045  -5.153  21.998  0.00  0.00    +0.000 A 
ATOM      6  C   UNL     1       7.385  -5.438  22.226  0.00  0.00    +0.000 A 
ATOM      7  C   UNL     1       7.726  -4.498  23.346  0.00  0.00    +0.000 A 
ATOM      8  C   UNL     1       7.340  -4.984  24.749  0.00  0.00    +0.000 C 
ATOM      9  N   UNL     1       7.142  -3.778  25.355  0.00  0.00    +0.000 N 
ATOM     10  C   UNL     1       7.118  -3.816  26.794  0.00  0.00    +0.000 C 
ATOM     11  O   UNL     1       5.965  -3.469  27.115  0.00  0.00    +0.000 OA
ATOM     12  C   UNL     1       7.757  -2.573  24.976  0.00  0.00    +0.000 C 
ENDROOT
BRANCH   1  16
ATOM     13  C   UNL     1       9.563   1.368  22.259  0.00  0.00    +0.000 A 
ATOM     14  C   UNL     1       9.748   0.089  21.555  0.00  0.00    +0.000 A 
ATOM     15  C   UNL     1       8.951  -1.186  21.633  0.00  0.00    +0.000 A 
ATOM     16  C   UNL     1       7.985  -1.137  22.902  0.00  0.00    +0.000 A 
ATOM     17  C   UNL     1       7.299   0.260  23.045  0.00  0.00    +0.000 A 
ATOM     18  C   UNL     1       8.218   1.459  22.867  0.00  0.00    +0.000 A 
ENDBRANCH   1  16
BRANCH  10  19
ATOM     19  C   UNL     1       7.459  -5.269  27.167  0.00  0.00    +0.000 C 
BRANCH  19  20
ATOM     20  C   UNL     1       6.478  -6.017  27.948  0.00  0.00    +0.000 C 
BRANCH  20  21
ATOM     21  N   UNL     1       5.353  -6.694  27.372  0.00  0.00    +0.000 N 
ATOM     22  H   UNL     1       5.488  -7.456  26.805  0.00  0.00    +0.000 HD
ATOM     23  C   UNL     1       4.054  -6.421  27.473  0.00  0.00    +0.000 C 
ATOM     24  O   UNL     1       3.658  -5.711  28.403  0.00  0.00    +0.000 OA
BRANCH  23  25
ATOM     25  C   UNL     1       3.358  -6.676  26.334  0.00  0.00    +0.000 C 
ATOM     26  N   UNL     1       3.603  -5.625  25.420  0.00  0.00    +0.000 NA
ATOM     27  N   UNL     1       3.281  -5.941  24.346  0.00  0.00    +0.000 N 
ATOM     28  C   UNL     1       2.214  -5.185  23.673  0.00  0.00    +0.000 C 
ATOM     29  C   UNL     1       2.963  -7.313  24.161  0.00  0.00    +0.000 C 
ATOM     30  C   UNL     1       2.753  -7.678  25.584  0.00  0.00    +0.000 C 
ENDBRANCH  23  25
ENDBRANCH  20  21
ENDBRANCH  19  20
ENDBRANCH  10  19
TORSDOF 5
ENDMDL
MODEL 7
REMARK VINA RESULT:      -6.8      2.421      4.238
REMARK  Name = 
REMARK  6 active torsions:
REMARK  status: ('A' for Active; 'I' for Inactive)
REMARK    1  A    between atoms: C_7  and  C_8
REMARK    2  A    between atoms: C_24  and  C_26
REMARK    3  A    between atoms: C_26  and  C_29
REMARK    4  A    between atoms: C_29  and  N_32
REMARK    5  A    between atoms: C_34  and  C_36
REMARK    6  A    between atoms: N_38  and  C_39
REMARK                            x       y       z     vdW  Elec       q    Type
REMARK                         _______ _______ _______ _____ _____    ______ ____
ROOT
ATOM      1  C   UNL     1       7.338   2.352  23.673  0.00  0.00    +0.000 C 
ATOM      2  C   UNL     1       8.375   1.952  24.567  0.00  0.00    +0.000 A 
ATOM      3  C   UNL     1       9.527   2.598  23.565  0.00  0.00    +0.000 A 
ATOM      4  C   UNL     1      10.852   1.981  23.527  0.00  0.00    +0.000 A 
ATOM      5  C   UNL     1      10.848   0.762  24.569  0.00  0.00    +0.000 A 
ATOM      6  C   UNL     1       9.807   0.221  25.313  0.00  0.00    +0.000 A 
ATOM      7  C   UNL     1       8.616   0.490  24.439  0.00  0.00    +0.000 A 
ATOM      8  C   UNL     1       8.392  -0.524  23.308  0.00  0.00    +0.000 C 
ATOM      9  N   UNL     1       7.775   0.288  22.402  0.00  0.00    +0.000 N 
ATOM     10  C   UNL     1       7.080  -0.398  21.344  0.00  0.00    +0.000 C 
ATOM     11  O   UNL     1       7.675  -0.078  20.296  0.00  0.00    +0.000 OA
ATOM     12  C   UNL     1       7.028   1.435  22.722  0.00  0.00    +0.000 C 
ENDROOT
BRANCH   1  16
ATOM     13  C   UNL     1       5.508   5.859  24.835  0.00  0.00    +0.000 A 
ATOM     14  C   UNL     1       6.283   5.039  25.780  0.00  0.00    +0.000 A 
ATOM     15  C   UNL     1       7.351   4.010  25.523  0.00  0.00    +0.000 A 
ATOM     16  C   UNL     1       7.349   3.611  23.978  0.00  0.00    +0.000 A 
ATOM     17  C   UNL     1       7.195   4.868  23.063  0.00  0.00    +0.000 A 
ATOM     18  C   UNL     1       6.124   5.859  23.491  0.00  0.00    +0.000 A 
ENDBRANCH   1  16
BRANCH  10  19
ATOM     19  C   UNL     1       7.187  -1.892  21.691  0.00  0.00    +0.000 C 
BRANCH  19  20
ATOM     20  C   UNL     1       6.015  -2.730  21.453  0.00  0.00    +0.000 C 
BRANCH  20  21
ATOM     21  N   UNL     1       5.591  -3.773  22.341  0.00  0.00    +0.000 N 
ATOM     22  H   UNL     1       4.850  -3.629  22.934  0.00  0.00    +0.000 HD
ATOM     23  C   UNL     1       6.091  -4.994  22.518  0.00  0.00    +0.000 C 
ATOM     24  O   UNL     1       6.807  -5.486  21.640  0.00  0.00    +0.000 OA
BRANCH  23  25
ATOM     25  C   UNL     1       6.034  -5.419  23.807  0.00  0.00    +0.000 C 
ATOM     26  N   UNL     1       6.964  -4.667  24.564  0.00  0.00    +0.000 NA
ATOM     27  N   UNL     1       6.742  -4.779  25.702  0.00  0.00    +0.000 N 
ATOM     28  C   UNL     1       7.764  -5.386  26.568  0.00  0.00    +0.000 C 
ATOM     29  C   UNL     1       5.516  -5.407  26.048  0.00  0.00    +0.000 C 
ATOM     30  C   UNL     1       5.239  -6.066  24.746  0.00  0.00    +0.000 C 
ENDBRANCH  23  25
ENDBRANCH  20  21
ENDBRANCH  19  20
ENDBRANCH  10  19
TORSDOF 5
ENDMDL
MODEL 8
REMARK VINA RESULT:      -6.8      2.963      6.891
REMARK  Name = 
REMARK  6 active torsions:
REMARK  status: ('A' for Active; 'I' for Inactive)
REMARK    1  A    between atoms: C_7  and  C_8
REMARK    2  A    between atoms: C_24  and  C_26
REMARK    3  A    between atoms: C_26  and  C_29
REMARK    4  A    between atoms: C_29  and  N_32
REMARK    5  A    between atoms: C_34  and  C_36
REMARK    6  A    between atoms: N_38  and  C_39
REMARK                            x       y       z     vdW  Elec       q    Type
REMARK                         _______ _______ _______ _____ _____    ______ ____
ROOT
ATOM      1  C   UNL     1       6.915  -3.638  24.862  0.00  0.00    +0.000 C 
ATOM      2  C   UNL     1       6.099  -3.915  23.725  0.00  0.00    +0.000 A 
ATOM      3  C   UNL     1       6.890  -5.349  23.471  0.00  0.00    +0.000 A 
ATOM      4  C   UNL     1       7.022  -5.848  22.103  0.00  0.00    +0.000 A 
ATOM      5  C   UNL     1       6.282  -4.805  21.135  0.00  0.00    +0.000 A 
ATOM      6  C   UNL     1       5.714  -3.569  21.415  0.00  0.00    +0.000 A 
ATOM      7  C   UNL     1       6.545  -3.089  22.571  0.00  0.00    +0.000 A 
ATOM      8  C   UNL     1       7.881  -2.438  22.190  0.00  0.00    +0.000 C 
ATOM      9  N   UNL     1       8.602  -2.741  23.308  0.00  0.00    +0.000 N 
ATOM     10  C   UNL     1       9.810  -1.976  23.480  0.00  0.00    +0.000 C 
ATOM     11  O   UNL     1      10.738  -2.805  23.410  0.00  0.00    +0.000 OA
ATOM     12  C   UNL     1       8.057  -2.961  24.585  0.00  0.00    +0.000 C 
ENDROOT
BRANCH   1  16
ATOM     13  C   UNL     1       5.179  -4.626  28.469  0.00  0.00    +0.000 A 
ATOM     14  C   UNL     1       4.371  -4.344  27.272  0.00  0.00    +0.000 A 
ATOM     15  C   UNL     1       4.746  -4.389  25.814  0.00  0.00    +0.000 A 
ATOM     16  C   UNL     1       6.334  -4.465  25.673  0.00  0.00    +0.000 A 
ATOM     17  C   UNL     1       6.953  -5.464  26.702  0.00  0.00    +0.000 A 
ATOM     18  C   UNL     1       6.421  -5.350  28.122  0.00  0.00    +0.000 A 
ENDBRANCH   1  16
BRANCH  10  19
ATOM     19  C   UNL     1       9.804  -0.947  22.337  0.00  0.00    +0.000 C 
BRANCH  19  20
ATOM     20  C   UNL     1       9.612   0.457  22.688  0.00  0.00    +0.000 C 
BRANCH  20  21
ATOM     21  N   UNL     1       8.727   0.902  23.725  0.00  0.00    +0.000 N 
ATOM     22  H   UNL     1       9.084   1.266  24.538  0.00  0.00    +0.000 HD
ATOM     23  C   UNL     1       7.398   0.883  23.774  0.00  0.00    +0.000 C 
ATOM     24  O   UNL     1       6.756   0.776  22.723  0.00  0.00    +0.000 OA
BRANCH  23  25
ATOM     25  C   UNL     1       6.906   0.635  25.016  0.00  0.00    +0.000 C 
ATOM     26  N   UNL     1       5.497   0.554  24.928  0.00  0.00    +0.000 NA
ATOM     27  N   UNL     1       5.061   0.053  25.885  0.00  0.00    +0.000 N 
ATOM     28  C   UNL     1       4.148   0.828  26.739  0.00  0.00    +0.000 C 
ATOM     29  C   UNL     1       5.998  -0.550  26.765  0.00  0.00    +0.000 C 
ATOM     30  C   UNL     1       7.223   0.131  26.273  0.00  0.00    +0.000 C 
ENDBRANCH  23  25
ENDBRANCH  20  21
ENDBRANCH  19  20
ENDBRANCH  10  19
TORSDOF 5
ENDMDL
MODEL 9
REMARK VINA RESULT:      -6.8      2.354      7.663
REMARK  Name = 
REMARK  6 active torsions:
REMARK  status: ('A' for Active; 'I' for Inactive)
REMARK    1  A    between atoms: C_7  and  C_8
REMARK    2  A    between atoms: C_24  and  C_26
REMARK    3  A    between atoms: C_26  and  C_29
REMARK    4  A    between atoms: C_29  and  N_32
REMARK    5  A    between atoms: C_34  and  C_36
REMARK    6  A    between atoms: N_38  and  C_39
REMARK                            x       y       z     vdW  Elec       q    Type
REMARK                         _______ _______ _______ _____ _____    ______ ____
ROOT
ATOM      1  C   UNL     1       5.905  -3.936  24.749  0.00  0.00    +0.000 C 
ATOM      2  C   UNL     1       5.426  -4.033  23.409  0.00  0.00    +0.000 A 
ATOM      3  C   UNL     1       5.923  -5.612  23.315  0.00  0.00    +0.000 A 
ATOM      4  C   UNL     1       6.345  -6.142  22.020  0.00  0.00    +0.000 A 
ATOM      5  C   UNL     1       6.175  -4.968  20.939  0.00  0.00    +0.000 A 
ATOM      6  C   UNL     1       5.834  -3.633  21.111  0.00  0.00    +0.000 A 
ATOM      7  C   UNL     1       6.366  -3.342  22.486  0.00  0.00    +0.000 A 
ATOM      8  C   UNL     1       7.864  -3.014  22.552  0.00  0.00    +0.000 C 
ATOM      9  N   UNL     1       8.132  -3.460  23.813  0.00  0.00    +0.000 N 
ATOM     10  C   UNL     1       9.371  -2.987  24.375  0.00  0.00    +0.000 C 
ATOM     11  O   UNL     1      10.072  -4.006  24.532  0.00  0.00    +0.000 OA
ATOM     12  C   UNL     1       7.197  -3.538  24.859  0.00  0.00    +0.000 C 
ENDROOT
BRANCH   1  16
ATOM     13  C   UNL     1       3.655  -7.344  25.320  0.00  0.00    +0.000 A 
ATOM     14  C   UNL     1       4.685  -6.924  26.284  0.00  0.00    +0.000 A 
ATOM     15  C   UNL     1       5.301  -5.571  26.520  0.00  0.00    +0.000 A 
ATOM     16  C   UNL     1       4.942  -4.601  25.305  0.00  0.00    +0.000 A 
ATOM     17  C   UNL     1       3.446  -4.749  24.877  0.00  0.00    +0.000 A 
ATOM     18  C   UNL     1       2.942  -6.179  24.752  0.00  0.00    +0.000 A 
ENDBRANCH   1  16
BRANCH  10  19
ATOM     19  C   UNL     1       9.932  -1.996  23.342  0.00  0.00    +0.000 C 
BRANCH  19  20
ATOM     20  C   UNL     1      10.373  -0.690  23.824  0.00  0.00    +0.000 C 
BRANCH  20  21
ATOM     21  N   UNL     1       9.592   0.507  23.701  0.00  0.00    +0.000 N 
ATOM     22  H   UNL     1       9.197   0.906  24.479  0.00  0.00    +0.000 HD
ATOM     23  C   UNL     1       9.275   1.207  22.615  0.00  0.00    +0.000 C 
ATOM     24  O   UNL     1       9.946   1.063  21.587  0.00  0.00    +0.000 OA
BRANCH  23  25
ATOM     25  C   UNL     1       8.029   1.746  22.664  0.00  0.00    +0.000 C 
ATOM     26  N   UNL     1       8.141   3.084  23.109  0.00  0.00    +0.000 NA
ATOM     27  N   UNL     1       7.160   3.668  22.882  0.00  0.00    +0.000 N 
ATOM     28  C   UNL     1       6.385   4.219  24.004  0.00  0.00    +0.000 C 
ATOM     29  C   UNL     1       6.218   3.018  22.041  0.00  0.00    +0.000 C 
ATOM     30  C   UNL     1       6.732   1.632  22.176  0.00  0.00    +0.000 C 
ENDBRANCH  23  25
ENDBRANCH  20  21
ENDBRANCH  19  20
ENDBRANCH  10  19
TORSDOF 5
ENDMDL
