MODEL 1
REMARK VINA RESULT:      -8.6      0.000      0.000
REMARK  Name = 
REMARK  3 active torsions:
REMARK  status: ('A' for Active; 'I' for Inactive)
REMARK    1  A    between atoms: C_7  and  C_8
REMARK    2  A    between atoms: N_23  and  N_24
REMARK    3  A    between atoms: C_26  and  C_28
REMARK                            x       y       z     vdW  Elec       q    Type
REMARK                         _______ _______ _______ _____ _____    ______ ____
ROOT
ATOM      1  C   UNL     1       7.125  -0.008  21.923  0.00  0.00    +0.000 C 
ATOM      2  C   UNL     1       7.910   0.840  22.599  0.00  0.00    +0.000 A 
ATOM      3  C   UNL     1       7.603   1.308  23.983  0.00  0.00    +0.000 A 
ATOM      4  C   UNL     1       8.516   2.079  24.846  0.00  0.00    +0.000 A 
ATOM      5  C   UNL     1       9.856   2.067  24.133  0.00  0.00    +0.000 A 
ATOM      6  C   UNL     1      10.362   1.494  22.923  0.00  0.00    +0.000 A 
ATOM      7  C   UNL     1       9.418   0.433  22.562  0.00  0.00    +0.000 A 
ATOM      8  C   UNL     1       9.939  -0.991  22.820  0.00  0.00    +0.000 C 
ATOM      9  N   UNL     1       8.965  -1.753  22.433  0.00  0.00    +0.000 N 
ATOM     10  C   UNL     1       7.795  -1.350  21.953  0.00  0.00    +0.000 C 
ENDROOT
BRANCH   1  14
ATOM     11  C   UNL     1       5.563   0.637  18.113  0.00  0.00    +0.000 A 
ATOM     12  C   UNL     1       5.228   1.568  19.248  0.00  0.00    +0.000 A 
ATOM     13  C   UNL     1       5.919   1.669  20.553  0.00  0.00    +0.000 A 
ATOM     14  C   UNL     1       7.041   0.777  20.609  0.00  0.00    +0.000 A 
ATOM     15  C   UNL     1       7.700   0.023  19.550  0.00  0.00    +0.000 A 
ATOM     16  C   UNL     1       6.676  -0.266  18.483  0.00  0.00    +0.000 A 
ENDBRANCH   1  14
BRANCH   9  17
ATOM     17  N   UNL     1       8.692  -2.862  22.914  0.00  0.00    +0.000 N 
ATOM     18  H   UNL     1       8.892  -3.504  22.356  0.00  0.00    +0.000 HD
ATOM     19  C   UNL     1       9.274  -2.835  24.131  0.00  0.00    +0.000 C 
ATOM     20  O   UNL     1      10.352  -3.531  24.122  0.00  0.00    +0.000 OA
BRANCH  19  21
ATOM     21  C   UNL     1       8.517  -2.997  25.387  0.00  0.00    +0.000 C 
ATOM     22  S   UNL     1       8.063  -4.727  25.533  0.00  0.00    +0.000 S 
ATOM     23  C   UNL     1       6.383  -4.415  26.034  0.00  0.00    +0.000 C 
ATOM     24  C   UNL     1       6.088  -3.048  25.811  0.00  0.00    +0.000 C 
ATOM     25  C   UNL     1       7.349  -2.175  25.725  0.00  0.00    +0.000 C 
ATOM     26  C   UNL     1       4.857  -2.363  25.064  0.00  0.00    +0.000 C 
ATOM     27  C   UNL     1       4.516  -3.733  24.250  0.00  0.00    +0.000 C 
ATOM     28  C   UNL     1       4.325  -4.964  25.077  0.00  0.00    +0.000 C 
ATOM     29  C   UNL     1       5.638  -5.700  25.513  0.00  0.00    +0.000 C 
ENDBRANCH  19  21
ENDBRANCH   9  17
TORSDOF 3
ENDMDL
MODEL 2
REMARK VINA RESULT:      -8.3      2.600      6.016
REMARK  Name = 
REMARK  3 active torsions:
REMARK  status: ('A' for Active; 'I' for Inactive)
REMARK    1  A    between atoms: C_7  and  C_8
REMARK    2  A    between atoms: N_23  and  N_24
REMARK    3  A    between atoms: C_26  and  C_28
REMARK                            x       y       z     vdW  Elec       q    Type
REMARK                         _______ _______ _______ _____ _____    ______ ____
ROOT
ATOM      1  C   UNL     1       7.356  -2.809  23.443  0.00  0.00    +0.000 C 
ATOM      2  C   UNL     1       7.763  -3.795  24.252  0.00  0.00    +0.000 A 
ATOM      3  C   UNL     1       9.203  -4.092  24.514  0.00  0.00    +0.000 A 
ATOM      4  C   UNL     1       9.709  -5.027  25.535  0.00  0.00    +0.000 A 
ATOM      5  C   UNL     1       8.503  -5.404  26.375  0.00  0.00    +0.000 A 
ATOM      6  C   UNL     1       7.116  -5.049  26.385  0.00  0.00    +0.000 A 
ATOM      7  C   UNL     1       7.022  -3.799  25.627  0.00  0.00    +0.000 A 
ATOM      8  C   UNL     1       6.795  -2.549  26.494  0.00  0.00    +0.000 C 
ATOM      9  N   UNL     1       6.740  -1.581  25.634  0.00  0.00    +0.000 N 
ATOM     10  C   UNL     1       6.877  -1.689  24.319  0.00  0.00    +0.000 C 
ENDROOT
BRANCH   1  14
ATOM     11  C   UNL     1       4.939  -6.144  22.804  0.00  0.00    +0.000 A 
ATOM     12  C   UNL     1       4.331  -4.804  23.123  0.00  0.00    +0.000 A 
ATOM     13  C   UNL     1       5.001  -3.485  23.074  0.00  0.00    +0.000 A 
ATOM     14  C   UNL     1       6.352  -3.614  22.610  0.00  0.00    +0.000 A 
ATOM     15  C   UNL     1       7.031  -4.743  21.988  0.00  0.00    +0.000 A 
ATOM     16  C   UNL     1       6.377  -6.007  22.484  0.00  0.00    +0.000 A 
ENDBRANCH   1  14
BRANCH   9  17
ATOM     17  N   UNL     1       7.100  -0.415  25.848  0.00  0.00    +0.000 N 
ATOM     18  H   UNL     1       6.567  -0.019  26.416  0.00  0.00    +0.000 HD
ATOM     19  C   UNL     1       8.412  -0.534  26.143  0.00  0.00    +0.000 C 
ATOM     20  O   UNL     1       8.594  -0.417  27.408  0.00  0.00    +0.000 OA
BRANCH  19  21
ATOM     21  C   UNL     1       9.474   0.129  25.364  0.00  0.00    +0.000 C 
ATOM     22  S   UNL     1       8.781   1.625  24.656  0.00  0.00    +0.000 S 
ATOM     23  C   UNL     1       9.485   1.385  23.039  0.00  0.00    +0.000 C 
ATOM     24  C   UNL     1       9.985   0.063  22.952  0.00  0.00    +0.000 C 
ATOM     25  C   UNL     1      10.253  -0.562  24.329  0.00  0.00    +0.000 C 
ATOM     26  C   UNL     1       9.759  -1.058  21.841  0.00  0.00    +0.000 C 
ATOM     27  C   UNL     1       8.402  -0.333  21.304  0.00  0.00    +0.000 C 
ATOM     28  C   UNL     1       8.527   1.108  20.927  0.00  0.00    +0.000 C 
ATOM     29  C   UNL     1       8.452   2.129  22.114  0.00  0.00    +0.000 C 
ENDBRANCH  19  21
ENDBRANCH   9  17
TORSDOF 3
ENDMDL
MODEL 3
REMARK VINA RESULT:      -8.1      1.819      2.107
REMARK  Name = 
REMARK  3 active torsions:
REMARK  status: ('A' for Active; 'I' for Inactive)
REMARK    1  A    between atoms: C_7  and  C_8
REMARK    2  A    between atoms: N_23  and  N_24
REMARK    3  A    between atoms: C_26  and  C_28
REMARK                            x       y       z     vdW  Elec       q    Type
REMARK                         _______ _______ _______ _____ _____    ______ ____
ROOT
ATOM      1  C   UNL     1       7.126   0.428  21.949  0.00  0.00    +0.000 C 
ATOM      2  C   UNL     1       7.028   1.598  22.592  0.00  0.00    +0.000 A 
ATOM      3  C   UNL     1       6.098   1.823  23.737  0.00  0.00    +0.000 A 
ATOM      4  C   UNL     1       6.084   3.015  24.604  0.00  0.00    +0.000 A 
ATOM      5  C   UNL     1       7.330   3.800  24.237  0.00  0.00    +0.000 A 
ATOM      6  C   UNL     1       8.418   3.616  23.323  0.00  0.00    +0.000 A 
ATOM      7  C   UNL     1       8.418   2.191  22.989  0.00  0.00    +0.000 A 
ATOM      8  C   UNL     1       9.547   1.385  23.654  0.00  0.00    +0.000 C 
ATOM      9  N   UNL     1       9.362   0.176  23.224  0.00  0.00    +0.000 N 
ATOM     10  C   UNL     1       8.392  -0.229  22.415  0.00  0.00    +0.000 C 
ENDROOT
BRANCH   1  14
ATOM     11  C   UNL     1       5.638   0.264  18.059  0.00  0.00    +0.000 A 
ATOM     12  C   UNL     1       5.196   1.348  19.005  0.00  0.00    +0.000 A 
ATOM     13  C   UNL     1       5.836   1.733  20.283  0.00  0.00    +0.000 A 
ATOM     14  C   UNL     1       7.022   0.960  20.515  0.00  0.00    +0.000 A 
ATOM     15  C   UNL     1       7.770   0.089  19.618  0.00  0.00    +0.000 A 
ATOM     16  C   UNL     1       6.806  -0.466  18.602  0.00  0.00    +0.000 A 
ENDBRANCH   1  14
BRANCH   9  17
ATOM     17  N   UNL     1       9.639  -0.855  23.852  0.00  0.00    +0.000 N 
ATOM     18  H   UNL     1      10.503  -0.969  23.906  0.00  0.00    +0.000 HD
ATOM     19  C   UNL     1       8.913  -0.744  24.985  0.00  0.00    +0.000 C 
ATOM     20  O   UNL     1       9.671  -0.404  25.964  0.00  0.00    +0.000 OA
BRANCH  19  21
ATOM     21  C   UNL     1       7.895  -1.732  25.387  0.00  0.00    +0.000 C 
ATOM     22  S   UNL     1       8.629  -3.364  25.248  0.00  0.00    +0.000 S 
ATOM     23  C   UNL     1       7.224  -4.110  24.450  0.00  0.00    +0.000 C 
ATOM     24  C   UNL     1       6.339  -3.086  24.033  0.00  0.00    +0.000 C 
ATOM     25  C   UNL     1       6.549  -1.772  24.802  0.00  0.00    +0.000 C 
ATOM     26  C   UNL     1       5.647  -2.827  22.621  0.00  0.00    +0.000 C 
ATOM     27  C   UNL     1       6.756  -3.736  21.847  0.00  0.00    +0.000 C 
ATOM     28  C   UNL     1       6.950  -5.125  22.364  0.00  0.00    +0.000 C 
ATOM     29  C   UNL     1       7.893  -5.260  23.609  0.00  0.00    +0.000 C 
ENDBRANCH  19  21
ENDBRANCH   9  17
TORSDOF 3
ENDMDL
MODEL 4
REMARK VINA RESULT:      -8.0      2.616      4.789
REMARK  Name = 
REMARK  3 active torsions:
REMARK  status: ('A' for Active; 'I' for Inactive)
REMARK    1  A    between atoms: C_7  and  C_8
REMARK    2  A    between atoms: N_23  and  N_24
REMARK    3  A    between atoms: C_26  and  C_28
REMARK                            x       y       z     vdW  Elec       q    Type
REMARK                         _______ _______ _______ _____ _____    ______ ____
ROOT
ATOM      1  C   UNL     1       9.538   1.914  24.296  0.00  0.00    +0.000 C 
ATOM      2  C   UNL     1       9.680   1.041  23.291  0.00  0.00    +0.000 A 
ATOM      3  C   UNL     1      10.496  -0.204  23.402  0.00  0.00    +0.000 A 
ATOM      4  C   UNL     1      10.533  -1.292  22.409  0.00  0.00    +0.000 A 
ATOM      5  C   UNL     1       9.419  -0.983  21.425  0.00  0.00    +0.000 A 
ATOM      6  C   UNL     1       8.426   0.041  21.299  0.00  0.00    +0.000 A 
ATOM      7  C   UNL     1       8.321   0.657  22.624  0.00  0.00    +0.000 A 
ATOM      8  C   UNL     1       7.051   0.271  23.401  0.00  0.00    +0.000 C 
ATOM      9  N   UNL     1       7.161   0.919  24.518  0.00  0.00    +0.000 N 
ATOM     10  C   UNL     1       8.169   1.704  24.874  0.00  0.00    +0.000 C 
ENDROOT
BRANCH   1  14
ATOM     11  C   UNL     1      10.866   5.858  24.073  0.00  0.00    +0.000 A 
ATOM     12  C   UNL     1      11.693   4.736  23.503  0.00  0.00    +0.000 A 
ATOM     13  C   UNL     1      11.247   3.352  23.224  0.00  0.00    +0.000 A 
ATOM     14  C   UNL     1       9.852   3.195  23.515  0.00  0.00    +0.000 A 
ATOM     15  C   UNL     1       8.828   4.194  23.789  0.00  0.00    +0.000 A 
ATOM     16  C   UNL     1       9.502   5.391  24.407  0.00  0.00    +0.000 A 
ENDBRANCH   1  14
BRANCH   9  17
ATOM     17  N   UNL     1       6.716   0.540  25.610  0.00  0.00    +0.000 N 
ATOM     18  H   UNL     1       6.711   1.191  26.192  0.00  0.00    +0.000 HD
ATOM     19  C   UNL     1       5.556  -0.071  25.289  0.00  0.00    +0.000 C 
ATOM     20  O   UNL     1       4.562   0.687  25.580  0.00  0.00    +0.000 OA
BRANCH  19  21
ATOM     21  C   UNL     1       5.283  -1.488  25.591  0.00  0.00    +0.000 C 
ATOM     22  S   UNL     1       6.515  -2.043  26.772  0.00  0.00    +0.000 S 
ATOM     23  C   UNL     1       6.848  -3.587  25.950  0.00  0.00    +0.000 C 
ATOM     24  C   UNL     1       6.262  -3.553  24.662  0.00  0.00    +0.000 C 
ATOM     25  C   UNL     1       5.138  -2.512  24.548  0.00  0.00    +0.000 C 
ATOM     26  C   UNL     1       6.882  -3.893  23.233  0.00  0.00    +0.000 C 
ATOM     27  C   UNL     1       8.403  -3.686  23.780  0.00  0.00    +0.000 C 
ATOM     28  C   UNL     1       8.783  -4.477  24.991  0.00  0.00    +0.000 C 
ATOM     29  C   UNL     1       8.340  -3.868  26.366  0.00  0.00    +0.000 C 
ENDBRANCH  19  21
ENDBRANCH   9  17
TORSDOF 3
ENDMDL
MODEL 5
REMARK VINA RESULT:      -7.9      2.438      7.452
REMARK  Name = 
REMARK  3 active torsions:
REMARK  status: ('A' for Active; 'I' for Inactive)
REMARK    1  A    between atoms: C_7  and  C_8
REMARK    2  A    between atoms: N_23  and  N_24
REMARK    3  A    between atoms: C_26  and  C_28
REMARK                            x       y       z     vdW  Elec       q    Type
REMARK                         _______ _______ _______ _____ _____    ______ ____
ROOT
ATOM      1  C   UNL     1       5.854  -4.505  25.364  0.00  0.00    +0.000 C 
ATOM      2  C   UNL     1       6.081  -5.157  24.217  0.00  0.00    +0.000 A 
ATOM      3  C   UNL     1       5.221  -5.000  23.007  0.00  0.00    +0.000 A 
ATOM      4  C   UNL     1       5.527  -5.532  21.667  0.00  0.00    +0.000 A 
ATOM      5  C   UNL     1       6.958  -6.031  21.745  0.00  0.00    +0.000 A 
ATOM      6  C   UNL     1       7.974  -6.062  22.754  0.00  0.00    +0.000 A 
ATOM      7  C   UNL     1       7.570  -5.069  23.752  0.00  0.00    +0.000 A 
ATOM      8  C   UNL     1       8.395  -3.771  23.722  0.00  0.00    +0.000 C 
ATOM      9  N   UNL     1       7.879  -3.053  24.672  0.00  0.00    +0.000 N 
ATOM     10  C   UNL     1       6.859  -3.395  25.448  0.00  0.00    +0.000 C 
ENDROOT
BRANCH   1  14
ATOM     11  C   UNL     1       4.922  -6.471  28.919  0.00  0.00    +0.000 A 
ATOM     12  C   UNL     1       4.359  -6.949  27.607  0.00  0.00    +0.000 A 
ATOM     13  C   UNL     1       4.817  -6.574  26.250  0.00  0.00    +0.000 A 
ATOM     14  C   UNL     1       5.954  -5.703  26.316  0.00  0.00    +0.000 A 
ATOM     15  C   UNL     1       6.815  -5.359  27.440  0.00  0.00    +0.000 A 
ATOM     16  C   UNL     1       5.998  -5.479  28.701  0.00  0.00    +0.000 A 
ENDBRANCH   1  14
BRANCH   9  17
ATOM     17  N   UNL     1       7.825  -1.816  24.681  0.00  0.00    +0.000 N 
ATOM     18  H   UNL     1       7.138  -1.534  25.142  0.00  0.00    +0.000 HD
ATOM     19  C   UNL     1       9.069  -1.442  25.049  0.00  0.00    +0.000 C 
ATOM     20  O   UNL     1       9.073  -1.069  26.277  0.00  0.00    +0.000 OA
BRANCH  19  21
ATOM     21  C   UNL     1       9.936  -0.599  24.206  0.00  0.00    +0.000 C 
ATOM     22  S   UNL     1       9.593   1.116  24.611  0.00  0.00    +0.000 S 
ATOM     23  C   UNL     1       9.539   1.676  22.922  0.00  0.00    +0.000 C 
ATOM     24  C   UNL     1       9.488   0.547  22.068  0.00  0.00    +0.000 C 
ATOM     25  C   UNL     1      10.003  -0.733  22.746  0.00  0.00    +0.000 C 
ATOM     26  C   UNL     1       8.508   0.207  20.858  0.00  0.00    +0.000 C 
ATOM     27  C   UNL     1       7.385   1.258  21.398  0.00  0.00    +0.000 C 
ATOM     28  C   UNL     1       7.852   2.657  21.639  0.00  0.00    +0.000 C 
ATOM     29  C   UNL     1       8.564   2.908  23.013  0.00  0.00    +0.000 C 
ENDBRANCH  19  21
ENDBRANCH   9  17
TORSDOF 3
ENDMDL
MODEL 6
REMARK VINA RESULT:      -7.8      2.459      3.879
REMARK  Name = 
REMARK  3 active torsions:
REMARK  status: ('A' for Active; 'I' for Inactive)
REMARK    1  A    between atoms: C_7  and  C_8
REMARK    2  A    between atoms: N_23  and  N_24
REMARK    3  A    between atoms: C_26  and  C_28
REMARK                            x       y       z     vdW  Elec       q    Type
REMARK                         _______ _______ _______ _____ _____    ______ ____
ROOT
ATOM      1  C   UNL     1       7.166  -0.931  24.582  0.00  0.00    +0.000 C 
ATOM      2  C   UNL     1       8.213  -0.848  23.751  0.00  0.00    +0.000 A 
ATOM      3  C   UNL     1       9.414  -1.726  23.864  0.00  0.00    +0.000 A 
ATOM      4  C   UNL     1      10.502  -1.817  22.874  0.00  0.00    +0.000 A 
ATOM      5  C   UNL     1      10.015  -1.040  21.664  0.00  0.00    +0.000 A 
ATOM      6  C   UNL     1       8.821  -0.330  21.322  0.00  0.00    +0.000 A 
ATOM      7  C   UNL     1       7.793  -0.813  22.246  0.00  0.00    +0.000 A 
ATOM      8  C   UNL     1       6.767  -1.765  21.609  0.00  0.00    +0.000 C 
ATOM      9  N   UNL     1       5.967  -2.059  22.587  0.00  0.00    +0.000 N 
ATOM     10  C   UNL     1       6.066  -1.630  23.838  0.00  0.00    +0.000 C 
ENDROOT
BRANCH   1  14
ATOM     11  C   UNL     1       7.940   3.093  23.820  0.00  0.00    +0.000 A 
ATOM     12  C   UNL     1       6.559   2.526  23.625  0.00  0.00    +0.000 A 
ATOM     13  C   UNL     1       6.046   1.232  24.129  0.00  0.00    +0.000 A 
ATOM     14  C   UNL     1       7.038   0.560  24.916  0.00  0.00    +0.000 A 
ATOM     15  C   UNL     1       8.299   1.046  25.459  0.00  0.00    +0.000 A 
ATOM     16  C   UNL     1       8.803   2.138  24.552  0.00  0.00    +0.000 A 
ENDBRANCH   1  14
BRANCH   9  17
ATOM     17  N   UNL     1       5.362  -3.132  22.715  0.00  0.00    +0.000 N 
ATOM     18  H   UNL     1       4.575  -3.098  22.337  0.00  0.00    +0.000 HD
ATOM     19  C   UNL     1       6.256  -4.056  22.305  0.00  0.00    +0.000 C 
ATOM     20  O   UNL     1       5.956  -4.469  21.127  0.00  0.00    +0.000 OA
BRANCH  19  21
ATOM     21  C   UNL     1       6.740  -5.146  23.171  0.00  0.00    +0.000 C 
ATOM     22  S   UNL     1       5.344  -5.750  24.124  0.00  0.00    +0.000 S 
ATOM     23  C   UNL     1       6.221  -5.827  25.671  0.00  0.00    +0.000 C 
ATOM     24  C   UNL     1       7.449  -5.136  25.534  0.00  0.00    +0.000 C 
ATOM     25  C   UNL     1       7.893  -4.999  24.069  0.00  0.00    +0.000 C 
ATOM     26  C   UNL     1       8.111  -4.008  26.446  0.00  0.00    +0.000 C 
ATOM     27  C   UNL     1       6.673  -3.622  27.110  0.00  0.00    +0.000 C 
ATOM     28  C   UNL     1       5.902  -4.749  27.719  0.00  0.00    +0.000 C 
ATOM     29  C   UNL     1       5.063  -5.616  26.718  0.00  0.00    +0.000 C 
ENDBRANCH  19  21
ENDBRANCH   9  17
TORSDOF 3
ENDMDL
MODEL 7
REMARK VINA RESULT:      -7.6      2.733      4.529
REMARK  Name = 
REMARK  3 active torsions:
REMARK  status: ('A' for Active; 'I' for Inactive)
REMARK    1  A    between atoms: C_7  and  C_8
REMARK    2  A    between atoms: N_23  and  N_24
REMARK    3  A    between atoms: C_26  and  C_28
REMARK                            x       y       z     vdW  Elec       q    Type
REMARK                         _______ _______ _______ _____ _____    ______ ____
ROOT
ATOM      1  C   UNL     1       8.013  -1.183  23.537  0.00  0.00    +0.000 C 
ATOM      2  C   UNL     1       8.350  -2.045  24.505  0.00  0.00    +0.000 A 
ATOM      3  C   UNL     1       7.560  -2.210  25.760  0.00  0.00    +0.000 A 
ATOM      4  C   UNL     1       7.765  -3.269  26.765  0.00  0.00    +0.000 A 
ATOM      5  C   UNL     1       8.744  -4.243  26.135  0.00  0.00    +0.000 A 
ATOM      6  C   UNL     1       9.421  -4.337  24.877  0.00  0.00    +0.000 A 
ATOM      7  C   UNL     1       8.675  -3.473  23.960  0.00  0.00    +0.000 A 
ATOM      8  C   UNL     1       7.808  -4.231  22.941  0.00  0.00    +0.000 C 
ATOM      9  N   UNL     1       7.254  -3.290  22.243  0.00  0.00    +0.000 N 
ATOM     10  C   UNL     1       7.410  -1.984  22.421  0.00  0.00    +0.000 C 
ENDROOT
BRANCH   1  14
ATOM     11  C   UNL     1      10.440   2.150  22.930  0.00  0.00    +0.000 A 
ATOM     12  C   UNL     1      10.428   1.441  24.258  0.00  0.00    +0.000 A 
ATOM     13  C   UNL     1       9.880   0.097  24.547  0.00  0.00    +0.000 A 
ATOM     14  C   UNL     1       9.384  -0.521  23.352  0.00  0.00    +0.000 A 
ATOM     15  C   UNL     1       9.556  -0.146  21.954  0.00  0.00    +0.000 A 
ATOM     16  C   UNL     1       9.748   1.348  21.897  0.00  0.00    +0.000 A 
ENDBRANCH   1  14
BRANCH   9  17
ATOM     17  N   UNL     1       6.136  -3.358  21.714  0.00  0.00    +0.000 N 
ATOM     18  H   UNL     1       6.196  -3.309  20.844  0.00  0.00    +0.000 HD
ATOM     19  C   UNL     1       5.579  -4.450  22.279  0.00  0.00    +0.000 C 
ATOM     20  O   UNL     1       5.606  -5.436  21.458  0.00  0.00    +0.000 OA
BRANCH  19  21
ATOM     21  C   UNL     1       4.325  -4.403  23.053  0.00  0.00    +0.000 C 
ATOM     22  S   UNL     1       4.605  -3.360  24.487  0.00  0.00    +0.000 S 
ATOM     23  C   UNL     1       3.804  -4.450  25.643  0.00  0.00    +0.000 C 
ATOM     24  C   UNL     1       3.592  -5.703  25.017  0.00  0.00    +0.000 C 
ATOM     25  C   UNL     1       3.608  -5.610  23.484  0.00  0.00    +0.000 C 
ATOM     26  C   UNL     1       3.936  -7.179  25.511  0.00  0.00    +0.000 C 
ATOM     27  C   UNL     1       5.043  -6.627  26.572  0.00  0.00    +0.000 C 
ATOM     28  C   UNL     1       4.574  -5.584  27.535  0.00  0.00    +0.000 C 
ATOM     29  C   UNL     1       4.552  -4.115  26.987  0.00  0.00    +0.000 C 
ENDBRANCH  19  21
ENDBRANCH   9  17
TORSDOF 3
ENDMDL
MODEL 8
REMARK VINA RESULT:      -7.6      2.663      4.063
REMARK  Name = 
REMARK  3 active torsions:
REMARK  status: ('A' for Active; 'I' for Inactive)
REMARK    1  A    between atoms: C_7  and  C_8
REMARK    2  A    between atoms: N_23  and  N_24
REMARK    3  A    between atoms: C_26  and  C_28
REMARK                            x       y       z     vdW  Elec       q    Type
REMARK                         _______ _______ _______ _____ _____    ______ ____
ROOT
ATOM      1  C   UNL     1       8.525  -1.293  23.671  0.00  0.00    +0.000 C 
ATOM      2  C   UNL     1       7.847  -0.274  24.216  0.00  0.00    +0.000 A 
ATOM      3  C   UNL     1       6.433   0.047  23.862  0.00  0.00    +0.000 A 
ATOM      4  C   UNL     1       5.578   1.022  24.562  0.00  0.00    +0.000 A 
ATOM      5  C   UNL     1       6.348   1.416  25.810  0.00  0.00    +0.000 A 
ATOM      6  C   UNL     1       7.602   1.046  26.393  0.00  0.00    +0.000 A 
ATOM      7  C   UNL     1       7.967  -0.230  25.773  0.00  0.00    +0.000 A 
ATOM      8  C   UNL     1       7.792  -1.451  26.692  0.00  0.00    +0.000 C 
ATOM      9  N   UNL     1       8.168  -2.450  25.956  0.00  0.00    +0.000 N 
ATOM     10  C   UNL     1       8.580  -2.386  24.697  0.00  0.00    +0.000 C 
ENDROOT
BRANCH   1  14
ATOM     11  C   UNL     1      10.606   2.230  22.880  0.00  0.00    +0.000 A 
ATOM     12  C   UNL     1      10.870   1.449  24.139  0.00  0.00    +0.000 A 
ATOM     13  C   UNL     1      10.461   0.055  24.427  0.00  0.00    +0.000 A 
ATOM     14  C   UNL     1       9.799  -0.528  23.296  0.00  0.00    +0.000 A 
ATOM     15  C   UNL     1       9.700  -0.064  21.919  0.00  0.00    +0.000 A 
ATOM     16  C   UNL     1       9.790   1.440  21.930  0.00  0.00    +0.000 A 
ENDBRANCH   1  14
BRANCH   9  17
ATOM     17  N   UNL     1       7.724  -3.604  26.037  0.00  0.00    +0.000 N 
ATOM     18  H   UNL     1       8.223  -4.098  26.556  0.00  0.00    +0.000 HD
ATOM     19  C   UNL     1       6.422  -3.425  26.345  0.00  0.00    +0.000 C 
ATOM     20  O   UNL     1       6.224  -3.671  27.589  0.00  0.00    +0.000 OA
BRANCH  19  21
ATOM     21  C   UNL     1       5.321  -3.918  25.497  0.00  0.00    +0.000 C 
ATOM     22  S   UNL     1       5.739  -5.581  24.968  0.00  0.00    +0.000 S 
ATOM     23  C   UNL     1       5.259  -5.339  23.270  0.00  0.00    +0.000 C 
ATOM     24  C   UNL     1       5.067  -3.955  23.044  0.00  0.00    +0.000 C 
ATOM     25  C   UNL     1       4.810  -3.171  24.340  0.00  0.00    +0.000 C 
ATOM     26  C   UNL     1       5.633  -3.005  21.896  0.00  0.00    +0.000 C 
ATOM     27  C   UNL     1       6.847  -4.039  21.560  0.00  0.00    +0.000 C 
ATOM     28  C   UNL     1       6.451  -5.450  21.264  0.00  0.00    +0.000 C 
ATOM     29  C   UNL     1       6.191  -6.359  22.515  0.00  0.00    +0.000 C 
ENDBRANCH  19  21
ENDBRANCH   9  17
TORSDOF 3
ENDMDL
MODEL 9
REMARK VINA RESULT:      -7.3      2.598      4.803
REMARK  Name = 
REMARK  3 active torsions:
REMARK  status: ('A' for Active; 'I' for Inactive)
REMARK    1  A    between atoms: C_7  and  C_8
REMARK    2  A    between atoms: N_23  and  N_24
REMARK    3  A    between atoms: C_26  and  C_28
REMARK                            x       y       z     vdW  Elec       q    Type
REMARK                         _______ _______ _______ _____ _____    ______ ____
ROOT
ATOM      1  C   UNL     1       7.334   0.078  25.800  0.00  0.00    +0.000 C 
ATOM      2  C   UNL     1       8.430   0.730  25.390  0.00  0.00    +0.000 A 
ATOM      3  C   UNL     1       9.775   0.089  25.305  0.00  0.00    +0.000 A 
ATOM      4  C   UNL     1      10.969   0.689  24.682  0.00  0.00    +0.000 A 
ATOM      5  C   UNL     1      10.473   1.933  23.969  0.00  0.00    +0.000 A 
ATOM      6  C   UNL     1       9.200   2.562  23.781  0.00  0.00    +0.000 A 
ATOM      7  C   UNL     1       8.202   1.529  24.067  0.00  0.00    +0.000 A 
ATOM      8  C   UNL     1       7.504   0.962  22.820  0.00  0.00    +0.000 C 
ATOM      9  N   UNL     1       6.676   0.086  23.299  0.00  0.00    +0.000 N 
ATOM     10  C   UNL     1       6.521  -0.230  24.578  0.00  0.00    +0.000 C 
ENDROOT
BRANCH   1  14
ATOM     11  C   UNL     1       4.724   1.334  28.796  0.00  0.00    +0.000 A 
ATOM     12  C   UNL     1       6.159   1.010  29.114  0.00  0.00    +0.000 A 
ATOM     13  C   UNL     1       7.274   0.854  28.152  0.00  0.00    +0.000 A 
ATOM     14  C   UNL     1       6.833   1.114  26.813  0.00  0.00    +0.000 A 
ATOM     15  C   UNL     1       5.596   1.710  26.325  0.00  0.00    +0.000 A 
ATOM     16  C   UNL     1       4.515   1.419  27.333  0.00  0.00    +0.000 A 
ENDBRANCH   1  14
BRANCH   9  17
ATOM     17  N   UNL     1       6.317  -0.948  22.719  0.00  0.00    +0.000 N 
ATOM     18  H   UNL     1       5.608  -0.805  22.229  0.00  0.00    +0.000 HD
ATOM     19  C   UNL     1       7.448  -1.397  22.134  0.00  0.00    +0.000 C 
ATOM     20  O   UNL     1       7.426  -1.141  20.876  0.00  0.00    +0.000 OA
BRANCH  19  21
ATOM     21  C   UNL     1       8.033  -2.719  22.424  0.00  0.00    +0.000 C 
ATOM     22  S   UNL     1       6.686  -3.899  22.543  0.00  0.00    +0.000 S 
ATOM     23  C   UNL     1       7.301  -4.704  24.007  0.00  0.00    +0.000 C 
ATOM     24  C   UNL     1       8.338  -3.914  24.560  0.00  0.00    +0.000 C 
ATOM     25  C   UNL     1       8.962  -2.952  23.536  0.00  0.00    +0.000 C 
ATOM     26  C   UNL     1       8.564  -3.398  26.051  0.00  0.00    +0.000 C 
ATOM     27  C   UNL     1       6.989  -3.603  26.420  0.00  0.00    +0.000 C 
ATOM     28  C   UNL     1       6.419  -4.959  26.154  0.00  0.00    +0.000 C 
ATOM     29  C   UNL     1       5.977  -5.231  24.675  0.00  0.00    +0.000 C 
ENDBRANCH  19  21
ENDBRANCH   9  17
TORSDOF 3
ENDMDL
