MODEL 1
REMARK VINA RESULT:      -8.9      0.000      0.000
REMARK  Name = 
REMARK  4 active torsions:
REMARK  status: ('A' for Active; 'I' for Inactive)
REMARK    1  A    between atoms: C_6  and  N_7
REMARK    2  A    between atoms: C_9  and  C_11
REMARK    3  A    between atoms: C_15  and  C_16
REMARK    4  A    between atoms: C_32  and  C_34
REMARK                            x       y       z     vdW  Elec       q    Type
REMARK                         _______ _______ _______ _____ _____    ______ ____
ROOT
ATOM      1  C   UNL     1       7.367  -2.650  23.589  0.00  0.00    +0.000 C 
ATOM      2  O   UNL     1       7.737  -2.740  24.754  0.00  0.00    +0.000 OA
ATOM      3  N   UNL     1       8.073  -2.053  22.659  0.00  0.00    +0.000 N 
ATOM      4  C   UNL     1       9.551  -2.040  22.777  0.00  0.00    +0.000 C 
ATOM      5  C   UNL     1      10.078  -0.793  22.734  0.00  0.00    +0.000 A 
ATOM      6  C   UNL     1      10.177  -0.261  24.180  0.00  0.00    +0.000 A 
ATOM      7  C   UNL     1      10.443   1.139  24.513  0.00  0.00    +0.000 A 
ATOM      8  C   UNL     1      10.373   1.944  23.254  0.00  0.00    +0.000 A 
ATOM      9  C   UNL     1      10.015   1.644  21.902  0.00  0.00    +0.000 A 
ATOM     10  C   UNL     1       9.505   0.248  21.851  0.00  0.00    +0.000 A 
ATOM     11  C   UNL     1       8.329  -0.154  21.079  0.00  0.00    +0.000 C 
ATOM     12  C   UNL     1       7.510  -1.269  21.565  0.00  0.00    +0.000 C 
ENDROOT
BRANCH   1  17
ATOM     13  C   UNL     1       7.004  -5.698  21.664  0.00  0.00    +0.000 A 
ATOM     14  N   UNL     1       6.110  -6.566  22.446  0.00  0.00    +0.000 NA
ATOM     15  C   UNL     1       5.704  -5.869  23.481  0.00  0.00    +0.000 A 
ATOM     16  C   UNL     1       5.557  -4.404  23.959  0.00  0.00    +0.000 A 
ATOM     17  C   UNL     1       6.314  -3.495  23.147  0.00  0.00    +0.000 A 
ATOM     18  C   UNL     1       6.832  -4.307  21.906  0.00  0.00    +0.000 A 
BRANCH  16  19
ATOM     19  N   UNL     1       4.205  -4.221  24.342  0.00  0.00    +0.000 N 
ATOM     20  H   UNL     1       3.688  -4.962  24.055  0.00  0.00    +0.000 HD
ATOM     21  C   UNL     1       4.082  -4.005  25.651  0.00  0.00    +0.000 C 
ATOM     22  O   UNL     1       4.071  -4.948  26.449  0.00  0.00    +0.000 OA
ATOM     23  C   UNL     1       3.209  -2.797  26.014  0.00  0.00    +0.000 C 
ENDBRANCH  16  19
ENDBRANCH   1  17
BRANCH  11  24
ATOM     24  C   UNL     1       7.620   0.863  20.327  0.00  0.00    +0.000 A 
ATOM     25  C   UNL     1       7.356   0.324  18.943  0.00  0.00    +0.000 A 
ATOM     26  C   UNL     1       6.127   0.506  18.151  0.00  0.00    +0.000 A 
ATOM     27  C   UNL     1       5.157   1.256  19.021  0.00  0.00    +0.000 A 
ATOM     28  C   UNL     1       5.176   1.862  20.310  0.00  0.00    +0.000 A 
ATOM     29  C   UNL     1       6.639   1.840  20.775  0.00  0.00    +0.000 A 
ENDBRANCH  11  24
TORSDOF 3
ENDMDL
MODEL 2
REMARK VINA RESULT:      -8.6      2.783      6.849
REMARK  Name = 
REMARK  4 active torsions:
REMARK  status: ('A' for Active; 'I' for Inactive)
REMARK    1  A    between atoms: C_6  and  N_7
REMARK    2  A    between atoms: C_9  and  C_11
REMARK    3  A    between atoms: C_15  and  C_16
REMARK    4  A    between atoms: C_32  and  C_34
REMARK                            x       y       z     vdW  Elec       q    Type
REMARK                         _______ _______ _______ _____ _____    ______ ____
ROOT
ATOM      1  C   UNL     1       8.776  -0.101  24.554  0.00  0.00    +0.000 C 
ATOM      2  O   UNL     1       9.850  -0.156  25.142  0.00  0.00    +0.000 OA
ATOM      3  N   UNL     1       7.753  -0.860  24.861  0.00  0.00    +0.000 N 
ATOM      4  C   UNL     1       7.597  -1.324  26.262  0.00  0.00    +0.000 C 
ATOM      5  C   UNL     1       7.498  -2.670  26.369  0.00  0.00    +0.000 A 
ATOM      6  C   UNL     1       8.919  -3.243  26.568  0.00  0.00    +0.000 A 
ATOM      7  C   UNL     1       9.243  -4.666  26.455  0.00  0.00    +0.000 A 
ATOM      8  C   UNL     1       8.045  -5.380  25.914  0.00  0.00    +0.000 A 
ATOM      9  C   UNL     1       6.773  -4.952  25.419  0.00  0.00    +0.000 A 
ATOM     10  C   UNL     1       6.771  -3.466  25.356  0.00  0.00    +0.000 A 
ATOM     11  C   UNL     1       6.214  -2.708  24.235  0.00  0.00    +0.000 C 
ATOM     12  C   UNL     1       6.806  -1.409  23.895  0.00  0.00    +0.000 C 
ENDROOT
BRANCH   1  17
ATOM     13  C   UNL     1       8.580   3.494  24.955  0.00  0.00    +0.000 A 
ATOM     14  N   UNL     1       9.373   4.067  23.856  0.00  0.00    +0.000 NA
ATOM     15  C   UNL     1       9.756   3.070  23.095  0.00  0.00    +0.000 A 
ATOM     16  C   UNL     1       9.386   1.604  22.762  0.00  0.00    +0.000 A 
ATOM     17  C   UNL     1       8.507   1.034  23.742  0.00  0.00    +0.000 A 
ATOM     18  C   UNL     1       8.046   2.205  24.683  0.00  0.00    +0.000 A 
BRANCH  16  19
ATOM     19  N   UNL     1       9.200   1.526  21.359  0.00  0.00    +0.000 N 
ATOM     20  H   UNL     1      10.034   1.629  20.919  0.00  0.00    +0.000 HD
ATOM     21  C   UNL     1       8.582   0.403  20.999  0.00  0.00    +0.000 C 
ATOM     22  O   UNL     1       9.214  -0.652  20.867  0.00  0.00    +0.000 OA
ATOM     23  C   UNL     1       7.398   0.609  20.046  0.00  0.00    +0.000 C 
ENDBRANCH  16  19
ENDBRANCH   1  17
BRANCH  11  24
ATOM     24  C   UNL     1       5.640  -3.443  23.125  0.00  0.00    +0.000 A 
ATOM     25  C   UNL     1       6.768  -3.927  22.249  0.00  0.00    +0.000 A 
ATOM     26  C   UNL     1       6.860  -5.238  21.582  0.00  0.00    +0.000 A 
ATOM     27  C   UNL     1       5.656  -6.029  22.012  0.00  0.00    +0.000 A 
ATOM     28  C   UNL     1       4.488  -5.796  22.793  0.00  0.00    +0.000 A 
ATOM     29  C   UNL     1       4.455  -4.288  23.080  0.00  0.00    +0.000 A 
ENDBRANCH  11  24
TORSDOF 3
ENDMDL
MODEL 3
REMARK VINA RESULT:      -8.2      2.783      6.476
REMARK  Name = 
REMARK  4 active torsions:
REMARK  status: ('A' for Active; 'I' for Inactive)
REMARK    1  A    between atoms: C_6  and  N_7
REMARK    2  A    between atoms: C_9  and  C_11
REMARK    3  A    between atoms: C_15  and  C_16
REMARK    4  A    between atoms: C_32  and  C_34
REMARK                            x       y       z     vdW  Elec       q    Type
REMARK                         _______ _______ _______ _____ _____    ______ ____
ROOT
ATOM      1  C   UNL     1       9.384  -1.098  22.281  0.00  0.00    +0.000 C 
ATOM      2  O   UNL     1      10.435  -1.694  22.070  0.00  0.00    +0.000 OA
ATOM      3  N   UNL     1       8.703  -1.221  23.395  0.00  0.00    +0.000 N 
ATOM      4  C   UNL     1       9.430  -1.529  24.651  0.00  0.00    +0.000 C 
ATOM      5  C   UNL     1       8.961  -2.632  25.281  0.00  0.00    +0.000 A 
ATOM      6  C   UNL     1       9.761  -3.853  24.776  0.00  0.00    +0.000 A 
ATOM      7  C   UNL     1       9.367  -5.241  25.023  0.00  0.00    +0.000 A 
ATOM      8  C   UNL     1       7.998  -5.240  25.624  0.00  0.00    +0.000 A 
ATOM      9  C   UNL     1       7.026  -4.222  25.883  0.00  0.00    +0.000 A 
ATOM     10  C   UNL     1       7.515  -2.948  25.293  0.00  0.00    +0.000 A 
ATOM     11  C   UNL     1       6.658  -2.019  24.556  0.00  0.00    +0.000 C 
ATOM     12  C   UNL     1       7.247  -1.212  23.482  0.00  0.00    +0.000 C 
ENDROOT
BRANCH   1  17
ATOM     13  C   UNL     1       6.809  -0.212  19.892  0.00  0.00    +0.000 A 
ATOM     14  N   UNL     1       6.357   1.137  20.266  0.00  0.00    +0.000 NA
ATOM     15  C   UNL     1       7.128   1.544  21.247  0.00  0.00    +0.000 A 
ATOM     16  C   UNL     1       8.511   1.261  21.884  0.00  0.00    +0.000 A 
ATOM     17  C   UNL     1       9.056   0.007  21.451  0.00  0.00    +0.000 A 
ATOM     18  C   UNL     1       8.141  -0.517  20.286  0.00  0.00    +0.000 A 
BRANCH  16  19
ATOM     19  N   UNL     1       9.217   2.490  21.914  0.00  0.00    +0.000 N 
ATOM     20  H   UNL     1       8.724   3.154  21.451  0.00  0.00    +0.000 HD
ATOM     21  C   UNL     1       9.514   2.865  23.157  0.00  0.00    +0.000 C 
ATOM     22  O   UNL     1       8.679   3.449  23.857  0.00  0.00    +0.000 OA
ATOM     23  C   UNL     1      10.978   3.271  23.364  0.00  0.00    +0.000 C 
ENDBRANCH  16  19
ENDBRANCH   1  17
BRANCH  11  24
ATOM     24  C   UNL     1       5.259  -2.362  24.387  0.00  0.00    +0.000 A 
ATOM     25  C   UNL     1       5.152  -3.348  23.251  0.00  0.00    +0.000 A 
ATOM     26  C   UNL     1       4.268  -4.525  23.192  0.00  0.00    +0.000 A 
ATOM     27  C   UNL     1       3.556  -4.601  24.513  0.00  0.00    +0.000 A 
ATOM     28  C   UNL     1       3.482  -3.811  25.696  0.00  0.00    +0.000 A 
ATOM     29  C   UNL     1       4.204  -2.493  25.381  0.00  0.00    +0.000 A 
ENDBRANCH  11  24
TORSDOF 3
ENDMDL
MODEL 4
REMARK VINA RESULT:      -8.1      2.504      3.606
REMARK  Name = 
REMARK  4 active torsions:
REMARK  status: ('A' for Active; 'I' for Inactive)
REMARK    1  A    between atoms: C_6  and  N_7
REMARK    2  A    between atoms: C_9  and  C_11
REMARK    3  A    between atoms: C_15  and  C_16
REMARK    4  A    between atoms: C_32  and  C_34
REMARK                            x       y       z     vdW  Elec       q    Type
REMARK                         _______ _______ _______ _____ _____    ______ ____
ROOT
ATOM      1  C   UNL     1       6.117  -2.920  25.595  0.00  0.00    +0.000 C 
ATOM      2  O   UNL     1       5.286  -2.521  26.404  0.00  0.00    +0.000 OA
ATOM      3  N   UNL     1       6.977  -2.127  25.004  0.00  0.00    +0.000 N 
ATOM      4  C   UNL     1       7.432  -0.906  25.712  0.00  0.00    +0.000 C 
ATOM      5  C   UNL     1       7.240   0.228  24.996  0.00  0.00    +0.000 A 
ATOM      6  C   UNL     1       5.852   0.798  25.359  0.00  0.00    +0.000 A 
ATOM      7  C   UNL     1       5.185   1.856  24.599  0.00  0.00    +0.000 A 
ATOM      8  C   UNL     1       5.963   2.096  23.344  0.00  0.00    +0.000 A 
ATOM      9  C   UNL     1       7.093   1.460  22.739  0.00  0.00    +0.000 A 
ATOM     10  C   UNL     1       7.423   0.243  23.527  0.00  0.00    +0.000 A 
ATOM     11  C   UNL     1       7.780  -1.040  22.920  0.00  0.00    +0.000 C 
ATOM     12  C   UNL     1       7.435  -2.278  23.627  0.00  0.00    +0.000 C 
ENDROOT
BRANCH   1  17
ATOM     13  C   UNL     1       6.512  -5.673  27.916  0.00  0.00    +0.000 A 
ATOM     14  N   UNL     1       5.679  -6.767  27.391  0.00  0.00    +0.000 NA
ATOM     15  C   UNL     1       5.201  -6.368  26.237  0.00  0.00    +0.000 A 
ATOM     16  C   UNL     1       5.477  -5.338  25.114  0.00  0.00    +0.000 A 
ATOM     17  C   UNL     1       6.388  -4.314  25.536  0.00  0.00    +0.000 A 
ATOM     18  C   UNL     1       6.965  -4.754  26.929  0.00  0.00    +0.000 A 
BRANCH  16  19
ATOM     19  N   UNL     1       5.569  -6.059  23.897  0.00  0.00    +0.000 N 
ATOM     20  H   UNL     1       4.835  -6.655  23.821  0.00  0.00    +0.000 HD
ATOM     21  C   UNL     1       5.663  -5.249  22.844  0.00  0.00    +0.000 C 
ATOM     22  O   UNL     1       4.653  -4.741  22.344  0.00  0.00    +0.000 OA
ATOM     23  C   UNL     1       6.796  -5.602  21.873  0.00  0.00    +0.000 C 
ENDBRANCH  16  19
ENDBRANCH   1  17
BRANCH  11  24
ATOM     24  C   UNL     1       7.807  -1.131  21.474  0.00  0.00    +0.000 A 
ATOM     25  C   UNL     1       6.527  -1.788  21.021  0.00  0.00    +0.000 A 
ATOM     26  C   UNL     1       5.723  -1.422  19.841  0.00  0.00    +0.000 A 
ATOM     27  C   UNL     1       6.377  -0.217  19.227  0.00  0.00    +0.000 A 
ATOM     28  C   UNL     1       7.555   0.551  19.454  0.00  0.00    +0.000 A 
ATOM     29  C   UNL     1       8.381  -0.222  20.492  0.00  0.00    +0.000 A 
ENDBRANCH  11  24
TORSDOF 3
ENDMDL
MODEL 5
REMARK VINA RESULT:      -7.7      2.270      7.583
REMARK  Name = 
REMARK  4 active torsions:
REMARK  status: ('A' for Active; 'I' for Inactive)
REMARK    1  A    between atoms: C_6  and  N_7
REMARK    2  A    between atoms: C_9  and  C_11
REMARK    3  A    between atoms: C_15  and  C_16
REMARK    4  A    between atoms: C_32  and  C_34
REMARK                            x       y       z     vdW  Elec       q    Type
REMARK                         _______ _______ _______ _____ _____    ______ ____
ROOT
ATOM      1  C   UNL     1       6.785  -2.468  22.255  0.00  0.00    +0.000 C 
ATOM      2  O   UNL     1       5.955  -2.425  21.354  0.00  0.00    +0.000 OA
ATOM      3  N   UNL     1       7.034  -3.554  22.946  0.00  0.00    +0.000 N 
ATOM      4  C   UNL     1       6.845  -4.875  22.300  0.00  0.00    +0.000 C 
ATOM      5  C   UNL     1       6.014  -5.692  22.991  0.00  0.00    +0.000 A 
ATOM      6  C   UNL     1       4.578  -5.474  22.466  0.00  0.00    +0.000 A 
ATOM      7  C   UNL     1       3.382  -5.975  23.144  0.00  0.00    +0.000 A 
ATOM      8  C   UNL     1       3.787  -6.505  24.482  0.00  0.00    +0.000 A 
ATOM      9  C   UNL     1       5.014  -6.516  25.217  0.00  0.00    +0.000 A 
ATOM     10  C   UNL     1       6.014  -5.706  24.471  0.00  0.00    +0.000 A 
ATOM     11  C   UNL     1       6.930  -4.763  25.113  0.00  0.00    +0.000 C 
ATOM     12  C   UNL     1       7.362  -3.576  24.368  0.00  0.00    +0.000 C 
ENDROOT
BRANCH   1  17
ATOM     13  C   UNL     1       7.830   0.380  20.276  0.00  0.00    +0.000 A 
ATOM     14  N   UNL     1       7.888   1.519  21.205  0.00  0.00    +0.000 NA
ATOM     15  C   UNL     1       7.646   1.050  22.406  0.00  0.00    +0.000 A 
ATOM     16  C   UNL     1       7.671  -0.276  23.204  0.00  0.00    +0.000 A 
ATOM     17  C   UNL     1       7.742  -1.421  22.343  0.00  0.00    +0.000 A 
ATOM     18  C   UNL     1       8.013  -0.889  20.890  0.00  0.00    +0.000 A 
BRANCH  16  19
ATOM     19  N   UNL     1       8.485  -0.064  24.345  0.00  0.00    +0.000 N 
ATOM     20  H   UNL     1       8.106  -0.504  25.095  0.00  0.00    +0.000 HD
ATOM     21  C   UNL     1       9.747  -0.435  24.134  0.00  0.00    +0.000 C 
ATOM     22  O   UNL     1      10.084  -1.619  24.244  0.00  0.00    +0.000 OA
ATOM     23  C   UNL     1      10.791   0.610  24.545  0.00  0.00    +0.000 C 
ENDBRANCH  16  19
ENDBRANCH   1  17
BRANCH  11  24
ATOM     24  C   UNL     1       6.856  -4.606  26.553  0.00  0.00    +0.000 A 
ATOM     25  C   UNL     1       5.763  -3.613  26.861  0.00  0.00    +0.000 A 
ATOM     26  C   UNL     1       4.792  -3.693  27.967  0.00  0.00    +0.000 A 
ATOM     27  C   UNL     1       5.046  -4.993  28.675  0.00  0.00    +0.000 A 
ATOM     28  C   UNL     1       5.992  -6.054  28.585  0.00  0.00    +0.000 A 
ATOM     29  C   UNL     1       7.080  -5.581  27.610  0.00  0.00    +0.000 A 
ENDBRANCH  11  24
TORSDOF 3
ENDMDL
MODEL 6
REMARK VINA RESULT:      -7.7      2.779      4.423
REMARK  Name = 
REMARK  4 active torsions:
REMARK  status: ('A' for Active; 'I' for Inactive)
REMARK    1  A    between atoms: C_6  and  N_7
REMARK    2  A    between atoms: C_9  and  C_11
REMARK    3  A    between atoms: C_15  and  C_16
REMARK    4  A    between atoms: C_32  and  C_34
REMARK                            x       y       z     vdW  Elec       q    Type
REMARK                         _______ _______ _______ _____ _____    ______ ____
ROOT
ATOM      1  C   UNL     1       8.068  -2.106  22.597  0.00  0.00    +0.000 C 
ATOM      2  O   UNL     1       9.101  -2.246  21.952  0.00  0.00    +0.000 OA
ATOM      3  N   UNL     1       7.433  -0.963  22.691  0.00  0.00    +0.000 N 
ATOM      4  C   UNL     1       7.525   0.005  21.570  0.00  0.00    +0.000 C 
ATOM      5  C   UNL     1       7.962   1.227  21.956  0.00  0.00    +0.000 A 
ATOM      6  C   UNL     1       9.500   1.255  21.818  0.00  0.00    +0.000 A 
ATOM      7  C   UNL     1      10.348   2.302  22.390  0.00  0.00    +0.000 A 
ATOM      8  C   UNL     1       9.502   3.160  23.275  0.00  0.00    +0.000 A 
ATOM      9  C   UNL     1       8.145   3.092  23.723  0.00  0.00    +0.000 A 
ATOM     10  C   UNL     1       7.563   1.805  23.259  0.00  0.00    +0.000 A 
ATOM     11  C   UNL     1       6.712   0.956  24.093  0.00  0.00    +0.000 C 
ATOM     12  C   UNL     1       6.738  -0.495  23.886  0.00  0.00    +0.000 C 
ENDROOT
BRANCH   1  17
ATOM     13  C   UNL     1       5.890  -4.544  21.036  0.00  0.00    +0.000 A 
ATOM     14  N   UNL     1       6.394  -5.862  21.453  0.00  0.00    +0.000 NA
ATOM     15  C   UNL     1       7.366  -5.651  22.309  0.00  0.00    +0.000 A 
ATOM     16  C   UNL     1       7.907  -4.559  23.264  0.00  0.00    +0.000 A 
ATOM     17  C   UNL     1       7.348  -3.269  22.980  0.00  0.00    +0.000 A 
ATOM     18  C   UNL     1       6.191  -3.488  21.939  0.00  0.00    +0.000 A 
BRANCH  16  19
ATOM     19  N   UNL     1       8.002  -5.139  24.554  0.00  0.00    +0.000 N 
ATOM     20  H   UNL     1       8.042  -6.083  24.478  0.00  0.00    +0.000 HD
ATOM     21  C   UNL     1       9.031  -4.652  25.246  0.00  0.00    +0.000 C 
ATOM     22  O   UNL     1      10.173  -5.095  25.078  0.00  0.00    +0.000 OA
ATOM     23  C   UNL     1       8.680  -4.201  26.669  0.00  0.00    +0.000 C 
ENDBRANCH  16  19
ENDBRANCH   1  17
BRANCH  11  24
ATOM     24  C   UNL     1       6.425   1.391  25.447  0.00  0.00    +0.000 A 
ATOM     25  C   UNL     1       4.927   1.411  25.625  0.00  0.00    +0.000 A 
ATOM     26  C   UNL     1       4.181   0.986  26.824  0.00  0.00    +0.000 A 
ATOM     27  C   UNL     1       5.193   0.452  27.798  0.00  0.00    +0.000 A 
ATOM     28  C   UNL     1       6.611   0.343  27.863  0.00  0.00    +0.000 A 
ATOM     29  C   UNL     1       7.161   1.151  26.679  0.00  0.00    +0.000 A 
ENDBRANCH  11  24
TORSDOF 3
ENDMDL
MODEL 7
REMARK VINA RESULT:      -7.7      2.887      4.302
REMARK  Name = 
REMARK  4 active torsions:
REMARK  status: ('A' for Active; 'I' for Inactive)
REMARK    1  A    between atoms: C_6  and  N_7
REMARK    2  A    between atoms: C_9  and  C_11
REMARK    3  A    between atoms: C_15  and  C_16
REMARK    4  A    between atoms: C_32  and  C_34
REMARK                            x       y       z     vdW  Elec       q    Type
REMARK                         _______ _______ _______ _____ _____    ______ ____
ROOT
ATOM      1  C   UNL     1       8.799  -3.551  24.270  0.00  0.00    +0.000 C 
ATOM      2  O   UNL     1      10.014  -3.707  24.222  0.00  0.00    +0.000 OA
ATOM      3  N   UNL     1       8.197  -2.479  23.817  0.00  0.00    +0.000 N 
ATOM      4  C   UNL     1       8.809  -1.735  22.689  0.00  0.00    +0.000 C 
ATOM      5  C   UNL     1       9.015  -0.425  22.964  0.00  0.00    +0.000 A 
ATOM      6  C   UNL     1      10.436  -0.272  23.550  0.00  0.00    +0.000 A 
ATOM      7  C   UNL     1      10.915   0.942  24.211  0.00  0.00    +0.000 A 
ATOM      8  C   UNL     1       9.753   1.864  24.402  0.00  0.00    +0.000 A 
ATOM      9  C   UNL     1       8.344   1.748  24.175  0.00  0.00    +0.000 A 
ATOM     10  C   UNL     1       8.048   0.345  23.779  0.00  0.00    +0.000 A 
ATOM     11  C   UNL     1       6.902  -0.411  24.285  0.00  0.00    +0.000 C 
ATOM     12  C   UNL     1       7.021  -1.867  24.426  0.00  0.00    +0.000 C 
ENDROOT
BRANCH   1  17
ATOM     13  C   UNL     1       7.569  -5.403  27.131  0.00  0.00    +0.000 A 
ATOM     14  N   UNL     1       6.126  -5.582  26.907  0.00  0.00    +0.000 NA
ATOM     15  C   UNL     1       5.858  -5.102  25.715  0.00  0.00    +0.000 A 
ATOM     16  C   UNL     1       6.555  -4.751  24.378  0.00  0.00    +0.000 A 
ATOM     17  C   UNL     1       7.981  -4.687  24.514  0.00  0.00    +0.000 A 
ATOM     18  C   UNL     1       8.333  -5.240  25.943  0.00  0.00    +0.000 A 
BRANCH  16  19
ATOM     19  N   UNL     1       5.865  -5.445  23.352  0.00  0.00    +0.000 N 
ATOM     20  H   UNL     1       4.969  -5.601  23.617  0.00  0.00    +0.000 HD
ATOM     21  C   UNL     1       5.934  -4.806  22.185  0.00  0.00    +0.000 C 
ATOM     22  O   UNL     1       5.164  -3.874  21.927  0.00  0.00    +0.000 OA
ATOM     23  C   UNL     1       6.349  -5.691  21.003  0.00  0.00    +0.000 C 
ENDBRANCH  16  19
ENDBRANCH   1  17
BRANCH  11  24
ATOM     24  C   UNL     1       6.012   0.239  25.226  0.00  0.00    +0.000 A 
ATOM     25  C   UNL     1       6.603   0.096  26.607  0.00  0.00    +0.000 A 
ATOM     26  C   UNL     1       6.617   1.120  27.666  0.00  0.00    +0.000 A 
ATOM     27  C   UNL     1       6.005   2.361  27.077  0.00  0.00    +0.000 A 
ATOM     28  C   UNL     1       5.385   2.727  25.848  0.00  0.00    +0.000 A 
ATOM     29  C   UNL     1       5.184   1.424  25.061  0.00  0.00    +0.000 A 
ENDBRANCH  11  24
TORSDOF 3
ENDMDL
MODEL 8
REMARK VINA RESULT:      -7.6      2.516      3.730
REMARK  Name = 
REMARK  4 active torsions:
REMARK  status: ('A' for Active; 'I' for Inactive)
REMARK    1  A    between atoms: C_6  and  N_7
REMARK    2  A    between atoms: C_9  and  C_11
REMARK    3  A    between atoms: C_15  and  C_16
REMARK    4  A    between atoms: C_32  and  C_34
REMARK                            x       y       z     vdW  Elec       q    Type
REMARK                         _______ _______ _______ _____ _____    ______ ____
ROOT
ATOM      1  C   UNL     1       6.826  -3.011  26.341  0.00  0.00    +0.000 C 
ATOM      2  O   UNL     1       6.056  -2.644  27.221  0.00  0.00    +0.000 OA
ATOM      3  N   UNL     1       7.869  -2.311  25.966  0.00  0.00    +0.000 N 
ATOM      4  C   UNL     1       8.535  -1.428  26.954  0.00  0.00    +0.000 C 
ATOM      5  C   UNL     1       8.632  -0.143  26.539  0.00  0.00    +0.000 A 
ATOM      6  C   UNL     1       7.380   0.618  27.028  0.00  0.00    +0.000 A 
ATOM      7  C   UNL     1       7.000   1.949  26.550  0.00  0.00    +0.000 A 
ATOM      8  C   UNL     1       7.883   2.303  25.396  0.00  0.00    +0.000 A 
ATOM      9  C   UNL     1       8.882   1.596  24.655  0.00  0.00    +0.000 A 
ATOM     10  C   UNL     1       8.897   0.184  25.120  0.00  0.00    +0.000 A 
ATOM     11  C   UNL     1       9.005  -0.962  24.216  0.00  0.00    +0.000 C 
ATOM     12  C   UNL     1       8.362  -2.225  24.595  0.00  0.00    +0.000 C 
ENDROOT
BRANCH   1  17
ATOM     13  C   UNL     1       6.219  -6.239  27.870  0.00  0.00    +0.000 A 
ATOM     14  N   UNL     1       5.270  -6.933  26.987  0.00  0.00    +0.000 NA
ATOM     15  C   UNL     1       5.090  -6.168  25.936  0.00  0.00    +0.000 A 
ATOM     16  C   UNL     1       5.767  -5.008  25.166  0.00  0.00    +0.000 A 
ATOM     17  C   UNL     1       6.794  -4.374  25.941  0.00  0.00    +0.000 A 
ATOM     18  C   UNL     1       7.020  -5.260  27.220  0.00  0.00    +0.000 A 
BRANCH  16  19
ATOM     19  N   UNL     1       5.904  -5.423  23.818  0.00  0.00    +0.000 N 
ATOM     20  H   UNL     1       5.567  -6.304  23.718  0.00  0.00    +0.000 HD
ATOM     21  C   UNL     1       5.327  -4.571  22.972  0.00  0.00    +0.000 C 
ATOM     22  O   UNL     1       4.111  -4.622  22.754  0.00  0.00    +0.000 OA
ATOM     23  C   UNL     1       6.212  -4.154  21.791  0.00  0.00    +0.000 C 
ENDBRANCH  16  19
ENDBRANCH   1  17
BRANCH  11  24
ATOM     24  C   UNL     1       9.094  -0.708  22.792  0.00  0.00    +0.000 A 
ATOM     25  C   UNL     1       7.750  -1.006  22.176  0.00  0.00    +0.000 A 
ATOM     26  C   UNL     1       7.082  -0.235  21.113  0.00  0.00    +0.000 A 
ATOM     27  C   UNL     1       7.958   0.951  20.821  0.00  0.00    +0.000 A 
ATOM     28  C   UNL     1       9.232   1.426  21.243  0.00  0.00    +0.000 A 
ATOM     29  C   UNL     1       9.862   0.296  22.070  0.00  0.00    +0.000 A 
ENDBRANCH  11  24
TORSDOF 3
ENDMDL
MODEL 9
REMARK VINA RESULT:      -7.4      3.044      4.434
REMARK  Name = 
REMARK  4 active torsions:
REMARK  status: ('A' for Active; 'I' for Inactive)
REMARK    1  A    between atoms: C_6  and  N_7
REMARK    2  A    between atoms: C_9  and  C_11
REMARK    3  A    between atoms: C_15  and  C_16
REMARK    4  A    between atoms: C_32  and  C_34
REMARK                            x       y       z     vdW  Elec       q    Type
REMARK                         _______ _______ _______ _____ _____    ______ ____
ROOT
ATOM      1  C   UNL     1       6.016  -2.947  25.829  0.00  0.00    +0.000 C 
ATOM      2  O   UNL     1       4.802  -2.785  25.872  0.00  0.00    +0.000 OA
ATOM      3  N   UNL     1       6.874  -2.020  26.179  0.00  0.00    +0.000 N 
ATOM      4  C   UNL     1       6.482  -1.032  27.213  0.00  0.00    +0.000 C 
ATOM      5  C   UNL     1       6.612   0.251  26.799  0.00  0.00    +0.000 A 
ATOM      6  C   UNL     1       5.271   0.696  26.176  0.00  0.00    +0.000 A 
ATOM      7  C   UNL     1       5.108   1.916  25.384  0.00  0.00    +0.000 A 
ATOM      8  C   UNL     1       6.465   2.488  25.119  0.00  0.00    +0.000 A 
ATOM      9  C   UNL     1       7.800   2.044  25.381  0.00  0.00    +0.000 A 
ATOM     10  C   UNL     1       7.734   0.662  25.926  0.00  0.00    +0.000 A 
ATOM     11  C   UNL     1       8.646  -0.409  25.521  0.00  0.00    +0.000 C 
ATOM     12  C   UNL     1       8.162  -1.793  25.530  0.00  0.00    +0.000 C 
ENDROOT
BRANCH   1  17
ATOM     13  C   UNL     1       8.101  -4.843  23.552  0.00  0.00    +0.000 A 
ATOM     14  N   UNL     1       9.084  -5.544  24.392  0.00  0.00    +0.000 NA
ATOM     15  C   UNL     1       8.765  -5.303  25.642  0.00  0.00    +0.000 A 
ATOM     16  C   UNL     1       7.564  -4.852  26.509  0.00  0.00    +0.000 A 
ATOM     17  C   UNL     1       6.517  -4.272  25.719  0.00  0.00    +0.000 A 
ATOM     18  C   UNL     1       6.881  -4.529  24.212  0.00  0.00    +0.000 A 
BRANCH  16  19
ATOM     19  N   UNL     1       7.378  -5.838  27.511  0.00  0.00    +0.000 N 
ATOM     20  H   UNL     1       8.111  -5.826  28.112  0.00  0.00    +0.000 HD
ATOM     21  C   UNL     1       6.214  -5.692  28.143  0.00  0.00    +0.000 C 
ATOM     22  O   UNL     1       6.094  -4.880  29.067  0.00  0.00    +0.000 OA
ATOM     23  C   UNL     1       5.392  -6.981  28.260  0.00  0.00    +0.000 C 
ENDBRANCH  16  19
ENDBRANCH   1  17
BRANCH  11  24
ATOM     24  C   UNL     1       9.664  -0.108  24.533  0.00  0.00    +0.000 A 
ATOM     25  C   UNL     1       9.086  -0.382  23.167  0.00  0.00    +0.000 A 
ATOM     26  C   UNL     1       9.289   0.425  21.951  0.00  0.00    +0.000 A 
ATOM     27  C   UNL     1      10.110   1.618  22.353  0.00  0.00    +0.000 A 
ATOM     28  C   UNL     1      10.761   2.076  23.534  0.00  0.00    +0.000 A 
ATOM     29  C   UNL     1      10.696   0.918  24.540  0.00  0.00    +0.000 A 
ENDBRANCH  11  24
TORSDOF 3
ENDMDL
