MODEL 1
REMARK VINA RESULT:      -8.8      0.000      0.000
REMARK  Name = 
REMARK  6 active torsions:
REMARK  status: ('A' for Active; 'I' for Inactive)
REMARK    1  A    between atoms: O_2  and  C_3
REMARK    2  A    between atoms: N_14  and  C_15
REMARK    3  A    between atoms: C_15  and  C_18
REMARK    4  A    between atoms: C_29  and  C_31
REMARK    5  A    between atoms: C_31  and  C_34
REMARK    6  A    between atoms: C_50  and  C_52
REMARK                            x       y       z     vdW  Elec       q    Type
REMARK                         _______ _______ _______ _____ _____    ______ ____
ROOT
ATOM      1  C   UNL     1       9.707  -2.192  23.328  0.00  0.00    +0.000 C 
ATOM      2  O   UNL     1      10.770  -1.868  22.717  0.00  0.00    +0.000 OA
ATOM      3  N   UNL     1       8.936  -1.068  23.682  0.00  0.00    +0.000 N 
ATOM      4  C   UNL     1       9.574  -0.132  24.627  0.00  0.00    +0.000 C 
ATOM      5  C   UNL     1       9.303   1.160  24.542  0.00  0.00    +0.000 A 
ATOM      6  C   UNL     1      10.648   1.859  24.110  0.00  0.00    +0.000 A 
ATOM      7  C   UNL     1      10.786   3.124  23.395  0.00  0.00    +0.000 A 
ATOM      8  C   UNL     1       9.369   3.595  23.167  0.00  0.00    +0.000 A 
ATOM      9  C   UNL     1       8.065   3.137  23.419  0.00  0.00    +0.000 A 
ATOM     10  C   UNL     1       8.165   1.653  23.711  0.00  0.00    +0.000 A 
ATOM     11  C   UNL     1       7.473   0.783  22.752  0.00  0.00    +0.000 C 
ATOM     12  C   UNL     1       8.358  -0.493  22.484  0.00  0.00    +0.000 C 
ENDROOT
BRANCH  11  13
ATOM     13  C   UNL     1       7.307   1.315  21.382  0.00  0.00    +0.000 A 
ATOM     14  C   UNL     1       8.072   0.493  20.412  0.00  0.00    +0.000 A 
ATOM     15  C   UNL     1       7.601   0.033  19.083  0.00  0.00    +0.000 A 
ATOM     16  C   UNL     1       6.195   0.541  18.947  0.00  0.00    +0.000 A 
ATOM     17  C   UNL     1       5.314   1.410  19.657  0.00  0.00    +0.000 A 
ATOM     18  C   UNL     1       6.143   1.979  20.805  0.00  0.00    +0.000 A 
ENDBRANCH  11  13
BRANCH   1  19
ATOM     19  C   UNL     1       9.765  -3.335  24.295  0.00  0.00    +0.000 C 
BRANCH  19  25
ATOM     20  C   UNL     1       8.220  -3.304  26.233  0.00  0.00    +0.000 C 
ATOM     21  C   UNL     1       6.875  -3.624  26.822  0.00  0.00    +0.000 C 
ATOM     22  C   UNL     1       6.236  -4.771  26.078  0.00  0.00    +0.000 C 
ATOM     23  C   UNL     1       7.383  -5.718  25.677  0.00  0.00    +0.000 C 
ATOM     24  N   UNL     1       8.198  -5.202  24.645  0.00  0.00    +0.000 NA
ATOM     25  C   UNL     1       8.436  -3.821  24.818  0.00  0.00    +0.000 C 
BRANCH  20  27
ATOM     26  H   UNL     1       8.955  -3.840  27.943  0.00  0.00    +0.000 HD
ATOM     27  O   UNL     1       9.228  -3.691  27.076  0.00  0.00    +0.000 OA
ENDBRANCH  20  27
BRANCH  24  28
ATOM     28  C   UNL     1       7.859  -5.593  23.335  0.00  0.00    +0.000 C 
BRANCH  28  29
ATOM     29  C   UNL     1       6.959  -5.022  22.467  0.00  0.00    +0.000 A 
ATOM     30  C   UNL     1       5.781  -5.912  22.485  0.00  0.00    +0.000 A 
ATOM     31  C   UNL     1       4.373  -5.671  22.993  0.00  0.00    +0.000 A 
ATOM     32  C   UNL     1       4.319  -4.183  23.103  0.00  0.00    +0.000 A 
ATOM     33  C   UNL     1       5.234  -3.128  22.813  0.00  0.00    +0.000 A 
ATOM     34  C   UNL     1       6.460  -3.706  22.196  0.00  0.00    +0.000 A 
ENDBRANCH  28  29
ENDBRANCH  24  28
ENDBRANCH  19  25
ENDBRANCH   1  19
TORSDOF 6
ENDMDL
MODEL 2
REMARK VINA RESULT:      -7.9      1.469      2.933
REMARK  Name = 
REMARK  6 active torsions:
REMARK  status: ('A' for Active; 'I' for Inactive)
REMARK    1  A    between atoms: O_2  and  C_3
REMARK    2  A    between atoms: N_14  and  C_15
REMARK    3  A    between atoms: C_15  and  C_18
REMARK    4  A    between atoms: C_29  and  C_31
REMARK    5  A    between atoms: C_31  and  C_34
REMARK    6  A    between atoms: C_50  and  C_52
REMARK                            x       y       z     vdW  Elec       q    Type
REMARK                         _______ _______ _______ _____ _____    ______ ____
ROOT
ATOM      1  C   UNL     1       8.890  -2.666  23.373  0.00  0.00    +0.000 C 
ATOM      2  O   UNL     1      10.027  -2.499  22.835  0.00  0.00    +0.000 OA
ATOM      3  N   UNL     1       8.282  -1.443  23.717  0.00  0.00    +0.000 N 
ATOM      4  C   UNL     1       8.998  -0.640  24.727  0.00  0.00    +0.000 C 
ATOM      5  C   UNL     1       8.937   0.680  24.667  0.00  0.00    +0.000 A 
ATOM      6  C   UNL     1      10.398   1.169  24.335  0.00  0.00    +0.000 A 
ATOM      7  C   UNL     1      10.774   2.413  23.669  0.00  0.00    +0.000 A 
ATOM      8  C   UNL     1       9.465   3.104  23.375  0.00  0.00    +0.000 A 
ATOM      9  C   UNL     1       8.092   2.851  23.537  0.00  0.00    +0.000 A 
ATOM     10  C   UNL     1       7.943   1.364  23.788  0.00  0.00    +0.000 A 
ATOM     11  C   UNL     1       7.185   0.635  22.764  0.00  0.00    +0.000 C 
ATOM     12  C   UNL     1       7.876  -0.759  22.507  0.00  0.00    +0.000 C 
ENDROOT
BRANCH  11  13
ATOM     13  C   UNL     1       7.188   1.215  21.404  0.00  0.00    +0.000 A 
ATOM     14  C   UNL     1       8.039   0.406  20.497  0.00  0.00    +0.000 A 
ATOM     15  C   UNL     1       7.711   0.003  19.108  0.00  0.00    +0.000 A 
ATOM     16  C   UNL     1       6.341   0.554  18.833  0.00  0.00    +0.000 A 
ATOM     17  C   UNL     1       5.407   1.423  19.469  0.00  0.00    +0.000 A 
ATOM     18  C   UNL     1       6.113   1.930  20.724  0.00  0.00    +0.000 A 
ENDBRANCH  11  13
BRANCH   1  19
ATOM     19  C   UNL     1       8.710  -3.825  24.306  0.00  0.00    +0.000 C 
BRANCH  19  25
ATOM     20  C   UNL     1       7.116  -5.262  23.068  0.00  0.00    +0.000 C 
ATOM     21  C   UNL     1       5.822  -6.025  23.027  0.00  0.00    +0.000 C 
ATOM     22  C   UNL     1       4.838  -5.440  24.010  0.00  0.00    +0.000 C 
ATOM     23  C   UNL     1       5.082  -3.918  24.013  0.00  0.00    +0.000 C 
ATOM     24  N   UNL     1       6.288  -3.548  24.648  0.00  0.00    +0.000 NA
ATOM     25  C   UNL     1       7.334  -4.441  24.330  0.00  0.00    +0.000 C 
BRANCH  20  27
ATOM     26  H   UNL     1       6.744  -4.772  21.231  0.00  0.00    +0.000 HD
ATOM     27  O   UNL     1       7.275  -4.507  21.935  0.00  0.00    +0.000 OA
ENDBRANCH  20  27
BRANCH  24  28
ATOM     28  C   UNL     1       6.188  -3.200  26.009  0.00  0.00    +0.000 C 
BRANCH  28  29
ATOM     29  C   UNL     1       6.103  -4.021  27.108  0.00  0.00    +0.000 A 
ATOM     30  C   UNL     1       4.805  -3.702  27.734  0.00  0.00    +0.000 A 
ATOM     31  C   UNL     1       3.553  -4.544  27.886  0.00  0.00    +0.000 A 
ATOM     32  C   UNL     1       4.056  -5.925  27.623  0.00  0.00    +0.000 A 
ATOM     33  C   UNL     1       5.337  -6.480  27.335  0.00  0.00    +0.000 A 
ATOM     34  C   UNL     1       6.361  -5.399  27.404  0.00  0.00    +0.000 A 
ENDBRANCH  28  29
ENDBRANCH  24  28
ENDBRANCH  19  25
ENDBRANCH   1  19
TORSDOF 6
ENDMDL
MODEL 3
REMARK VINA RESULT:      -7.8      1.589      2.965
REMARK  Name = 
REMARK  6 active torsions:
REMARK  status: ('A' for Active; 'I' for Inactive)
REMARK    1  A    between atoms: O_2  and  C_3
REMARK    2  A    between atoms: N_14  and  C_15
REMARK    3  A    between atoms: C_15  and  C_18
REMARK    4  A    between atoms: C_29  and  C_31
REMARK    5  A    between atoms: C_31  and  C_34
REMARK    6  A    between atoms: C_50  and  C_52
REMARK                            x       y       z     vdW  Elec       q    Type
REMARK                         _______ _______ _______ _____ _____    ______ ____
ROOT
ATOM      1  C   UNL     1       8.999  -2.806  23.529  0.00  0.00    +0.000 C 
ATOM      2  O   UNL     1      10.114  -2.671  22.938  0.00  0.00    +0.000 OA
ATOM      3  N   UNL     1       8.459  -1.569  23.930  0.00  0.00    +0.000 N 
ATOM      4  C   UNL     1       9.255  -0.818  24.919  0.00  0.00    +0.000 C 
ATOM      5  C   UNL     1       9.243   0.504  24.891  0.00  0.00    +0.000 A 
ATOM      6  C   UNL     1      10.705   0.944  24.496  0.00  0.00    +0.000 A 
ATOM      7  C   UNL     1      11.097   2.188  23.840  0.00  0.00    +0.000 A 
ATOM      8  C   UNL     1       9.802   2.936  23.627  0.00  0.00    +0.000 A 
ATOM      9  C   UNL     1       8.430   2.732  23.852  0.00  0.00    +0.000 A 
ATOM     10  C   UNL     1       8.235   1.247  24.078  0.00  0.00    +0.000 A 
ATOM     11  C   UNL     1       7.399   0.571  23.078  0.00  0.00    +0.000 C 
ATOM     12  C   UNL     1       8.020  -0.841  22.757  0.00  0.00    +0.000 C 
ENDROOT
BRANCH  11  13
ATOM     13  C   UNL     1       7.357   1.184  21.733  0.00  0.00    +0.000 A 
ATOM     14  C   UNL     1       8.137   0.368  20.769  0.00  0.00    +0.000 A 
ATOM     15  C   UNL     1       7.731   0.009  19.388  0.00  0.00    +0.000 A 
ATOM     16  C   UNL     1       6.369   0.611  19.191  0.00  0.00    +0.000 A 
ATOM     17  C   UNL     1       5.496   1.494  19.890  0.00  0.00    +0.000 A 
ATOM     18  C   UNL     1       6.276   1.948  21.121  0.00  0.00    +0.000 A 
ENDBRANCH  11  13
BRANCH   1  19
ATOM     19  C   UNL     1       8.820  -3.979  24.445  0.00  0.00    +0.000 C 
BRANCH  19  25
ATOM     20  C   UNL     1       7.395  -5.188  22.817  0.00  0.00    +0.000 C 
ATOM     21  C   UNL     1       6.215  -6.075  22.538  0.00  0.00    +0.000 C 
ATOM     22  C   UNL     1       5.194  -5.953  23.642  0.00  0.00    +0.000 C 
ATOM     23  C   UNL     1       5.230  -4.483  24.103  0.00  0.00    +0.000 C 
ATOM     24  N   UNL     1       6.395  -4.155  24.831  0.00  0.00    +0.000 NA
ATOM     25  C   UNL     1       7.541  -4.759  24.270  0.00  0.00    +0.000 C 
BRANCH  20  27
ATOM     26  H   UNL     1       7.462  -4.345  21.075  0.00  0.00    +0.000 HD
ATOM     27  O   UNL     1       7.413  -4.115  21.966  0.00  0.00    +0.000 OA
ENDBRANCH  20  27
BRANCH  24  28
ATOM     28  C   UNL     1       6.293  -4.247  26.233  0.00  0.00    +0.000 C 
BRANCH  28  29
ATOM     29  C   UNL     1       5.751  -3.349  27.121  0.00  0.00    +0.000 A 
ATOM     30  C   UNL     1       6.376  -2.052  26.796  0.00  0.00    +0.000 A 
ATOM     31  C   UNL     1       5.770  -0.783  26.229  0.00  0.00    +0.000 A 
ATOM     32  C   UNL     1       4.309  -0.993  26.452  0.00  0.00    +0.000 A 
ATOM     33  C   UNL     1       3.532  -2.025  27.055  0.00  0.00    +0.000 A 
ATOM     34  C   UNL     1       4.448  -3.046  27.636  0.00  0.00    +0.000 A 
ENDBRANCH  28  29
ENDBRANCH  24  28
ENDBRANCH  19  25
ENDBRANCH   1  19
TORSDOF 6
ENDMDL
MODEL 4
REMARK VINA RESULT:      -7.6      1.928      6.797
REMARK  Name = 
REMARK  6 active torsions:
REMARK  status: ('A' for Active; 'I' for Inactive)
REMARK    1  A    between atoms: O_2  and  C_3
REMARK    2  A    between atoms: N_14  and  C_15
REMARK    3  A    between atoms: C_15  and  C_18
REMARK    4  A    between atoms: C_29  and  C_31
REMARK    5  A    between atoms: C_31  and  C_34
REMARK    6  A    between atoms: C_50  and  C_52
REMARK                            x       y       z     vdW  Elec       q    Type
REMARK                         _______ _______ _______ _____ _____    ______ ____
ROOT
ATOM      1  C   UNL     1       8.472   0.478  24.339  0.00  0.00    +0.000 C 
ATOM      2  O   UNL     1       8.214   0.437  25.580  0.00  0.00    +0.000 OA
ATOM      3  N   UNL     1       8.439  -0.800  23.748  0.00  0.00    +0.000 N 
ATOM      4  C   UNL     1       9.442  -1.758  24.251  0.00  0.00    +0.000 C 
ATOM      5  C   UNL     1       9.143  -3.046  24.293  0.00  0.00    +0.000 A 
ATOM      6  C   UNL     1       9.107  -3.434  25.821  0.00  0.00    +0.000 A 
ATOM      7  C   UNL     1       8.353  -4.527  26.428  0.00  0.00    +0.000 A 
ATOM      8  C   UNL     1       7.628  -5.182  25.276  0.00  0.00    +0.000 A 
ATOM      9  C   UNL     1       7.483  -4.992  23.891  0.00  0.00    +0.000 A 
ATOM     10  C   UNL     1       7.940  -3.579  23.588  0.00  0.00    +0.000 A 
ATOM     11  C   UNL     1       6.900  -2.692  23.053  0.00  0.00    +0.000 C 
ATOM     12  C   UNL     1       7.067  -1.261  23.692  0.00  0.00    +0.000 C 
ENDROOT
BRANCH  11  13
ATOM     13  C   UNL     1       5.505  -3.015  23.422  0.00  0.00    +0.000 A 
ATOM     14  C   UNL     1       5.001  -4.144  22.602  0.00  0.00    +0.000 A 
ATOM     15  C   UNL     1       4.212  -5.302  23.089  0.00  0.00    +0.000 A 
ATOM     16  C   UNL     1       4.064  -5.105  24.570  0.00  0.00    +0.000 A 
ATOM     17  C   UNL     1       4.345  -4.092  25.532  0.00  0.00    +0.000 A 
ATOM     18  C   UNL     1       4.868  -2.903  24.729  0.00  0.00    +0.000 A 
ENDBRANCH  11  13
BRANCH   1  19
ATOM     19  C   UNL     1       9.515   1.443  23.863  0.00  0.00    +0.000 C 
BRANCH  19  25
ATOM     20  C   UNL     1       9.130   3.796  24.540  0.00  0.00    +0.000 C 
ATOM     21  C   UNL     1       8.764   5.206  24.172  0.00  0.00    +0.000 C 
ATOM     22  C   UNL     1       7.917   5.218  22.923  0.00  0.00    +0.000 C 
ATOM     23  C   UNL     1       7.032   3.959  22.988  0.00  0.00    +0.000 C 
ATOM     24  N   UNL     1       7.748   2.762  22.767  0.00  0.00    +0.000 NA
ATOM     25  C   UNL     1       9.007   2.788  23.407  0.00  0.00    +0.000 C 
BRANCH  20  27
ATOM     26  H   UNL     1       8.460   2.478  25.791  0.00  0.00    +0.000 HD
ATOM     27  O   UNL     1       8.451   3.390  25.659  0.00  0.00    +0.000 OA
ENDBRANCH  20  27
BRANCH  24  28
ATOM     28  C   UNL     1       7.758   2.283  21.443  0.00  0.00    +0.000 C 
BRANCH  28  29
ATOM     29  C   UNL     1       7.241   1.111  20.942  0.00  0.00    +0.000 A 
ATOM     30  C   UNL     1       5.880   1.450  20.482  0.00  0.00    +0.000 A 
ATOM     31  C   UNL     1       5.295   1.482  19.083  0.00  0.00    +0.000 A 
ATOM     32  C   UNL     1       6.290   0.695  18.296  0.00  0.00    +0.000 A 
ATOM     33  C   UNL     1       7.492   0.000  18.622  0.00  0.00    +0.000 A 
ATOM     34  C   UNL     1       7.696   0.047  20.097  0.00  0.00    +0.000 A 
ENDBRANCH  28  29
ENDBRANCH  24  28
ENDBRANCH  19  25
ENDBRANCH   1  19
TORSDOF 6
ENDMDL
MODEL 5
REMARK VINA RESULT:      -7.5      1.937      7.434
REMARK  Name = 
REMARK  6 active torsions:
REMARK  status: ('A' for Active; 'I' for Inactive)
REMARK    1  A    between atoms: O_2  and  C_3
REMARK    2  A    between atoms: N_14  and  C_15
REMARK    3  A    between atoms: C_15  and  C_18
REMARK    4  A    between atoms: C_29  and  C_31
REMARK    5  A    between atoms: C_31  and  C_34
REMARK    6  A    between atoms: C_50  and  C_52
REMARK                            x       y       z     vdW  Elec       q    Type
REMARK                         _______ _______ _______ _____ _____    ______ ____
ROOT
ATOM      1  C   UNL     1       6.990  -1.214  25.124  0.00  0.00    +0.000 C 
ATOM      2  O   UNL     1       8.137  -1.744  25.015  0.00  0.00    +0.000 OA
ATOM      3  N   UNL     1       5.980  -2.013  24.557  0.00  0.00    +0.000 N 
ATOM      4  C   UNL     1       6.089  -2.238  23.102  0.00  0.00    +0.000 C 
ATOM      5  C   UNL     1       5.670  -3.382  22.590  0.00  0.00    +0.000 A 
ATOM      6  C   UNL     1       6.956  -4.110  22.040  0.00  0.00    +0.000 A 
ATOM      7  C   UNL     1       7.140  -5.547  21.865  0.00  0.00    +0.000 A 
ATOM      8  C   UNL     1       5.840  -6.162  22.329  0.00  0.00    +0.000 A 
ATOM      9  C   UNL     1       4.619  -5.732  22.874  0.00  0.00    +0.000 A 
ATOM     10  C   UNL     1       4.838  -4.325  23.395  0.00  0.00    +0.000 A 
ATOM     11  C   UNL     1       4.673  -4.168  24.845  0.00  0.00    +0.000 C 
ATOM     12  C   UNL     1       5.782  -3.185  25.384  0.00  0.00    +0.000 C 
ENDROOT
BRANCH  11  13
ATOM     13  C   UNL     1       4.922  -5.369  25.670  0.00  0.00    +0.000 A 
ATOM     14  C   UNL     1       6.333  -5.398  26.129  0.00  0.00    +0.000 A 
ATOM     15  C   UNL     1       6.809  -5.740  27.492  0.00  0.00    +0.000 A 
ATOM     16  C   UNL     1       5.574  -6.014  28.301  0.00  0.00    +0.000 A 
ATOM     17  C   UNL     1       4.174  -6.158  28.073  0.00  0.00    +0.000 A 
ATOM     18  C   UNL     1       3.997  -6.062  26.560  0.00  0.00    +0.000 A 
ENDBRANCH  11  13
BRANCH   1  19
ATOM     19  C   UNL     1       6.878   0.273  24.968  0.00  0.00    +0.000 C 
BRANCH  19  25
ATOM     20  C   UNL     1       9.002   1.543  24.840  0.00  0.00    +0.000 C 
ATOM     21  C   UNL     1      10.123   2.113  24.017  0.00  0.00    +0.000 C 
ATOM     22  C   UNL     1       9.663   2.353  22.600  0.00  0.00    +0.000 C 
ATOM     23  C   UNL     1       8.190   2.795  22.692  0.00  0.00    +0.000 C 
ATOM     24  N   UNL     1       7.313   1.744  23.043  0.00  0.00    +0.000 NA
ATOM     25  C   UNL     1       7.876   0.912  24.035  0.00  0.00    +0.000 C 
BRANCH  20  27
ATOM     26  H   UNL     1       8.861   2.366  26.587  0.00  0.00    +0.000 HD
ATOM     27  O   UNL     1       8.532   2.469  25.733  0.00  0.00    +0.000 OA
ENDBRANCH  20  27
BRANCH  24  28
ATOM     28  C   UNL     1       6.698   1.070  21.970  0.00  0.00    +0.000 C 
BRANCH  28  29
ATOM     29  C   UNL     1       6.637   1.427  20.644  0.00  0.00    +0.000 A 
ATOM     30  C   UNL     1       7.713   0.663  19.984  0.00  0.00    +0.000 A 
ATOM     31  C   UNL     1       7.642  -0.453  18.959  0.00  0.00    +0.000 A 
ATOM     32  C   UNL     1       6.243  -0.337  18.450  0.00  0.00    +0.000 A 
ATOM     33  C   UNL     1       5.157   0.547  18.716  0.00  0.00    +0.000 A 
ATOM     34  C   UNL     1       5.613   1.608  19.658  0.00  0.00    +0.000 A 
ENDBRANCH  28  29
ENDBRANCH  24  28
ENDBRANCH  19  25
ENDBRANCH   1  19
TORSDOF 6
ENDMDL
MODEL 6
REMARK VINA RESULT:      -7.5      2.497      7.090
REMARK  Name = 
REMARK  6 active torsions:
REMARK  status: ('A' for Active; 'I' for Inactive)
REMARK    1  A    between atoms: O_2  and  C_3
REMARK    2  A    between atoms: N_14  and  C_15
REMARK    3  A    between atoms: C_15  and  C_18
REMARK    4  A    between atoms: C_29  and  C_31
REMARK    5  A    between atoms: C_31  and  C_34
REMARK    6  A    between atoms: C_50  and  C_52
REMARK                            x       y       z     vdW  Elec       q    Type
REMARK                         _______ _______ _______ _____ _____    ______ ____
ROOT
ATOM      1  C   UNL     1       5.936   0.493  25.071  0.00  0.00    +0.000 C 
ATOM      2  O   UNL     1       4.819   0.118  25.541  0.00  0.00    +0.000 OA
ATOM      3  N   UNL     1       6.833  -0.581  24.913  0.00  0.00    +0.000 N 
ATOM      4  C   UNL     1       7.226  -1.269  26.158  0.00  0.00    +0.000 C 
ATOM      5  C   UNL     1       7.486  -2.565  26.127  0.00  0.00    +0.000 A 
ATOM      6  C   UNL     1       6.360  -3.255  26.989  0.00  0.00    +0.000 A 
ATOM      7  C   UNL     1       5.879  -4.628  26.861  0.00  0.00    +0.000 A 
ATOM      8  C   UNL     1       6.691  -5.218  25.733  0.00  0.00    +0.000 A 
ATOM      9  C   UNL     1       7.682  -4.798  24.830  0.00  0.00    +0.000 A 
ATOM     10  C   UNL     1       7.667  -3.282  24.830  0.00  0.00    +0.000 A 
ATOM     11  C   UNL     1       7.307  -2.665  23.548  0.00  0.00    +0.000 C 
ATOM     12  C   UNL     1       6.382  -1.417  23.820  0.00  0.00    +0.000 C 
ENDROOT
BRANCH  11  13
ATOM     13  C   UNL     1       6.453  -3.469  22.647  0.00  0.00    +0.000 A 
ATOM     14  C   UNL     1       7.268  -4.477  21.926  0.00  0.00    +0.000 A 
ATOM     15  C   UNL     1       6.911  -5.899  21.697  0.00  0.00    +0.000 A 
ATOM     16  C   UNL     1       5.583  -6.102  22.369  0.00  0.00    +0.000 A 
ATOM     17  C   UNL     1       4.588  -5.300  23.001  0.00  0.00    +0.000 A 
ATOM     18  C   UNL     1       5.059  -3.858  22.832  0.00  0.00    +0.000 A 
ENDBRANCH  11  13
BRANCH   1  19
ATOM     19  C   UNL     1       6.491   1.808  25.528  0.00  0.00    +0.000 C 
BRANCH  19  25
ATOM     20  C   UNL     1       5.064   3.320  24.179  0.00  0.00    +0.000 C 
ATOM     21  C   UNL     1       4.937   4.496  23.252  0.00  0.00    +0.000 C 
ATOM     22  C   UNL     1       6.221   4.700  22.486  0.00  0.00    +0.000 C 
ATOM     23  C   UNL     1       6.793   3.295  22.217  0.00  0.00    +0.000 C 
ATOM     24  N   UNL     1       7.313   2.674  23.374  0.00  0.00    +0.000 NA
ATOM     25  C   UNL     1       6.495   2.912  24.500  0.00  0.00    +0.000 C 
BRANCH  20  27
ATOM     26  H   UNL     1       4.392   1.505  24.253  0.00  0.00    +0.000 HD
ATOM     27  O   UNL     1       4.321   2.260  23.730  0.00  0.00    +0.000 OA
ENDBRANCH  20  27
BRANCH  24  28
ATOM     28  C   UNL     1       8.695   2.833  23.592  0.00  0.00    +0.000 C 
BRANCH  28  29
ATOM     29  C   UNL     1       9.742   2.114  23.066  0.00  0.00    +0.000 A 
ATOM     30  C   UNL     1      10.386   1.458  24.221  0.00  0.00    +0.000 A 
ATOM     31  C   UNL     1      10.485  -0.009  24.589  0.00  0.00    +0.000 A 
ATOM     32  C   UNL     1      10.139  -0.690  23.306  0.00  0.00    +0.000 A 
ATOM     33  C   UNL     1       9.819  -0.236  21.993  0.00  0.00    +0.000 A 
ATOM     34  C   UNL     1       9.954   1.246  21.945  0.00  0.00    +0.000 A 
ENDBRANCH  28  29
ENDBRANCH  24  28
ENDBRANCH  19  25
ENDBRANCH   1  19
TORSDOF 6
ENDMDL
MODEL 7
REMARK VINA RESULT:      -7.5      2.586      4.695
REMARK  Name = 
REMARK  6 active torsions:
REMARK  status: ('A' for Active; 'I' for Inactive)
REMARK    1  A    between atoms: O_2  and  C_3
REMARK    2  A    between atoms: N_14  and  C_15
REMARK    3  A    between atoms: C_15  and  C_18
REMARK    4  A    between atoms: C_29  and  C_31
REMARK    5  A    between atoms: C_31  and  C_34
REMARK    6  A    between atoms: C_50  and  C_52
REMARK                            x       y       z     vdW  Elec       q    Type
REMARK                         _______ _______ _______ _____ _____    ______ ____
ROOT
ATOM      1  C   UNL     1       9.212  -0.638  24.880  0.00  0.00    +0.000 C 
ATOM      2  O   UNL     1      10.075  -0.143  25.667  0.00  0.00    +0.000 OA
ATOM      3  N   UNL     1       7.904  -0.231  25.204  0.00  0.00    +0.000 N 
ATOM      4  C   UNL     1       7.413  -0.662  26.527  0.00  0.00    +0.000 C 
ATOM      5  C   UNL     1       6.573   0.114  27.192  0.00  0.00    +0.000 A 
ATOM      6  C   UNL     1       7.352   0.601  28.473  0.00  0.00    +0.000 A 
ATOM      7  C   UNL     1       7.108   1.824  29.232  0.00  0.00    +0.000 A 
ATOM      8  C   UNL     1       5.964   2.501  28.516  0.00  0.00    +0.000 A 
ATOM      9  C   UNL     1       5.170   2.282  27.377  0.00  0.00    +0.000 A 
ATOM     10  C   UNL     1       5.895   1.263  26.522  0.00  0.00    +0.000 A 
ATOM     11  C   UNL     1       6.319   1.749  25.202  0.00  0.00    +0.000 C 
ATOM     12  C   UNL     1       7.749   1.171  24.876  0.00  0.00    +0.000 C 
ENDROOT
BRANCH  11  13
ATOM     13  C   UNL     1       6.558   3.203  25.082  0.00  0.00    +0.000 A 
ATOM     14  C   UNL     1       7.981   3.519  25.363  0.00  0.00    +0.000 A 
ATOM     15  C   UNL     1       8.844   4.451  24.596  0.00  0.00    +0.000 A 
ATOM     16  C   UNL     1       7.991   4.973  23.476  0.00  0.00    +0.000 A 
ATOM     17  C   UNL     1       6.624   4.914  23.076  0.00  0.00    +0.000 A 
ATOM     18  C   UNL     1       5.907   4.155  24.189  0.00  0.00    +0.000 A 
ENDBRANCH  11  13
BRANCH   1  19
ATOM     19  C   UNL     1       9.410  -2.046  24.406  0.00  0.00    +0.000 C 
BRANCH  19  25
ATOM     20  C   UNL     1       8.111  -4.130  24.737  0.00  0.00    +0.000 C 
ATOM     21  C   UNL     1       6.850  -4.918  24.522  0.00  0.00    +0.000 C 
ATOM     22  C   UNL     1       6.133  -4.432  23.287  0.00  0.00    +0.000 C 
ATOM     23  C   UNL     1       7.229  -4.039  22.277  0.00  0.00    +0.000 C 
ATOM     24  N   UNL     1       7.909  -2.851  22.628  0.00  0.00    +0.000 NA
ATOM     25  C   UNL     1       8.158  -2.790  24.017  0.00  0.00    +0.000 C 
BRANCH  20  27
ATOM     26  H   UNL     1       9.030  -5.679  24.025  0.00  0.00    +0.000 HD
ATOM     27  O   UNL     1       9.217  -4.892  24.465  0.00  0.00    +0.000 OA
ENDBRANCH  20  27
BRANCH  24  28
ATOM     28  C   UNL     1       7.417  -1.664  22.053  0.00  0.00    +0.000 C 
BRANCH  28  29
ATOM     29  C   UNL     1       8.054  -0.779  21.216  0.00  0.00    +0.000 A 
ATOM     30  C   UNL     1       7.043   0.245  20.888  0.00  0.00    +0.000 A 
ATOM     31  C   UNL     1       6.981   1.717  21.246  0.00  0.00    +0.000 A 
ATOM     32  C   UNL     1       8.385   2.008  21.664  0.00  0.00    +0.000 A 
ATOM     33  C   UNL     1       9.584   1.240  21.729  0.00  0.00    +0.000 A 
ATOM     34  C   UNL     1       9.324  -0.115  21.169  0.00  0.00    +0.000 A 
ENDBRANCH  28  29
ENDBRANCH  24  28
ENDBRANCH  19  25
ENDBRANCH   1  19
TORSDOF 6
ENDMDL
MODEL 8
REMARK VINA RESULT:      -7.2      1.736      7.664
REMARK  Name = 
REMARK  6 active torsions:
REMARK  status: ('A' for Active; 'I' for Inactive)
REMARK    1  A    between atoms: O_2  and  C_3
REMARK    2  A    between atoms: N_14  and  C_15
REMARK    3  A    between atoms: C_15  and  C_18
REMARK    4  A    between atoms: C_29  and  C_31
REMARK    5  A    between atoms: C_31  and  C_34
REMARK    6  A    between atoms: C_50  and  C_52
REMARK                            x       y       z     vdW  Elec       q    Type
REMARK                         _______ _______ _______ _____ _____    ______ ____
ROOT
ATOM      1  C   UNL     1       8.512  -1.408  22.043  0.00  0.00    +0.000 C 
ATOM      2  O   UNL     1       9.295  -2.398  21.915  0.00  0.00    +0.000 OA
ATOM      3  N   UNL     1       7.282  -1.776  22.620  0.00  0.00    +0.000 N 
ATOM      4  C   UNL     1       6.470  -2.725  21.834  0.00  0.00    +0.000 C 
ATOM      5  C   UNL     1       5.702  -3.598  22.464  0.00  0.00    +0.000 A 
ATOM      6  C   UNL     1       6.308  -5.018  22.148  0.00  0.00    +0.000 A 
ATOM      7  C   UNL     1       6.187  -6.222  22.966  0.00  0.00    +0.000 A 
ATOM      8  C   UNL     1       5.369  -5.796  24.161  0.00  0.00    +0.000 A 
ATOM      9  C   UNL     1       4.777  -4.621  24.656  0.00  0.00    +0.000 A 
ATOM     10  C   UNL     1       5.420  -3.460  23.924  0.00  0.00    +0.000 A 
ATOM     11  C   UNL     1       6.179  -2.534  24.774  0.00  0.00    +0.000 C 
ATOM     12  C   UNL     1       7.490  -2.097  24.017  0.00  0.00    +0.000 C 
ENDROOT
BRANCH  11  13
ATOM     13  C   UNL     1       6.737  -3.094  26.023  0.00  0.00    +0.000 A 
ATOM     14  C   UNL     1       5.677  -3.215  27.055  0.00  0.00    +0.000 A 
ATOM     15  C   UNL     1       5.456  -4.369  27.960  0.00  0.00    +0.000 A 
ATOM     16  C   UNL     1       6.498  -5.386  27.591  0.00  0.00    +0.000 A 
ATOM     17  C   UNL     1       7.649  -5.459  26.753  0.00  0.00    +0.000 A 
ATOM     18  C   UNL     1       7.822  -4.057  26.176  0.00  0.00    +0.000 A 
ENDBRANCH  11  13
BRANCH   1  19
ATOM     19  C   UNL     1       8.496  -0.372  20.960  0.00  0.00    +0.000 C 
BRANCH  19  25
ATOM     20  C   UNL     1       6.811  -0.139  19.158  0.00  0.00    +0.000 C 
ATOM     21  C   UNL     1       5.432   0.265  18.719  0.00  0.00    +0.000 C 
ATOM     22  C   UNL     1       4.871   1.311  19.651  0.00  0.00    +0.000 C 
ATOM     23  C   UNL     1       6.061   2.189  20.082  0.00  0.00    +0.000 C 
ATOM     24  N   UNL     1       6.941   1.537  20.973  0.00  0.00    +0.000 NA
ATOM     25  C   UNL     1       7.141   0.188  20.607  0.00  0.00    +0.000 C 
BRANCH  20  27
ATOM     26  H   UNL     1       8.617   0.066  18.489  0.00  0.00    +0.000 HD
ATOM     27  O   UNL     1       7.760   0.346  18.297  0.00  0.00    +0.000 OA
ENDBRANCH  20  27
BRANCH  24  28
ATOM     28  C   UNL     1       6.708   1.759  22.344  0.00  0.00    +0.000 C 
BRANCH  28  29
ATOM     29  C   UNL     1       7.457   2.480  23.244  0.00  0.00    +0.000 A 
ATOM     30  C   UNL     1       7.666   1.575  24.391  0.00  0.00    +0.000 A 
ATOM     31  C   UNL     1       8.934   0.935  24.921  0.00  0.00    +0.000 A 
ATOM     32  C   UNL     1      10.004   1.748  24.270  0.00  0.00    +0.000 A 
ATOM     33  C   UNL     1      10.007   2.875  23.398  0.00  0.00    +0.000 A 
ATOM     34  C   UNL     1       8.604   3.337  23.197  0.00  0.00    +0.000 A 
ENDBRANCH  28  29
ENDBRANCH  24  28
ENDBRANCH  19  25
ENDBRANCH   1  19
TORSDOF 6
ENDMDL
MODEL 9
REMARK VINA RESULT:      -7.1      2.307      3.705
REMARK  Name = 
REMARK  6 active torsions:
REMARK  status: ('A' for Active; 'I' for Inactive)
REMARK    1  A    between atoms: O_2  and  C_3
REMARK    2  A    between atoms: N_14  and  C_15
REMARK    3  A    between atoms: C_15  and  C_18
REMARK    4  A    between atoms: C_29  and  C_31
REMARK    5  A    between atoms: C_31  and  C_34
REMARK    6  A    between atoms: C_50  and  C_52
REMARK                            x       y       z     vdW  Elec       q    Type
REMARK                         _______ _______ _______ _____ _____    ______ ____
ROOT
ATOM      1  C   UNL     1       6.377  -1.105  25.494  0.00  0.00    +0.000 C 
ATOM      2  O   UNL     1       5.768  -1.084  24.382  0.00  0.00    +0.000 OA
ATOM      3  N   UNL     1       7.617  -0.441  25.432  0.00  0.00    +0.000 N 
ATOM      4  C   UNL     1       8.609  -1.033  24.515  0.00  0.00    +0.000 C 
ATOM      5  C   UNL     1       9.470  -0.244  23.895  0.00  0.00    +0.000 A 
ATOM      6  C   UNL     1       9.114  -0.330  22.362  0.00  0.00    +0.000 A 
ATOM      7  C   UNL     1       9.378   0.682  21.344  0.00  0.00    +0.000 A 
ATOM      8  C   UNL     1      10.054   1.810  22.088  0.00  0.00    +0.000 A 
ATOM      9  C   UNL     1      10.426   2.113  23.408  0.00  0.00    +0.000 A 
ATOM     10  C   UNL     1       9.648   1.178  24.313  0.00  0.00    +0.000 A 
ATOM     11  C   UNL     1       8.708   1.839  25.227  0.00  0.00    +0.000 C 
ATOM     12  C   UNL     1       7.387   0.984  25.313  0.00  0.00    +0.000 C 
ENDROOT
BRANCH  11  13
ATOM     13  C   UNL     1       8.179   3.150  24.794  0.00  0.00    +0.000 A 
ATOM     14  C   UNL     1       7.001   2.966  23.910  0.00  0.00    +0.000 A 
ATOM     15  C   UNL     1       5.733   3.733  23.962  0.00  0.00    +0.000 A 
ATOM     16  C   UNL     1       5.882   4.697  25.104  0.00  0.00    +0.000 A 
ATOM     17  C   UNL     1       6.911   5.128  25.992  0.00  0.00    +0.000 A 
ATOM     18  C   UNL     1       8.176   4.410  25.528  0.00  0.00    +0.000 A 
ENDBRANCH  11  13
BRANCH   1  19
ATOM     19  C   UNL     1       6.288  -2.347  26.328  0.00  0.00    +0.000 C 
BRANCH  19  25
ATOM     20  C   UNL     1       4.255  -3.737  26.052  0.00  0.00    +0.000 C 
ATOM     21  C   UNL     1       3.530  -4.846  25.342  0.00  0.00    +0.000 C 
ATOM     22  C   UNL     1       4.517  -5.819  24.745  0.00  0.00    +0.000 C 
ATOM     23  C   UNL     1       5.701  -5.891  25.728  0.00  0.00    +0.000 C 
ATOM     24  N   UNL     1       6.500  -4.725  25.727  0.00  0.00    +0.000 NA
ATOM     25  C   UNL     1       5.709  -3.559  25.641  0.00  0.00    +0.000 C 
BRANCH  20  27
ATOM     26  H   UNL     1       3.253  -3.774  27.709  0.00  0.00    +0.000 HD
ATOM     27  O   UNL     1       4.120  -3.856  27.410  0.00  0.00    +0.000 OA
ENDBRANCH  20  27
BRANCH  24  28
ATOM     28  C   UNL     1       7.627  -4.750  24.884  0.00  0.00    +0.000 C 
BRANCH  28  29
ATOM     29  C   UNL     1       7.717  -4.432  23.549  0.00  0.00    +0.000 A 
ATOM     30  C   UNL     1       7.792  -5.726  22.843  0.00  0.00    +0.000 A 
ATOM     31  C   UNL     1       6.811  -6.389  21.897  0.00  0.00    +0.000 A 
ATOM     32  C   UNL     1       5.921  -5.255  21.506  0.00  0.00    +0.000 A 
ATOM     33  C   UNL     1       5.888  -3.863  21.813  0.00  0.00    +0.000 A 
ATOM     34  C   UNL     1       7.074  -3.522  22.647  0.00  0.00    +0.000 A 
ENDBRANCH  28  29
ENDBRANCH  24  28
ENDBRANCH  19  25
ENDBRANCH   1  19
TORSDOF 6
ENDMDL
