MODEL 1
REMARK VINA RESULT:      -8.7      0.000      0.000
REMARK  Name = 
REMARK  4 active torsions:
REMARK  status: ('A' for Active; 'I' for Inactive)
REMARK    1  A    between atoms: C_4  and  C_5
REMARK    2  A    between atoms: C_5  and  C_6
REMARK    3  A    between atoms: N_15  and  S_16
REMARK    4  A    between atoms: S_16  and  C_19
REMARK                            x       y       z     vdW  Elec       q    Type
REMARK                         _______ _______ _______ _____ _____    ______ ____
ROOT
ATOM      1  C   UNL     1       6.779  -3.133  23.233  0.00  0.00    +0.000 C 
ATOM      2  O   UNL     1       5.729  -2.517  23.484  0.00  0.00    +0.000 OA
ATOM      3  N   UNL     1       7.898  -2.356  23.195  0.00  0.00    +0.000 N 
ATOM      4  C   UNL     1       8.185  -1.688  21.934  0.00  0.00    +0.000 C 
ATOM      5  C   UNL     1       9.615  -1.193  21.890  0.00  0.00    +0.000 C 
ATOM      6  N   UNL     1      10.066  -0.593  23.062  0.00  0.00    +0.000 NA
ATOM      7  C   UNL     1       9.877  -1.363  24.200  0.00  0.00    +0.000 C 
ATOM      8  C   UNL     1       8.425  -1.789  24.412  0.00  0.00    +0.000 C 
ENDROOT
BRANCH   1   9
ATOM      9  C   UNL     1       6.822  -4.613  23.403  0.00  0.00    +0.000 C 
ATOM     10  C   UNL     1       5.402  -5.170  23.485  0.00  0.00    +0.000 C 
ATOM     11  C   UNL     1       5.053  -5.793  22.120  0.00  0.00    +0.000 C 
ATOM     12  C   UNL     1       6.366  -5.955  21.351  0.00  0.00    +0.000 C 
ATOM     13  C   UNL     1       7.449  -5.191  22.109  0.00  0.00    +0.000 C 
BRANCH   9  16
ATOM     14  C   UNL     1       9.725  -4.809  25.370  0.00  0.00    +0.000 A 
ATOM     15  N   UNL     1       8.837  -5.315  24.307  0.00  0.00    +0.000 NA
ATOM     16  C   UNL     1       7.608  -5.056  24.572  0.00  0.00    +0.000 A 
ATOM     17  C   UNL     1       6.961  -4.653  25.774  0.00  0.00    +0.000 A 
ATOM     18  C   UNL     1       7.544  -4.209  26.935  0.00  0.00    +0.000 A 
ATOM     19  C   UNL     1       9.026  -4.549  26.592  0.00  0.00    +0.000 A 
ENDBRANCH   9  16
ENDBRANCH   1   9
BRANCH   6  20
ATOM     20  S   UNL     1      10.018   0.973  23.126  0.00  0.00    +0.000 S 
ATOM     21  O   UNL     1      10.951   1.441  24.150  0.00  0.00    +0.000 OA
ATOM     22  O   UNL     1      10.229   1.613  21.855  0.00  0.00    +0.000 OA
BRANCH  20  23
ATOM     23  C   UNL     1       8.455   1.630  23.717  0.00  0.00    +0.000 A 
ATOM     24  C   UNL     1       8.836   3.207  24.021  0.00  0.00    +0.000 A 
ATOM     25  F   UNL     1      10.077   3.343  23.590  0.00  0.00    +0.000 F 
ATOM     26  C   UNL     1       7.882   4.112  23.373  0.00  0.00    +0.000 A 
ATOM     27  C   UNL     1       6.973   3.746  22.296  0.00  0.00    +0.000 A 
ATOM     28  C   UNL     1       6.560   2.419  21.909  0.00  0.00    +0.000 A 
ATOM     29  C   UNL     1       7.339   1.514  22.841  0.00  0.00    +0.000 A 
ATOM     30  F   UNL     1       6.332   0.782  23.528  0.00  0.00    +0.000 F 
ENDBRANCH  20  23
ENDBRANCH   6  20
TORSDOF 4
ENDMDL
MODEL 2
REMARK VINA RESULT:      -8.4      0.863      2.838
REMARK  Name = 
REMARK  4 active torsions:
REMARK  status: ('A' for Active; 'I' for Inactive)
REMARK    1  A    between atoms: C_4  and  C_5
REMARK    2  A    between atoms: C_5  and  C_6
REMARK    3  A    between atoms: N_15  and  S_16
REMARK    4  A    between atoms: S_16  and  C_19
REMARK                            x       y       z     vdW  Elec       q    Type
REMARK                         _______ _______ _______ _____ _____    ______ ____
ROOT
ATOM      1  C   UNL     1       7.135  -3.018  24.133  0.00  0.00    +0.000 C 
ATOM      2  O   UNL     1       6.030  -2.457  24.214  0.00  0.00    +0.000 OA
ATOM      3  N   UNL     1       8.189  -2.172  23.950  0.00  0.00    +0.000 N 
ATOM      4  C   UNL     1       8.476  -1.776  22.579  0.00  0.00    +0.000 C 
ATOM      5  C   UNL     1       9.862  -1.179  22.461  0.00  0.00    +0.000 C 
ATOM      6  N   UNL     1      10.211  -0.297  23.481  0.00  0.00    +0.000 NA
ATOM      7  C   UNL     1      10.035  -0.812  24.757  0.00  0.00    +0.000 C 
ATOM      8  C   UNL     1       8.615  -1.308  25.023  0.00  0.00    +0.000 C 
ENDROOT
BRANCH   1   9
ATOM      9  C   UNL     1       7.291  -4.415  24.629  0.00  0.00    +0.000 C 
ATOM     10  C   UNL     1       8.770  -4.727  24.850  0.00  0.00    +0.000 C 
ATOM     11  C   UNL     1       9.056  -4.641  26.362  0.00  0.00    +0.000 C 
ATOM     12  C   UNL     1       7.703  -4.657  27.077  0.00  0.00    +0.000 C 
ATOM     13  C   UNL     1       6.614  -4.469  26.023  0.00  0.00    +0.000 C 
BRANCH   9  16
ATOM     14  C   UNL     1       4.660  -5.843  22.793  0.00  0.00    +0.000 A 
ATOM     15  N   UNL     1       5.460  -5.700  24.023  0.00  0.00    +0.000 NA
ATOM     16  C   UNL     1       6.685  -5.432  23.747  0.00  0.00    +0.000 A 
ATOM     17  C   UNL     1       7.429  -5.532  22.537  0.00  0.00    +0.000 A 
ATOM     18  C   UNL     1       6.946  -5.735  21.268  0.00  0.00    +0.000 A 
ATOM     19  C   UNL     1       5.470  -6.072  21.635  0.00  0.00    +0.000 A 
ENDBRANCH   9  16
ENDBRANCH   1   9
BRANCH   6  20
ATOM     20  S   UNL     1      10.035   1.233  23.192  0.00  0.00    +0.000 S 
ATOM     21  O   UNL     1      10.982   1.989  24.011  0.00  0.00    +0.000 OA
ATOM     22  O   UNL     1      10.117   1.575  21.797  0.00  0.00    +0.000 OA
BRANCH  20  23
ATOM     23  C   UNL     1       8.458   1.899  23.736  0.00  0.00    +0.000 A 
ATOM     24  C   UNL     1       8.766   3.521  23.783  0.00  0.00    +0.000 A 
ATOM     25  F   UNL     1       9.984   3.647  23.290  0.00  0.00    +0.000 F 
ATOM     26  C   UNL     1       7.747   4.270  23.042  0.00  0.00    +0.000 A 
ATOM     27  C   UNL     1       6.826   3.701  22.068  0.00  0.00    +0.000 A 
ATOM     28  C   UNL     1       6.471   2.312  21.903  0.00  0.00    +0.000 A 
ATOM     29  C   UNL     1       7.324   1.598  22.931  0.00  0.00    +0.000 A 
ATOM     30  F   UNL     1       6.378   0.934  23.758  0.00  0.00    +0.000 F 
ENDBRANCH  20  23
ENDBRANCH   6  20
TORSDOF 4
ENDMDL
MODEL 3
REMARK VINA RESULT:      -8.3      2.742      7.302
REMARK  Name = 
REMARK  4 active torsions:
REMARK  status: ('A' for Active; 'I' for Inactive)
REMARK    1  A    between atoms: C_4  and  C_5
REMARK    2  A    between atoms: C_5  and  C_6
REMARK    3  A    between atoms: N_15  and  S_16
REMARK    4  A    between atoms: S_16  and  C_19
REMARK                            x       y       z     vdW  Elec       q    Type
REMARK                         _______ _______ _______ _____ _____    ______ ____
ROOT
ATOM      1  C   UNL     1       8.941   1.158  24.462  0.00  0.00    +0.000 C 
ATOM      2  O   UNL     1       8.541   1.371  25.618  0.00  0.00    +0.000 OA
ATOM      3  N   UNL     1       8.913  -0.152  24.083  0.00  0.00    +0.000 N 
ATOM      4  C   UNL     1      10.065  -0.962  24.453  0.00  0.00    +0.000 C 
ATOM      5  C   UNL     1      10.105  -2.251  23.661  0.00  0.00    +0.000 C 
ATOM      6  N   UNL     1       8.876  -2.891  23.518  0.00  0.00    +0.000 NA
ATOM      7  C   UNL     1       7.868  -2.076  23.026  0.00  0.00    +0.000 C 
ATOM      8  C   UNL     1       7.651  -0.810  23.854  0.00  0.00    +0.000 C 
ENDROOT
BRANCH   1   9
ATOM      9  C   UNL     1       9.013   2.284  23.488  0.00  0.00    +0.000 C 
ATOM     10  C   UNL     1       9.424   1.758  22.113  0.00  0.00    +0.000 C 
ATOM     11  C   UNL     1       8.161   1.678  21.235  0.00  0.00    +0.000 C 
ATOM     12  C   UNL     1       7.075   2.499  21.933  0.00  0.00    +0.000 C 
ATOM     13  C   UNL     1       7.572   2.834  23.337  0.00  0.00    +0.000 C 
BRANCH   9  16
ATOM     14  C   UNL     1      11.818   4.367  23.142  0.00  0.00    +0.000 A 
ATOM     15  N   UNL     1      11.155   3.152  23.649  0.00  0.00    +0.000 NA
ATOM     16  C   UNL     1       9.917   3.375  23.903  0.00  0.00    +0.000 A 
ATOM     17  C   UNL     1       9.182   4.585  24.053  0.00  0.00    +0.000 A 
ATOM     18  C   UNL     1       9.584   5.858  23.731  0.00  0.00    +0.000 A 
ATOM     19  C   UNL     1      11.086   5.559  23.445  0.00  0.00    +0.000 A 
ENDBRANCH   9  16
ENDBRANCH   1   9
BRANCH   6  20
ATOM     20  S   UNL     1       8.562  -4.059  24.515  0.00  0.00    +0.000 S 
ATOM     21  O   UNL     1       9.745  -4.907  24.651  0.00  0.00    +0.000 OA
ATOM     22  O   UNL     1       8.050  -3.618  25.785  0.00  0.00    +0.000 OA
BRANCH  20  23
ATOM     23  C   UNL     1       7.338  -5.225  23.907  0.00  0.00    +0.000 A 
ATOM     24  C   UNL     1       5.953  -4.674  24.617  0.00  0.00    +0.000 A 
ATOM     25  F   UNL     1       6.307  -3.554  25.222  0.00  0.00    +0.000 F 
ATOM     26  C   UNL     1       4.888  -4.499  23.625  0.00  0.00    +0.000 A 
ATOM     27  C   UNL     1       5.084  -4.420  22.184  0.00  0.00    +0.000 A 
ATOM     28  C   UNL     1       6.238  -4.848  21.431  0.00  0.00    +0.000 A 
ATOM     29  C   UNL     1       7.202  -5.332  22.494  0.00  0.00    +0.000 A 
ATOM     30  F   UNL     1       7.443  -6.689  22.144  0.00  0.00    +0.000 F 
ENDBRANCH  20  23
ENDBRANCH   6  20
TORSDOF 4
ENDMDL
MODEL 4
REMARK VINA RESULT:      -8.2      2.972      6.980
REMARK  Name = 
REMARK  4 active torsions:
REMARK  status: ('A' for Active; 'I' for Inactive)
REMARK    1  A    between atoms: C_4  and  C_5
REMARK    2  A    between atoms: C_5  and  C_6
REMARK    3  A    between atoms: N_15  and  S_16
REMARK    4  A    between atoms: S_16  and  C_19
REMARK                            x       y       z     vdW  Elec       q    Type
REMARK                         _______ _______ _______ _____ _____    ______ ____
ROOT
ATOM      1  C   UNL     1       7.209   0.141  22.707  0.00  0.00    +0.000 C 
ATOM      2  O   UNL     1       6.330   0.589  23.461  0.00  0.00    +0.000 OA
ATOM      3  N   UNL     1       7.354  -1.213  22.744  0.00  0.00    +0.000 N 
ATOM      4  C   UNL     1       8.214  -1.749  23.789  0.00  0.00    +0.000 C 
ATOM      5  C   UNL     1       8.606  -3.181  23.495  0.00  0.00    +0.000 C 
ATOM      6  N   UNL     1       7.574  -3.988  23.024  0.00  0.00    +0.000 NA
ATOM      7  C   UNL     1       6.896  -3.460  21.935  0.00  0.00    +0.000 C 
ATOM      8  C   UNL     1       6.330  -2.065  22.189  0.00  0.00    +0.000 C 
ENDROOT
BRANCH   1   9
ATOM      9  C   UNL     1       7.713   0.982  21.584  0.00  0.00    +0.000 C 
ATOM     10  C   UNL     1       8.470   0.113  20.581  0.00  0.00    +0.000 C 
ATOM     11  C   UNL     1       7.546  -0.141  19.375  0.00  0.00    +0.000 C 
ATOM     12  C   UNL     1       6.399   0.868  19.467  0.00  0.00    +0.000 C 
ATOM     13  C   UNL     1       6.466   1.529  20.842  0.00  0.00    +0.000 C 
BRANCH   9  16
ATOM     14  C   UNL     1       8.411   3.883  23.436  0.00  0.00    +0.000 A 
ATOM     15  N   UNL     1       7.916   3.199  22.227  0.00  0.00    +0.000 NA
ATOM     16  C   UNL     1       8.562   2.110  22.017  0.00  0.00    +0.000 A 
ATOM     17  C   UNL     1       9.791   1.620  22.542  0.00  0.00    +0.000 A 
ATOM     18  C   UNL     1      10.504   2.108  23.610  0.00  0.00    +0.000 A 
ATOM     19  C   UNL     1       9.710   3.431  23.830  0.00  0.00    +0.000 A 
ENDBRANCH   9  16
ENDBRANCH   1   9
BRANCH   6  20
ATOM     20  S   UNL     1       6.842  -4.894  24.073  0.00  0.00    +0.000 S 
ATOM     21  O   UNL     1       6.267  -6.052  23.390  0.00  0.00    +0.000 OA
ATOM     22  O   UNL     1       7.664  -5.268  25.193  0.00  0.00    +0.000 OA
BRANCH  20  23
ATOM     23  C   UNL     1       5.389  -4.134  24.804  0.00  0.00    +0.000 A 
ATOM     24  C   UNL     1       4.668  -5.415  25.555  0.00  0.00    +0.000 A 
ATOM     25  F   UNL     1       5.519  -6.415  25.406  0.00  0.00    +0.000 F 
ATOM     26  C   UNL     1       4.365  -5.101  26.955  0.00  0.00    +0.000 A 
ATOM     27  C   UNL     1       4.948  -4.005  27.717  0.00  0.00    +0.000 A 
ATOM     28  C   UNL     1       5.615  -2.835  27.201  0.00  0.00    +0.000 A 
ATOM     29  C   UNL     1       5.615  -3.052  25.702  0.00  0.00    +0.000 A 
ATOM     30  F   UNL     1       4.919  -1.922  25.192  0.00  0.00    +0.000 F 
ENDBRANCH  20  23
ENDBRANCH   6  20
TORSDOF 4
ENDMDL
MODEL 5
REMARK VINA RESULT:      -8.2      3.335      7.268
REMARK  Name = 
REMARK  4 active torsions:
REMARK  status: ('A' for Active; 'I' for Inactive)
REMARK    1  A    between atoms: C_4  and  C_5
REMARK    2  A    between atoms: C_5  and  C_6
REMARK    3  A    between atoms: N_15  and  S_16
REMARK    4  A    between atoms: S_16  and  C_19
REMARK                            x       y       z     vdW  Elec       q    Type
REMARK                         _______ _______ _______ _____ _____    ______ ____
ROOT
ATOM      1  C   UNL     1       7.265   0.399  22.891  0.00  0.00    +0.000 C 
ATOM      2  O   UNL     1       6.340   0.895  23.555  0.00  0.00    +0.000 OA
ATOM      3  N   UNL     1       7.445  -0.939  23.078  0.00  0.00    +0.000 N 
ATOM      4  C   UNL     1       8.270  -1.334  24.211  0.00  0.00    +0.000 C 
ATOM      5  C   UNL     1       8.713  -2.776  24.088  0.00  0.00    +0.000 C 
ATOM      6  N   UNL     1       7.727  -3.661  23.660  0.00  0.00    +0.000 NA
ATOM      7  C   UNL     1       7.088  -3.271  22.493  0.00  0.00    +0.000 C 
ATOM      8  C   UNL     1       6.472  -1.876  22.572  0.00  0.00    +0.000 C 
ENDROOT
BRANCH   1   9
ATOM      9  C   UNL     1       7.799   1.134  21.709  0.00  0.00    +0.000 C 
ATOM     10  C   UNL     1       8.631   0.191  20.842  0.00  0.00    +0.000 C 
ATOM     11  C   UNL     1       7.776  -0.223  19.628  0.00  0.00    +0.000 C 
ATOM     12  C   UNL     1       6.595   0.749  19.559  0.00  0.00    +0.000 C 
ATOM     13  C   UNL     1       6.574   1.554  20.856  0.00  0.00    +0.000 C 
BRANCH   9  16
ATOM     14  C   UNL     1       8.381   4.155  23.402  0.00  0.00    +0.000 A 
ATOM     15  N   UNL     1       7.885   3.386  22.246  0.00  0.00    +0.000 NA
ATOM     16  C   UNL     1       8.591   2.331  22.058  0.00  0.00    +0.000 A 
ATOM     17  C   UNL     1       9.867   1.942  22.552  0.00  0.00    +0.000 A 
ATOM     18  C   UNL     1      10.588   2.523  23.567  0.00  0.00    +0.000 A 
ATOM     19  C   UNL     1       9.721   3.802  23.762  0.00  0.00    +0.000 A 
ENDBRANCH   9  16
ENDBRANCH   1   9
BRANCH   6  20
ATOM     20  S   UNL     1       6.972  -4.475  24.766  0.00  0.00    +0.000 S 
ATOM     21  O   UNL     1       7.933  -5.299  25.497  0.00  0.00    +0.000 OA
ATOM     22  O   UNL     1       6.166  -3.663  25.639  0.00  0.00    +0.000 OA
BRANCH  20  23
ATOM     23  C   UNL     1       5.842  -5.710  24.116  0.00  0.00    +0.000 A 
ATOM     24  C   UNL     1       5.307  -6.449  25.493  0.00  0.00    +0.000 A 
ATOM     25  F   UNL     1       5.836  -5.747  26.478  0.00  0.00    +0.000 F 
ATOM     26  C   UNL     1       3.843  -6.504  25.524  0.00  0.00    +0.000 A 
ATOM     27  C   UNL     1       2.952  -5.697  24.703  0.00  0.00    +0.000 A 
ATOM     28  C   UNL     1       3.279  -4.988  23.490  0.00  0.00    +0.000 A 
ATOM     29  C   UNL     1       4.763  -5.234  23.317  0.00  0.00    +0.000 A 
ATOM     30  F   UNL     1       4.860  -5.869  22.049  0.00  0.00    +0.000 F 
ENDBRANCH  20  23
ENDBRANCH   6  20
TORSDOF 4
ENDMDL
MODEL 6
REMARK VINA RESULT:      -8.0      2.935      7.111
REMARK  Name = 
REMARK  4 active torsions:
REMARK  status: ('A' for Active; 'I' for Inactive)
REMARK    1  A    between atoms: C_4  and  C_5
REMARK    2  A    between atoms: C_5  and  C_6
REMARK    3  A    between atoms: N_15  and  S_16
REMARK    4  A    between atoms: S_16  and  C_19
REMARK                            x       y       z     vdW  Elec       q    Type
REMARK                         _______ _______ _______ _____ _____    ______ ____
ROOT
ATOM      1  C   UNL     1       7.523   0.483  22.997  0.00  0.00    +0.000 C 
ATOM      2  O   UNL     1       6.546   0.708  23.730  0.00  0.00    +0.000 OA
ATOM      3  N   UNL     1       8.043  -0.771  23.112  0.00  0.00    +0.000 N 
ATOM      4  C   UNL     1       9.009  -0.981  24.180  0.00  0.00    +0.000 C 
ATOM      5  C   UNL     1       9.791  -2.259  23.968  0.00  0.00    +0.000 C 
ATOM      6  N   UNL     1       9.033  -3.351  23.552  0.00  0.00    +0.000 NA
ATOM      7  C   UNL     1       8.245  -3.099  22.439  0.00  0.00    +0.000 C 
ATOM      8  C   UNL     1       7.306  -1.907  22.615  0.00  0.00    +0.000 C 
ENDROOT
BRANCH   1   9
ATOM      9  C   UNL     1       7.780   1.366  21.823  0.00  0.00    +0.000 C 
ATOM     10  C   UNL     1       8.515   0.584  20.735  0.00  0.00    +0.000 C 
ATOM     11  C   UNL     1       7.493   0.201  19.648  0.00  0.00    +0.000 C 
ATOM     12  C   UNL     1       6.248   1.061  19.879  0.00  0.00    +0.000 C 
ATOM     13  C   UNL     1       6.395   1.742  21.237  0.00  0.00    +0.000 C 
BRANCH   9  16
ATOM     14  C   UNL     1       8.340   4.340  23.603  0.00  0.00    +0.000 A 
ATOM     15  N   UNL     1       7.779   3.592  22.463  0.00  0.00    +0.000 NA
ATOM     16  C   UNL     1       8.527   2.596  22.154  0.00  0.00    +0.000 A 
ATOM     17  C   UNL     1       9.868   2.272  22.503  0.00  0.00    +0.000 A 
ATOM     18  C   UNL     1      10.649   2.853  23.471  0.00  0.00    +0.000 A 
ATOM     19  C   UNL     1       9.728   4.062  23.814  0.00  0.00    +0.000 A 
ENDBRANCH   9  16
ENDBRANCH   1   9
BRANCH   6  20
ATOM     20  S   UNL     1       8.576  -4.364  24.657  0.00  0.00    +0.000 S 
ATOM     21  O   UNL     1       8.595  -5.718  24.105  0.00  0.00    +0.000 OA
ATOM     22  O   UNL     1       9.319  -4.260  25.885  0.00  0.00    +0.000 OA
BRANCH  20  23
ATOM     23  C   UNL     1       6.857  -4.184  25.144  0.00  0.00    +0.000 A 
ATOM     24  C   UNL     1       6.083  -5.135  24.038  0.00  0.00    +0.000 A 
ATOM     25  F   UNL     1       7.054  -5.713  23.354  0.00  0.00    +0.000 F 
ATOM     26  C   UNL     1       5.181  -6.083  24.701  0.00  0.00    +0.000 A 
ATOM     27  C   UNL     1       5.227  -6.443  26.111  0.00  0.00    +0.000 A 
ATOM     28  C   UNL     1       5.871  -5.720  27.181  0.00  0.00    +0.000 A 
ATOM     29  C   UNL     1       6.528  -4.549  26.480  0.00  0.00    +0.000 A 
ATOM     30  F   UNL     1       5.952  -3.409  27.104  0.00  0.00    +0.000 F 
ENDBRANCH  20  23
ENDBRANCH   6  20
TORSDOF 4
ENDMDL
MODEL 7
REMARK VINA RESULT:      -8.0      3.325      7.229
REMARK  Name = 
REMARK  4 active torsions:
REMARK  status: ('A' for Active; 'I' for Inactive)
REMARK    1  A    between atoms: C_4  and  C_5
REMARK    2  A    between atoms: C_5  and  C_6
REMARK    3  A    between atoms: N_15  and  S_16
REMARK    4  A    between atoms: S_16  and  C_19
REMARK                            x       y       z     vdW  Elec       q    Type
REMARK                         _______ _______ _______ _____ _____    ______ ____
ROOT
ATOM      1  C   UNL     1       7.008  -0.790  22.022  0.00  0.00    +0.000 C 
ATOM      2  O   UNL     1       6.432  -1.623  21.302  0.00  0.00    +0.000 OA
ATOM      3  N   UNL     1       7.235  -1.204  23.300  0.00  0.00    +0.000 N 
ATOM      4  C   UNL     1       6.146  -1.020  24.248  0.00  0.00    +0.000 C 
ATOM      5  C   UNL     1       6.635  -1.142  25.675  0.00  0.00    +0.000 C 
ATOM      6  N   UNL     1       7.528  -2.185  25.904  0.00  0.00    +0.000 NA
ATOM      7  C   UNL     1       8.612  -2.200  25.039  0.00  0.00    +0.000 C 
ATOM      8  C   UNL     1       8.214  -2.229  23.565  0.00  0.00    +0.000 C 
ENDROOT
BRANCH   1   9
ATOM      9  C   UNL     1       7.744   0.343  21.391  0.00  0.00    +0.000 C 
ATOM     10  C   UNL     1       7.746   1.548  22.330  0.00  0.00    +0.000 C 
ATOM     11  C   UNL     1       9.128   1.624  23.007  0.00  0.00    +0.000 C 
ATOM     12  C   UNL     1      10.069   0.717  22.210  0.00  0.00    +0.000 C 
ATOM     13  C   UNL     1       9.219  -0.109  21.248  0.00  0.00    +0.000 C 
BRANCH   9  16
ATOM     14  C   UNL     1       6.507  -0.297  18.167  0.00  0.00    +0.000 A 
ATOM     15  N   UNL     1       7.609  -0.020  19.107  0.00  0.00    +0.000 NA
ATOM     16  C   UNL     1       7.216   0.734  20.069  0.00  0.00    +0.000 A 
ATOM     17  C   UNL     1       6.056   1.542  20.226  0.00  0.00    +0.000 A 
ATOM     18  C   UNL     1       4.919   1.542  19.455  0.00  0.00    +0.000 A 
ATOM     19  C   UNL     1       5.430   0.637  18.295  0.00  0.00    +0.000 A 
ENDBRANCH   9  16
ENDBRANCH   1   9
BRANCH   6  20
ATOM     20  S   UNL     1       6.936  -3.515  26.486  0.00  0.00    +0.000 S 
ATOM     21  O   UNL     1       8.008  -4.278  27.125  0.00  0.00    +0.000 OA
ATOM     22  O   UNL     1       5.807  -3.318  27.356  0.00  0.00    +0.000 OA
BRANCH  20  23
ATOM     23  C   UNL     1       6.357  -4.663  25.234  0.00  0.00    +0.000 A 
ATOM     24  C   UNL     1       6.046  -6.019  26.124  0.00  0.00    +0.000 A 
ATOM     25  F   UNL     1       6.235  -5.648  27.378  0.00  0.00    +0.000 F 
ATOM     26  C   UNL     1       4.697  -6.526  25.855  0.00  0.00    +0.000 A 
ATOM     27  C   UNL     1       3.623  -5.770  25.225  0.00  0.00    +0.000 A 
ATOM     28  C   UNL     1       3.743  -4.570  24.433  0.00  0.00    +0.000 A 
ATOM     29  C   UNL     1       5.225  -4.260  24.470  0.00  0.00    +0.000 A 
ATOM     30  F   UNL     1       5.610  -4.267  23.101  0.00  0.00    +0.000 F 
ENDBRANCH  20  23
ENDBRANCH   6  20
TORSDOF 4
ENDMDL
MODEL 8
REMARK VINA RESULT:      -7.8      2.968      7.482
REMARK  Name = 
REMARK  4 active torsions:
REMARK  status: ('A' for Active; 'I' for Inactive)
REMARK    1  A    between atoms: C_4  and  C_5
REMARK    2  A    between atoms: C_5  and  C_6
REMARK    3  A    between atoms: N_15  and  S_16
REMARK    4  A    between atoms: S_16  and  C_19
REMARK                            x       y       z     vdW  Elec       q    Type
REMARK                         _______ _______ _______ _____ _____    ______ ____
ROOT
ATOM      1  C   UNL     1       8.545   1.756  24.502  0.00  0.00    +0.000 C 
ATOM      2  O   UNL     1       8.116   2.250  25.557  0.00  0.00    +0.000 OA
ATOM      3  N   UNL     1       8.351   0.412  24.382  0.00  0.00    +0.000 N 
ATOM      4  C   UNL     1       9.353  -0.448  24.995  0.00  0.00    +0.000 C 
ATOM      5  C   UNL     1       9.251  -1.865  24.474  0.00  0.00    +0.000 C 
ATOM      6  N   UNL     1       7.954  -2.357  24.355  0.00  0.00    +0.000 NA
ATOM      7  C   UNL     1       7.102  -1.534  23.633  0.00  0.00    +0.000 C 
ATOM      8  C   UNL     1       7.022  -0.110  24.180  0.00  0.00    +0.000 C 
ENDROOT
BRANCH   1   9
ATOM      9  C   UNL     1       8.831   2.643  23.338  0.00  0.00    +0.000 C 
ATOM     10  C   UNL     1       7.768   3.736  23.242  0.00  0.00    +0.000 C 
ATOM     11  C   UNL     1       8.370   5.039  23.802  0.00  0.00    +0.000 C 
ATOM     12  C   UNL     1       9.886   4.837  23.878  0.00  0.00    +0.000 C 
ATOM     13  C   UNL     1      10.173   3.356  23.641  0.00  0.00    +0.000 C 
BRANCH   9  16
ATOM     14  C   UNL     1       9.588  -0.129  21.318  0.00  0.00    +0.000 A 
ATOM     15  N   UNL     1       9.950   1.143  21.971  0.00  0.00    +0.000 NA
ATOM     16  C   UNL     1       8.935   1.924  22.052  0.00  0.00    +0.000 A 
ATOM     17  C   UNL     1       7.668   1.904  21.402  0.00  0.00    +0.000 A 
ATOM     18  C   UNL     1       7.115   0.884  20.669  0.00  0.00    +0.000 A 
ATOM     19  C   UNL     1       8.369  -0.037  20.575  0.00  0.00    +0.000 A 
ENDBRANCH   9  16
ENDBRANCH   1   9
BRANCH   6  20
ATOM     20  S   UNL     1       7.420  -3.248  25.529  0.00  0.00    +0.000 S 
ATOM     21  O   UNL     1       8.452  -3.355  26.559  0.00  0.00    +0.000 OA
ATOM     22  O   UNL     1       6.155  -2.814  26.060  0.00  0.00    +0.000 OA
BRANCH  20  23
ATOM     23  C   UNL     1       7.164  -4.967  25.079  0.00  0.00    +0.000 A 
ATOM     24  C   UNL     1       6.566  -5.606  26.480  0.00  0.00    +0.000 A 
ATOM     25  F   UNL     1       6.416  -4.570  27.285  0.00  0.00    +0.000 F 
ATOM     26  C   UNL     1       5.325  -6.346  26.231  0.00  0.00    +0.000 A 
ATOM     27  C   UNL     1       4.497  -6.227  25.038  0.00  0.00    +0.000 A 
ATOM     28  C   UNL     1       4.878  -5.683  23.757  0.00  0.00    +0.000 A 
ATOM     29  C   UNL     1       6.304  -5.218  23.973  0.00  0.00    +0.000 A 
ATOM     30  F   UNL     1       7.051  -5.949  23.009  0.00  0.00    +0.000 F 
ENDBRANCH  20  23
ENDBRANCH   6  20
TORSDOF 4
ENDMDL
MODEL 9
REMARK VINA RESULT:      -7.7      1.650      2.417
REMARK  Name = 
REMARK  4 active torsions:
REMARK  status: ('A' for Active; 'I' for Inactive)
REMARK    1  A    between atoms: C_4  and  C_5
REMARK    2  A    between atoms: C_5  and  C_6
REMARK    3  A    between atoms: N_15  and  S_16
REMARK    4  A    between atoms: S_16  and  C_19
REMARK                            x       y       z     vdW  Elec       q    Type
REMARK                         _______ _______ _______ _____ _____    ______ ____
ROOT
ATOM      1  C   UNL     1       8.237  -3.452  24.068  0.00  0.00    +0.000 C 
ATOM      2  O   UNL     1       9.415  -3.831  24.171  0.00  0.00    +0.000 OA
ATOM      3  N   UNL     1       8.090  -2.142  23.721  0.00  0.00    +0.000 N 
ATOM      4  C   UNL     1       8.130  -1.172  24.806  0.00  0.00    +0.000 C 
ATOM      5  C   UNL     1       7.575   0.165  24.366  0.00  0.00    +0.000 C 
ATOM      6  N   UNL     1       7.982   0.584  23.102  0.00  0.00    +0.000 NA
ATOM      7  C   UNL     1       7.776  -0.355  22.103  0.00  0.00    +0.000 C 
ATOM      8  C   UNL     1       8.432  -1.704  22.391  0.00  0.00    +0.000 C 
ENDROOT
BRANCH   1   9
ATOM      9  C   UNL     1       7.150  -4.461  23.914  0.00  0.00    +0.000 C 
ATOM     10  C   UNL     1       6.042  -3.901  23.023  0.00  0.00    +0.000 C 
ATOM     11  C   UNL     1       6.196  -4.521  21.621  0.00  0.00    +0.000 C 
ATOM     12  C   UNL     1       7.136  -5.721  21.762  0.00  0.00    +0.000 C 
ATOM     13  C   UNL     1       7.764  -5.663  23.152  0.00  0.00    +0.000 C 
BRANCH   9  16
ATOM     14  C   UNL     1       7.326  -5.398  27.294  0.00  0.00    +0.000 A 
ATOM     15  N   UNL     1       7.356  -5.712  25.853  0.00  0.00    +0.000 NA
ATOM     16  C   UNL     1       6.583  -4.926  25.195  0.00  0.00    +0.000 A 
ATOM     17  C   UNL     1       5.542  -4.050  25.613  0.00  0.00    +0.000 A 
ATOM     18  C   UNL     1       5.245  -3.647  26.891  0.00  0.00    +0.000 A 
ATOM     19  C   UNL     1       6.181  -4.624  27.664  0.00  0.00    +0.000 A 
ENDBRANCH   9  16
ENDBRANCH   1   9
BRANCH   6  20
ATOM     20  S   UNL     1       9.184   1.588  23.037  0.00  0.00    +0.000 S 
ATOM     21  O   UNL     1      10.124   1.283  24.114  0.00  0.00    +0.000 OA
ATOM     22  O   UNL     1       9.823   1.648  21.749  0.00  0.00    +0.000 OA
BRANCH  20  23
ATOM     23  C   UNL     1       8.733   3.287  23.406  0.00  0.00    +0.000 A 
ATOM     24  C   UNL     1       7.644   3.623  22.212  0.00  0.00    +0.000 A 
ATOM     25  F   UNL     1       7.476   2.477  21.577  0.00  0.00    +0.000 F 
ATOM     26  C   UNL     1       6.406   4.176  22.771  0.00  0.00    +0.000 A 
ATOM     27  C   UNL     1       5.998   4.085  24.166  0.00  0.00    +0.000 A 
ATOM     28  C   UNL     1       6.831   3.789  25.306  0.00  0.00    +0.000 A 
ATOM     29  C   UNL     1       8.197   3.541  24.700  0.00  0.00    +0.000 A 
ATOM     30  F   UNL     1       9.030   4.508  25.325  0.00  0.00    +0.000 F 
ENDBRANCH  20  23
ENDBRANCH   6  20
TORSDOF 4
ENDMDL
