MODEL 1
REMARK VINA RESULT:      -8.8      0.000      0.000
REMARK  Name = 
REMARK  5 active torsions:
REMARK  status: ('A' for Active; 'I' for Inactive)
REMARK    1  A    between atoms: C_7  and  C_8
REMARK    2  A    between atoms: C_24  and  C_26
REMARK    3  A    between atoms: C_26  and  C_29
REMARK    4  A    between atoms: N_38  and  C_39
REMARK    5  A    between atoms: C_48  and  N_49
REMARK                            x       y       z     vdW  Elec       q    Type
REMARK                         _______ _______ _______ _____ _____    ______ ____
ROOT
ATOM      1  C   UNL     1       8.905   2.168  22.948  0.00  0.00    +0.000 C 
ATOM      2  C   UNL     1       8.005   2.227  24.006  0.00  0.00    +0.000 A 
ATOM      3  C   UNL     1       6.558   2.365  23.678  0.00  0.00    +0.000 A 
ATOM      4  C   UNL     1       5.472   2.194  24.661  0.00  0.00    +0.000 A 
ATOM      5  C   UNL     1       6.117   1.580  25.891  0.00  0.00    +0.000 A 
ATOM      6  C   UNL     1       7.416   1.224  26.309  0.00  0.00    +0.000 A 
ATOM      7  C   UNL     1       8.258   0.991  24.922  0.00  0.00    +0.000 A 
ATOM      8  C   UNL     1       8.503  -0.373  24.628  0.00  0.00    +0.000 C 
ATOM      9  N   UNL     1       9.245  -0.289  23.539  0.00  0.00    +0.000 N 
ATOM     10  C   UNL     1       9.565  -1.412  22.890  0.00  0.00    +0.000 C 
ATOM     11  O   UNL     1      10.721  -1.590  22.365  0.00  0.00    +0.000 OA
ATOM     12  C   UNL     1       9.536   0.818  22.867  0.00  0.00    +0.000 C 
ENDROOT
BRANCH   1  16
ATOM     13  C   UNL     1      11.323   5.634  23.608  0.00  0.00    +0.000 A 
ATOM     14  C   UNL     1      11.856   4.236  23.266  0.00  0.00    +0.000 A 
ATOM     15  C   UNL     1      11.196   2.956  23.411  0.00  0.00    +0.000 A 
ATOM     16  C   UNL     1       9.648   3.224  23.634  0.00  0.00    +0.000 A 
ATOM     17  C   UNL     1       9.016   4.397  24.188  0.00  0.00    +0.000 A 
ATOM     18  C   UNL     1       9.858   5.608  23.731  0.00  0.00    +0.000 A 
ENDBRANCH   1  16
BRANCH  10  19
ATOM     19  C   UNL     1       9.416  -2.564  23.986  0.00  0.00    +0.000 C 
BRANCH  19  20
ATOM     20  C   UNL     1       8.621  -3.744  23.721  0.00  0.00    +0.000 C 
ATOM     21  O   UNL     1       9.028  -4.801  24.347  0.00  0.00    +0.000 OA
ATOM     22  N   UNL     1       7.537  -3.918  22.913  0.00  0.00    +0.000 N 
ATOM     23  C   UNL     1       7.318  -5.251  22.310  0.00  0.00    +0.000 C 
ATOM     24  C   UNL     1       6.044  -5.852  22.918  0.00  0.00    +0.000 C 
ATOM     25  N   UNL     1       5.329  -4.798  23.640  0.00  0.00    +0.000 N 
ATOM     26  C   UNL     1       5.098  -3.565  22.859  0.00  0.00    +0.000 C 
ATOM     27  C   UNL     1       6.500  -2.963  22.605  0.00  0.00    +0.000 C 
BRANCH  25  28
ATOM     28  C   UNL     1       5.660  -4.530  24.938  0.00  0.00    +0.000 A 
ATOM     29  C   UNL     1       4.472  -3.635  25.290  0.00  0.00    +0.000 A 
ATOM     30  C   UNL     1       3.554  -3.786  26.452  0.00  0.00    +0.000 A 
ATOM     31  C   UNL     1       3.999  -5.025  27.143  0.00  0.00    +0.000 A 
ATOM     32  C   UNL     1       4.988  -6.035  27.047  0.00  0.00    +0.000 A 
ATOM     33  C   UNL     1       5.925  -5.545  25.909  0.00  0.00    +0.000 A 
BRANCH  33  34
ATOM     34  N   UNL     1       7.093  -5.306  26.584  0.00  0.00    +0.000 N 
ATOM     35  O   UNL     1       7.134  -4.187  26.844  0.00  0.00    +0.000 OA
ATOM     36  O   UNL     1       7.339  -6.178  27.413  0.00  0.00    +0.000 OA
ENDBRANCH  33  34
ENDBRANCH  25  28
ENDBRANCH  19  20
ENDBRANCH  10  19
TORSDOF 5
ENDMDL
MODEL 2
REMARK VINA RESULT:      -8.4      2.261      4.090
REMARK  Name = 
REMARK  5 active torsions:
REMARK  status: ('A' for Active; 'I' for Inactive)
REMARK    1  A    between atoms: C_7  and  C_8
REMARK    2  A    between atoms: C_24  and  C_26
REMARK    3  A    between atoms: C_26  and  C_29
REMARK    4  A    between atoms: N_38  and  C_39
REMARK    5  A    between atoms: C_48  and  N_49
REMARK                            x       y       z     vdW  Elec       q    Type
REMARK                         _______ _______ _______ _____ _____    ______ ____
ROOT
ATOM      1  C   UNL     1       9.792   1.297  24.632  0.00  0.00    +0.000 C 
ATOM      2  C   UNL     1       9.461   0.792  23.379  0.00  0.00    +0.000 A 
ATOM      3  C   UNL     1      10.304  -0.309  22.832  0.00  0.00    +0.000 A 
ATOM      4  C   UNL     1       9.943  -1.110  21.647  0.00  0.00    +0.000 A 
ATOM      5  C   UNL     1       8.489  -0.786  21.353  0.00  0.00    +0.000 A 
ATOM      6  C   UNL     1       7.500   0.081  21.862  0.00  0.00    +0.000 A 
ATOM      7  C   UNL     1       7.956   0.385  23.407  0.00  0.00    +0.000 A 
ATOM      8  C   UNL     1       7.174  -0.291  24.374  0.00  0.00    +0.000 C 
ATOM      9  N   UNL     1       7.676   0.173  25.504  0.00  0.00    +0.000 N 
ATOM     10  C   UNL     1       7.258  -0.354  26.658  0.00  0.00    +0.000 C 
ATOM     11  O   UNL     1       7.063   0.362  27.704  0.00  0.00    +0.000 OA
ATOM     12  C   UNL     1       8.734   0.964  25.631  0.00  0.00    +0.000 C 
ENDROOT
BRANCH   1  16
ATOM     13  C   UNL     1      10.202   5.519  24.089  0.00  0.00    +0.000 A 
ATOM     14  C   UNL     1       9.042   4.830  24.821  0.00  0.00    +0.000 A 
ATOM     15  C   UNL     1       8.602   3.455  24.725  0.00  0.00    +0.000 A 
ATOM     16  C   UNL     1       9.749   2.621  24.013  0.00  0.00    +0.000 A 
ATOM     17  C   UNL     1      10.756   3.092  23.095  0.00  0.00    +0.000 A 
ATOM     18  C   UNL     1      11.134   4.518  23.550  0.00  0.00    +0.000 A 
ENDBRANCH   1  16
BRANCH  10  19
ATOM     19  C   UNL     1       5.837  -0.997  26.314  0.00  0.00    +0.000 C 
BRANCH  19  20
ATOM     20  C   UNL     1       5.593  -2.410  26.510  0.00  0.00    +0.000 C 
ATOM     21  O   UNL     1       4.363  -2.761  26.312  0.00  0.00    +0.000 OA
ATOM     22  N   UNL     1       6.439  -3.411  26.882  0.00  0.00    +0.000 N 
ATOM     23  C   UNL     1       5.881  -4.561  27.627  0.00  0.00    +0.000 C 
ATOM     24  C   UNL     1       5.975  -5.806  26.735  0.00  0.00    +0.000 C 
ATOM     25  N   UNL     1       6.846  -5.501  25.598  0.00  0.00    +0.000 N 
ATOM     26  C   UNL     1       8.156  -4.923  25.963  0.00  0.00    +0.000 C 
ATOM     27  C   UNL     1       7.845  -3.540  26.582  0.00  0.00    +0.000 C 
BRANCH  25  28
ATOM     28  C   UNL     1       6.316  -4.910  24.486  0.00  0.00    +0.000 A 
ATOM     29  C   UNL     1       7.544  -4.998  23.581  0.00  0.00    +0.000 A 
ATOM     30  C   UNL     1       7.600  -5.565  22.206  0.00  0.00    +0.000 A 
ATOM     31  C   UNL     1       6.232  -6.084  21.941  0.00  0.00    +0.000 A 
ATOM     32  C   UNL     1       4.961  -6.178  22.558  0.00  0.00    +0.000 A 
ATOM     33  C   UNL     1       5.106  -5.346  23.862  0.00  0.00    +0.000 A 
BRANCH  33  34
ATOM     34  N   UNL     1       4.250  -4.303  23.632  0.00  0.00    +0.000 N 
ATOM     35  O   UNL     1       4.863  -3.421  23.220  0.00  0.00    +0.000 OA
ATOM     36  O   UNL     1       3.199  -4.667  23.113  0.00  0.00    +0.000 OA
ENDBRANCH  33  34
ENDBRANCH  25  28
ENDBRANCH  19  20
ENDBRANCH  10  19
TORSDOF 5
ENDMDL
MODEL 3
REMARK VINA RESULT:      -8.0      2.397      8.029
REMARK  Name = 
REMARK  5 active torsions:
REMARK  status: ('A' for Active; 'I' for Inactive)
REMARK    1  A    between atoms: C_7  and  C_8
REMARK    2  A    between atoms: C_24  and  C_26
REMARK    3  A    between atoms: C_26  and  C_29
REMARK    4  A    between atoms: N_38  and  C_39
REMARK    5  A    between atoms: C_48  and  N_49
REMARK                            x       y       z     vdW  Elec       q    Type
REMARK                         _______ _______ _______ _____ _____    ______ ____
ROOT
ATOM      1  C   UNL     1       4.500  -3.155  24.964  0.00  0.00    +0.000 C 
ATOM      2  C   UNL     1       5.315  -3.969  24.186  0.00  0.00    +0.000 A 
ATOM      3  C   UNL     1       5.197  -3.854  22.705  0.00  0.00    +0.000 A 
ATOM      4  C   UNL     1       6.150  -4.458  21.754  0.00  0.00    +0.000 A 
ATOM      5  C   UNL     1       7.342  -4.899  22.585  0.00  0.00    +0.000 A 
ATOM      6  C   UNL     1       7.698  -4.928  23.949  0.00  0.00    +0.000 A 
ATOM      7  C   UNL     1       6.789  -3.758  24.649  0.00  0.00    +0.000 A 
ATOM      8  C   UNL     1       7.521  -2.592  24.982  0.00  0.00    +0.000 C 
ATOM      9  N   UNL     1       6.606  -1.858  25.588  0.00  0.00    +0.000 N 
ATOM     10  C   UNL     1       6.911  -0.605  25.934  0.00  0.00    +0.000 C 
ATOM     11  O   UNL     1       6.512  -0.085  27.035  0.00  0.00    +0.000 OA
ATOM     12  C   UNL     1       5.314  -2.144  25.702  0.00  0.00    +0.000 C 
ENDROOT
BRANCH   1  16
ATOM     13  C   UNL     1       3.901  -7.290  25.876  0.00  0.00    +0.000 A 
ATOM     14  C   UNL     1       2.979  -6.436  24.996  0.00  0.00    +0.000 A 
ATOM     15  C   UNL     1       2.858  -4.995  24.944  0.00  0.00    +0.000 A 
ATOM     16  C   UNL     1       4.117  -4.370  25.681  0.00  0.00    +0.000 A 
ATOM     17  C   UNL     1       4.929  -4.961  26.716  0.00  0.00    +0.000 A 
ATOM     18  C   UNL     1       5.000  -6.473  26.411  0.00  0.00    +0.000 A 
ENDBRANCH   1  16
BRANCH  10  19
ATOM     19  C   UNL     1       8.507  -0.588  26.011  0.00  0.00    +0.000 C 
BRANCH  19  20
ATOM     20  C   UNL     1       9.296   0.026  24.964  0.00  0.00    +0.000 C 
ATOM     21  O   UNL     1       9.979  -0.819  24.261  0.00  0.00    +0.000 OA
ATOM     22  N   UNL     1       9.442   1.336  24.620  0.00  0.00    +0.000 N 
ATOM     23  C   UNL     1      10.723   1.762  24.013  0.00  0.00    +0.000 C 
ATOM     24  C   UNL     1      10.454   2.168  22.557  0.00  0.00    +0.000 C 
ATOM     25  N   UNL     1       9.007   2.287  22.365  0.00  0.00    +0.000 N 
ATOM     26  C   UNL     1       8.321   3.135  23.362  0.00  0.00    +0.000 C 
ATOM     27  C   UNL     1       8.463   2.391  24.711  0.00  0.00    +0.000 C 
BRANCH  25  28
ATOM     28  C   UNL     1       8.279   1.176  22.047  0.00  0.00    +0.000 A 
ATOM     29  C   UNL     1       6.901   1.830  21.963  0.00  0.00    +0.000 A 
ATOM     30  C   UNL     1       5.936   1.737  20.833  0.00  0.00    +0.000 A 
ATOM     31  C   UNL     1       6.632   0.939  19.790  0.00  0.00    +0.000 A 
ATOM     32  C   UNL     1       7.856   0.262  19.568  0.00  0.00    +0.000 A 
ATOM     33  C   UNL     1       8.582   0.325  20.939  0.00  0.00    +0.000 A 
BRANCH  33  34
ATOM     34  N   UNL     1       8.612  -0.994  21.307  0.00  0.00    +0.000 N 
ATOM     35  O   UNL     1       9.702  -1.275  21.541  0.00  0.00    +0.000 OA
ATOM     36  O   UNL     1       7.686  -1.291  22.056  0.00  0.00    +0.000 OA
ENDBRANCH  33  34
ENDBRANCH  25  28
ENDBRANCH  19  20
ENDBRANCH  10  19
TORSDOF 5
ENDMDL
MODEL 4
REMARK VINA RESULT:      -7.9      2.688      8.524
REMARK  Name = 
REMARK  5 active torsions:
REMARK  status: ('A' for Active; 'I' for Inactive)
REMARK    1  A    between atoms: C_7  and  C_8
REMARK    2  A    between atoms: C_24  and  C_26
REMARK    3  A    between atoms: C_26  and  C_29
REMARK    4  A    between atoms: N_38  and  C_39
REMARK    5  A    between atoms: C_48  and  N_49
REMARK                            x       y       z     vdW  Elec       q    Type
REMARK                         _______ _______ _______ _____ _____    ______ ____
ROOT
ATOM      1  C   UNL     1       5.109  -6.198  23.960  0.00  0.00    +0.000 C 
ATOM      2  C   UNL     1       5.074  -5.478  25.149  0.00  0.00    +0.000 A 
ATOM      3  C   UNL     1       6.209  -5.655  26.099  0.00  0.00    +0.000 A 
ATOM      4  C   UNL     1       6.442  -4.790  27.271  0.00  0.00    +0.000 A 
ATOM      5  C   UNL     1       5.520  -3.596  27.098  0.00  0.00    +0.000 A 
ATOM      6  C   UNL     1       4.525  -3.182  26.188  0.00  0.00    +0.000 A 
ATOM      7  C   UNL     1       4.868  -3.974  24.795  0.00  0.00    +0.000 A 
ATOM      8  C   UNL     1       5.439  -3.147  23.797  0.00  0.00    +0.000 C 
ATOM      9  N   UNL     1       5.541  -3.980  22.778  0.00  0.00    +0.000 N 
ATOM     10  C   UNL     1       6.173  -3.572  21.674  0.00  0.00    +0.000 C 
ATOM     11  O   UNL     1       5.764  -3.884  20.499  0.00  0.00    +0.000 OA
ATOM     12  C   UNL     1       5.283  -5.282  22.794  0.00  0.00    +0.000 C 
ENDROOT
BRANCH   1  16
ATOM     13  C   UNL     1       1.456  -8.420  23.901  0.00  0.00    +0.000 A 
ATOM     14  C   UNL     1       1.831  -7.310  22.910  0.00  0.00    +0.000 A 
ATOM     15  C   UNL     1       2.813  -6.258  23.062  0.00  0.00    +0.000 A 
ATOM     16  C   UNL     1       3.751  -6.634  24.284  0.00  0.00    +0.000 A 
ATOM     17  C   UNL     1       3.444  -7.463  25.423  0.00  0.00    +0.000 A 
ATOM     18  C   UNL     1       2.510  -8.582  24.914  0.00  0.00    +0.000 A 
ENDBRANCH   1  16
BRANCH  10  19
ATOM     19  C   UNL     1       6.101  -1.977  21.738  0.00  0.00    +0.000 C 
BRANCH  19  20
ATOM     20  C   UNL     1       7.308  -1.178  21.742  0.00  0.00    +0.000 C 
ATOM     21  O   UNL     1       7.270  -0.169  20.932  0.00  0.00    +0.000 OA
ATOM     22  N   UNL     1       8.466  -1.329  22.443  0.00  0.00    +0.000 N 
ATOM     23  C   UNL     1       9.723  -0.836  21.837  0.00  0.00    +0.000 C 
ATOM     24  C   UNL     1      10.229   0.347  22.672  0.00  0.00    +0.000 C 
ATOM     25  N   UNL     1       9.481   0.385  23.930  0.00  0.00    +0.000 N 
ATOM     26  C   UNL     1       9.445  -0.897  24.664  0.00  0.00    +0.000 C 
ATOM     27  C   UNL     1       8.634  -1.866  23.772  0.00  0.00    +0.000 C 
BRANCH  25  28
ATOM     28  C   UNL     1       8.283   1.039  23.979  0.00  0.00    +0.000 A 
ATOM     29  C   UNL     1       7.866   0.632  25.392  0.00  0.00    +0.000 A 
ATOM     30  C   UNL     1       7.433   1.539  26.491  0.00  0.00    +0.000 A 
ATOM     31  C   UNL     1       7.566   2.913  25.937  0.00  0.00    +0.000 A 
ATOM     32  C   UNL     1       7.938   3.580  24.745  0.00  0.00    +0.000 A 
ATOM     33  C   UNL     1       8.135   2.435  23.713  0.00  0.00    +0.000 A 
BRANCH  33  34
ATOM     34  N   UNL     1       7.123   2.677  22.822  0.00  0.00    +0.000 N 
ATOM     35  O   UNL     1       7.592   2.851  21.787  0.00  0.00    +0.000 OA
ATOM     36  O   UNL     1       6.166   1.925  22.988  0.00  0.00    +0.000 OA
ENDBRANCH  33  34
ENDBRANCH  25  28
ENDBRANCH  19  20
ENDBRANCH  10  19
TORSDOF 5
ENDMDL
MODEL 5
REMARK VINA RESULT:      -7.4      1.710      2.249
REMARK  Name = 
REMARK  5 active torsions:
REMARK  status: ('A' for Active; 'I' for Inactive)
REMARK    1  A    between atoms: C_7  and  C_8
REMARK    2  A    between atoms: C_24  and  C_26
REMARK    3  A    between atoms: C_26  and  C_29
REMARK    4  A    between atoms: N_38  and  C_39
REMARK    5  A    between atoms: C_48  and  N_49
REMARK                            x       y       z     vdW  Elec       q    Type
REMARK                         _______ _______ _______ _____ _____    ______ ____
ROOT
ATOM      1  C   UNL     1       8.246   3.485  22.913  0.00  0.00    +0.000 C 
ATOM      2  C   UNL     1       7.543   3.885  24.044  0.00  0.00    +0.000 A 
ATOM      3  C   UNL     1       6.330   4.727  23.843  0.00  0.00    +0.000 A 
ATOM      4  C   UNL     1       5.349   5.022  24.905  0.00  0.00    +0.000 A 
ATOM      5  C   UNL     1       5.677   4.078  26.048  0.00  0.00    +0.000 A 
ATOM      6  C   UNL     1       6.659   3.109  26.340  0.00  0.00    +0.000 A 
ATOM      7  C   UNL     1       7.210   2.611  24.879  0.00  0.00    +0.000 A 
ATOM      8  C   UNL     1       6.747   1.326  24.505  0.00  0.00    +0.000 C 
ATOM      9  N   UNL     1       7.380   1.129  23.363  0.00  0.00    +0.000 N 
ATOM     10  C   UNL     1       7.081   0.046  22.640  0.00  0.00    +0.000 C 
ATOM     11  O   UNL     1       7.977  -0.624  22.013  0.00  0.00    +0.000 OA
ATOM     12  C   UNL     1       8.137   2.009  22.719  0.00  0.00    +0.000 C 
ENDROOT
BRANCH   1  16
ATOM     13  C   UNL     1      12.177   5.056  23.520  0.00  0.00    +0.000 A 
ATOM     14  C   UNL     1      11.843   3.578  23.278  0.00  0.00    +0.000 A 
ATOM     15  C   UNL     1      10.579   2.896  23.454  0.00  0.00    +0.000 A 
ATOM     16  C   UNL     1       9.442   3.995  23.582  0.00  0.00    +0.000 A 
ATOM     17  C   UNL     1       9.564   5.357  24.041  0.00  0.00    +0.000 A 
ATOM     18  C   UNL     1      10.946   5.858  23.566  0.00  0.00    +0.000 A 
ENDBRANCH   1  16
BRANCH  10  19
ATOM     19  C   UNL     1       6.447  -0.976  23.692  0.00  0.00    +0.000 C 
BRANCH  19  20
ATOM     20  C   UNL     1       7.232  -2.060  24.241  0.00  0.00    +0.000 C 
ATOM     21  O   UNL     1       7.390  -1.994  25.524  0.00  0.00    +0.000 OA
ATOM     22  N   UNL     1       7.836  -3.115  23.626  0.00  0.00    +0.000 N 
ATOM     23  C   UNL     1       9.060  -3.678  24.238  0.00  0.00    +0.000 C 
ATOM     24  C   UNL     1       8.742  -5.093  24.739  0.00  0.00    +0.000 C 
ATOM     25  N   UNL     1       7.456  -5.510  24.176  0.00  0.00    +0.000 N 
ATOM     26  C   UNL     1       7.344  -5.351  22.712  0.00  0.00    +0.000 C 
ATOM     27  C   UNL     1       7.394  -3.827  22.451  0.00  0.00    +0.000 C 
BRANCH  25  28
ATOM     28  C   UNL     1       6.300  -5.169  24.819  0.00  0.00    +0.000 A 
ATOM     29  C   UNL     1       5.307  -5.670  23.771  0.00  0.00    +0.000 A 
ATOM     30  C   UNL     1       4.155  -6.586  23.999  0.00  0.00    +0.000 A 
ATOM     31  C   UNL     1       4.230  -6.957  25.437  0.00  0.00    +0.000 A 
ATOM     32  C   UNL     1       5.008  -6.701  26.592  0.00  0.00    +0.000 A 
ATOM     33  C   UNL     1       5.989  -5.580  26.153  0.00  0.00    +0.000 A 
BRANCH  33  34
ATOM     34  N   UNL     1       5.583  -4.525  26.926  0.00  0.00    +0.000 N 
ATOM     35  O   UNL     1       6.485  -4.164  27.540  0.00  0.00    +0.000 OA
ATOM     36  O   UNL     1       4.857  -3.749  26.311  0.00  0.00    +0.000 OA
ENDBRANCH  33  34
ENDBRANCH  25  28
ENDBRANCH  19  20
ENDBRANCH  10  19
TORSDOF 5
ENDMDL
MODEL 6
REMARK VINA RESULT:      -7.4      2.094      4.136
REMARK  Name = 
REMARK  5 active torsions:
REMARK  status: ('A' for Active; 'I' for Inactive)
REMARK    1  A    between atoms: C_7  and  C_8
REMARK    2  A    between atoms: C_24  and  C_26
REMARK    3  A    between atoms: C_26  and  C_29
REMARK    4  A    between atoms: N_38  and  C_39
REMARK    5  A    between atoms: C_48  and  N_49
REMARK                            x       y       z     vdW  Elec       q    Type
REMARK                         _______ _______ _______ _____ _____    ______ ____
ROOT
ATOM      1  C   UNL     1       9.247   1.398  24.713  0.00  0.00    +0.000 C 
ATOM      2  C   UNL     1       9.041   0.921  23.423  0.00  0.00    +0.000 A 
ATOM      3  C   UNL     1       9.857  -0.243  22.977  0.00  0.00    +0.000 A 
ATOM      4  C   UNL     1       9.588  -1.012  21.747  0.00  0.00    +0.000 A 
ATOM      5  C   UNL     1       8.215  -0.571  21.272  0.00  0.00    +0.000 A 
ATOM      6  C   UNL     1       7.241   0.371  21.659  0.00  0.00    +0.000 A 
ATOM      7  C   UNL     1       7.517   0.637  23.253  0.00  0.00    +0.000 A 
ATOM      8  C   UNL     1       6.566   0.026  24.105  0.00  0.00    +0.000 C 
ATOM      9  N   UNL     1       6.953   0.447  25.295  0.00  0.00    +0.000 N 
ATOM     10  C   UNL     1       6.349  -0.045  26.380  0.00  0.00    +0.000 C 
ATOM     11  O   UNL     1       6.079   0.684  27.399  0.00  0.00    +0.000 OA
ATOM     12  C   UNL     1       8.046   1.151  25.565  0.00  0.00    +0.000 C 
ENDROOT
BRANCH   1  16
ATOM     13  C   UNL     1      10.230   5.531  24.219  0.00  0.00    +0.000 A 
ATOM     14  C   UNL     1       8.981   4.998  24.935  0.00  0.00    +0.000 A 
ATOM     15  C   UNL     1       8.359   3.696  24.820  0.00  0.00    +0.000 A 
ATOM     16  C   UNL     1       9.389   2.722  24.109  0.00  0.00    +0.000 A 
ATOM     17  C   UNL     1      10.459   3.060  23.203  0.00  0.00    +0.000 A 
ATOM     18  C   UNL     1      11.023   4.418  23.677  0.00  0.00    +0.000 A 
ENDBRANCH   1  16
BRANCH  10  19
ATOM     19  C   UNL     1       4.938  -0.572  25.849  0.00  0.00    +0.000 C 
BRANCH  19  20
ATOM     20  C   UNL     1       4.699  -1.985  25.646  0.00  0.00    +0.000 C 
ATOM     21  O   UNL     1       4.548  -2.316  24.404  0.00  0.00    +0.000 OA
ATOM     22  N   UNL     1       4.595  -3.002  26.545  0.00  0.00    +0.000 N 
ATOM     23  C   UNL     1       3.738  -4.158  26.200  0.00  0.00    +0.000 C 
ATOM     24  C   UNL     1       4.637  -5.388  26.018  0.00  0.00    +0.000 C 
ATOM     25  N   UNL     1       5.969  -5.074  26.539  0.00  0.00    +0.000 N 
ATOM     26  C   UNL     1       5.980  -4.519  27.908  0.00  0.00    +0.000 C 
ATOM     27  C   UNL     1       5.280  -3.143  27.807  0.00  0.00    +0.000 C 
BRANCH  25  28
ATOM     28  C   UNL     1       6.879  -4.457  25.727  0.00  0.00    +0.000 A 
ATOM     29  C   UNL     1       8.044  -4.386  26.714  0.00  0.00    +0.000 A 
ATOM     30  C   UNL     1       9.438  -4.855  26.483  0.00  0.00    +0.000 A 
ATOM     31  C   UNL     1       9.425  -5.465  25.128  0.00  0.00    +0.000 A 
ATOM     32  C   UNL     1       8.545  -5.703  24.044  0.00  0.00    +0.000 A 
ATOM     33  C   UNL     1       7.245  -4.949  24.436  0.00  0.00    +0.000 A 
BRANCH  33  34
ATOM     34  N   UNL     1       7.187  -3.965  23.485  0.00  0.00    +0.000 N 
ATOM     35  O   UNL     1       7.711  -3.031  23.903  0.00  0.00    +0.000 OA
ATOM     36  O   UNL     1       7.416  -4.393  22.357  0.00  0.00    +0.000 OA
ENDBRANCH  33  34
ENDBRANCH  25  28
ENDBRANCH  19  20
ENDBRANCH  10  19
TORSDOF 5
ENDMDL
MODEL 7
REMARK VINA RESULT:      -7.3      2.522      8.492
REMARK  Name = 
REMARK  5 active torsions:
REMARK  status: ('A' for Active; 'I' for Inactive)
REMARK    1  A    between atoms: C_7  and  C_8
REMARK    2  A    between atoms: C_24  and  C_26
REMARK    3  A    between atoms: C_26  and  C_29
REMARK    4  A    between atoms: N_38  and  C_39
REMARK    5  A    between atoms: C_48  and  N_49
REMARK                            x       y       z     vdW  Elec       q    Type
REMARK                         _______ _______ _______ _____ _____    ______ ____
ROOT
ATOM      1  C   UNL     1       4.627  -4.516  24.661  0.00  0.00    +0.000 C 
ATOM      2  C   UNL     1       5.907  -4.994  24.920  0.00  0.00    +0.000 A 
ATOM      3  C   UNL     1       6.861  -5.075  23.778  0.00  0.00    +0.000 A 
ATOM      4  C   UNL     1       8.307  -5.321  23.930  0.00  0.00    +0.000 A 
ATOM      5  C   UNL     1       8.603  -5.158  25.410  0.00  0.00    +0.000 A 
ATOM      6  C   UNL     1       7.872  -4.912  26.590  0.00  0.00    +0.000 A 
ATOM      7  C   UNL     1       6.505  -4.157  26.092  0.00  0.00    +0.000 A 
ATOM      8  C   UNL     1       6.489  -2.769  26.370  0.00  0.00    +0.000 C 
ATOM      9  N   UNL     1       5.284  -2.421  25.957  0.00  0.00    +0.000 N 
ATOM     10  C   UNL     1       4.956  -1.126  25.946  0.00  0.00    +0.000 C 
ATOM     11  O   UNL     1       3.788  -0.715  26.276  0.00  0.00    +0.000 OA
ATOM     12  C   UNL     1       4.412  -3.198  25.327  0.00  0.00    +0.000 C 
ENDROOT
BRANCH   1  16
ATOM     13  C   UNL     1       1.998  -7.608  26.010  0.00  0.00    +0.000 A 
ATOM     14  C   UNL     1       2.088  -6.198  26.612  0.00  0.00    +0.000 A 
ATOM     15  C   UNL     1       3.169  -5.241  26.513  0.00  0.00    +0.000 A 
ATOM     16  C   UNL     1       4.136  -5.711  25.347  0.00  0.00    +0.000 A 
ATOM     17  C   UNL     1       4.346  -7.046  24.845  0.00  0.00    +0.000 A 
ATOM     18  C   UNL     1       2.984  -7.768  24.931  0.00  0.00    +0.000 A 
ENDBRANCH   1  16
BRANCH  10  19
ATOM     19  C   UNL     1       5.954  -0.451  26.996  0.00  0.00    +0.000 C 
BRANCH  19  20
ATOM     20  C   UNL     1       6.843   0.618  26.595  0.00  0.00    +0.000 C 
ATOM     21  O   UNL     1       8.075   0.434  26.946  0.00  0.00    +0.000 OA
ATOM     22  N   UNL     1       6.587   1.779  25.930  0.00  0.00    +0.000 N 
ATOM     23  C   UNL     1       7.448   2.951  26.206  0.00  0.00    +0.000 C 
ATOM     24  C   UNL     1       8.259   3.261  24.941  0.00  0.00    +0.000 C 
ATOM     25  N   UNL     1       7.691   2.504  23.824  0.00  0.00    +0.000 N 
ATOM     26  C   UNL     1       6.232   2.659  23.655  0.00  0.00    +0.000 C 
ATOM     27  C   UNL     1       5.595   2.015  24.909  0.00  0.00    +0.000 C 
BRANCH  25  28
ATOM     28  C   UNL     1       8.100   1.219  23.607  0.00  0.00    +0.000 A 
ATOM     29  C   UNL     1       7.126   0.863  22.485  0.00  0.00    +0.000 A 
ATOM     30  C   UNL     1       7.469   0.290  21.154  0.00  0.00    +0.000 A 
ATOM     31  C   UNL     1       8.954   0.212  21.133  0.00  0.00    +0.000 A 
ATOM     32  C   UNL     1      10.074   0.483  21.957  0.00  0.00    +0.000 A 
ATOM     33  C   UNL     1       9.456   0.859  23.331  0.00  0.00    +0.000 A 
BRANCH  33  34
ATOM     34  N   UNL     1       9.878  -0.173  24.126  0.00  0.00    +0.000 N 
ATOM     35  O   UNL     1      10.537   0.265  24.961  0.00  0.00    +0.000 OA
ATOM     36  O   UNL     1       8.982  -0.980  24.357  0.00  0.00    +0.000 OA
ENDBRANCH  33  34
ENDBRANCH  25  28
ENDBRANCH  19  20
ENDBRANCH  10  19
TORSDOF 5
ENDMDL
MODEL 8
REMARK VINA RESULT:      -7.3      1.949      3.344
REMARK  Name = 
REMARK  5 active torsions:
REMARK  status: ('A' for Active; 'I' for Inactive)
REMARK    1  A    between atoms: C_7  and  C_8
REMARK    2  A    between atoms: C_24  and  C_26
REMARK    3  A    between atoms: C_26  and  C_29
REMARK    4  A    between atoms: N_38  and  C_39
REMARK    5  A    between atoms: C_48  and  N_49
REMARK                            x       y       z     vdW  Elec       q    Type
REMARK                         _______ _______ _______ _____ _____    ______ ____
ROOT
ATOM      1  C   UNL     1       7.465   2.024  24.992  0.00  0.00    +0.000 C 
ATOM      2  C   UNL     1       8.365   1.965  23.934  0.00  0.00    +0.000 A 
ATOM      3  C   UNL     1       9.802   1.737  24.259  0.00  0.00    +0.000 A 
ATOM      4  C   UNL     1      10.830   1.406  23.254  0.00  0.00    +0.000 A 
ATOM      5  C   UNL     1      10.074   1.065  21.982  0.00  0.00    +0.000 A 
ATOM      6  C   UNL     1       8.732   1.053  21.549  0.00  0.00    +0.000 A 
ATOM      7  C   UNL     1       7.845   0.902  22.918  0.00  0.00    +0.000 A 
ATOM      8  C   UNL     1       7.290  -0.388  23.097  0.00  0.00    +0.000 C 
ATOM      9  N   UNL     1       6.576  -0.230  24.196  0.00  0.00    +0.000 N 
ATOM     10  C   UNL     1       6.000  -1.300  24.749  0.00  0.00    +0.000 C 
ATOM     11  O   UNL     1       4.829  -1.252  25.269  0.00  0.00    +0.000 OA
ATOM     12  C   UNL     1       6.540   0.853  24.963  0.00  0.00    +0.000 C 
ENDROOT
BRANCH   1  16
ATOM     13  C   UNL     1       7.127   5.387  22.371  0.00  0.00    +0.000 A 
ATOM     14  C   UNL     1       8.143   5.256  23.515  0.00  0.00    +0.000 A 
ATOM     15  C   UNL     1       8.093   4.387  24.672  0.00  0.00    +0.000 A 
ATOM     16  C   UNL     1       6.992   3.277  24.406  0.00  0.00    +0.000 A 
ATOM     17  C   UNL     1       5.834   3.355  23.549  0.00  0.00    +0.000 A 
ATOM     18  C   UNL     1       6.245   4.211  22.331  0.00  0.00    +0.000 A 
ENDBRANCH   1  16
BRANCH  10  19
ATOM     19  C   UNL     1       5.892  -2.358  23.557  0.00  0.00    +0.000 C 
BRANCH  19  20
ATOM     20  C   UNL     1       5.836  -3.779  23.827  0.00  0.00    +0.000 C 
ATOM     21  O   UNL     1       6.998  -4.331  23.965  0.00  0.00    +0.000 OA
ATOM     22  N   UNL     1       4.767  -4.616  23.941  0.00  0.00    +0.000 N 
ATOM     23  C   UNL     1       4.946  -6.037  23.567  0.00  0.00    +0.000 C 
ATOM     24  C   UNL     1       4.819  -6.889  24.837  0.00  0.00    +0.000 C 
ATOM     25  N   UNL     1       4.269  -6.054  25.907  0.00  0.00    +0.000 N 
ATOM     26  C   UNL     1       3.036  -5.325  25.546  0.00  0.00    +0.000 C 
ATOM     27  C   UNL     1       3.453  -4.312  24.454  0.00  0.00    +0.000 C 
BRANCH  25  28
ATOM     28  C   UNL     1       5.113  -5.293  26.665  0.00  0.00    +0.000 A 
ATOM     29  C   UNL     1       4.064  -4.587  27.524  0.00  0.00    +0.000 A 
ATOM     30  C   UNL     1       4.035  -4.505  29.010  0.00  0.00    +0.000 A 
ATOM     31  C   UNL     1       5.196  -5.314  29.468  0.00  0.00    +0.000 A 
ATOM     32  C   UNL     1       6.270  -6.076  28.948  0.00  0.00    +0.000 A 
ATOM     33  C   UNL     1       6.203  -5.834  27.415  0.00  0.00    +0.000 A 
BRANCH  33  34
ATOM     34  N   UNL     1       7.366  -5.149  27.183  0.00  0.00    +0.000 N 
ATOM     35  O   UNL     1       8.005  -5.766  26.454  0.00  0.00    +0.000 OA
ATOM     36  O   UNL     1       7.176  -3.946  27.027  0.00  0.00    +0.000 OA
ENDBRANCH  33  34
ENDBRANCH  25  28
ENDBRANCH  19  20
ENDBRANCH  10  19
TORSDOF 5
ENDMDL
MODEL 9
REMARK VINA RESULT:      -7.2      2.654      8.740
REMARK  Name = 
REMARK  5 active torsions:
REMARK  status: ('A' for Active; 'I' for Inactive)
REMARK    1  A    between atoms: C_7  and  C_8
REMARK    2  A    between atoms: C_24  and  C_26
REMARK    3  A    between atoms: C_26  and  C_29
REMARK    4  A    between atoms: N_38  and  C_39
REMARK    5  A    between atoms: C_48  and  N_49
REMARK                            x       y       z     vdW  Elec       q    Type
REMARK                         _______ _______ _______ _____ _____    ______ ____
ROOT
ATOM      1  C   UNL     1       5.148  -6.448  25.277  0.00  0.00    +0.000 C 
ATOM      2  C   UNL     1       4.773  -5.886  26.492  0.00  0.00    +0.000 A 
ATOM      3  C   UNL     1       5.394  -6.437  27.730  0.00  0.00    +0.000 A 
ATOM      4  C   UNL     1       5.293  -5.798  29.055  0.00  0.00    +0.000 A 
ATOM      5  C   UNL     1       4.735  -4.408  28.805  0.00  0.00    +0.000 A 
ATOM      6  C   UNL     1       4.266  -3.665  27.702  0.00  0.00    +0.000 A 
ATOM      7  C   UNL     1       4.986  -4.345  26.396  0.00  0.00    +0.000 A 
ATOM      8  C   UNL     1       6.037  -3.564  25.856  0.00  0.00    +0.000 C 
ATOM      9  N   UNL     1       6.387  -4.271  24.797  0.00  0.00    +0.000 N 
ATOM     10  C   UNL     1       7.461  -3.895  24.099  0.00  0.00    +0.000 C 
ATOM     11  O   UNL     1       7.500  -3.960  22.819  0.00  0.00    +0.000 OA
ATOM     12  C   UNL     1       5.922  -5.467  24.459  0.00  0.00    +0.000 C 
ENDROOT
BRANCH   1  16
ATOM     13  C   UNL     1       1.490  -7.683  23.437  0.00  0.00    +0.000 A 
ATOM     14  C   UNL     1       2.402  -6.559  22.925  0.00  0.00    +0.000 A 
ATOM     15  C   UNL     1       3.408  -5.812  23.649  0.00  0.00    +0.000 A 
ATOM     16  C   UNL     1       3.719  -6.586  24.998  0.00  0.00    +0.000 A 
ATOM     17  C   UNL     1       2.859  -7.480  25.733  0.00  0.00    +0.000 A 
ATOM     18  C   UNL     1       2.024  -8.248  24.685  0.00  0.00    +0.000 A 
ENDBRANCH   1  16
BRANCH  10  19
ATOM     19  C   UNL     1       7.647  -2.348  24.451  0.00  0.00    +0.000 C 
BRANCH  19  20
ATOM     20  C   UNL     1       7.272  -1.320  23.504  0.00  0.00    +0.000 C 
ATOM     21  O   UNL     1       6.256  -0.611  23.877  0.00  0.00    +0.000 OA
ATOM     22  N   UNL     1       7.803  -0.998  22.291  0.00  0.00    +0.000 N 
ATOM     23  C   UNL     1       6.910  -0.411  21.267  0.00  0.00    +0.000 C 
ATOM     24  C   UNL     1       7.344   1.040  21.024  0.00  0.00    +0.000 C 
ATOM     25  N   UNL     1       8.654   1.247  21.644  0.00  0.00    +0.000 N 
ATOM     26  C   UNL     1       9.674   0.245  21.276  0.00  0.00    +0.000 C 
ATOM     27  C   UNL     1       9.181  -1.094  21.873  0.00  0.00    +0.000 C 
BRANCH  25  28
ATOM     28  C   UNL     1       8.724   1.590  22.965  0.00  0.00    +0.000 A 
ATOM     29  C   UNL     1      10.212   1.931  23.027  0.00  0.00    +0.000 A 
ATOM     30  C   UNL     1      10.820   3.184  23.551  0.00  0.00    +0.000 A 
ATOM     31  C   UNL     1       9.670   4.049  23.926  0.00  0.00    +0.000 A 
ATOM     32  C   UNL     1       8.254   4.032  23.954  0.00  0.00    +0.000 A 
ATOM     33  C   UNL     1       7.881   2.574  23.570  0.00  0.00    +0.000 A 
BRANCH  33  34
ATOM     34  N   UNL     1       7.310   2.111  24.725  0.00  0.00    +0.000 N 
ATOM     35  O   UNL     1       8.128   1.594  25.346  0.00  0.00    +0.000 OA
ATOM     36  O   UNL     1       6.531   2.922  25.218  0.00  0.00    +0.000 OA
ENDBRANCH  33  34
ENDBRANCH  25  28
ENDBRANCH  19  20
ENDBRANCH  10  19
TORSDOF 5
ENDMDL
