MODEL 1
REMARK VINA RESULT:      -9.0      0.000      0.000
REMARK  Name = 
REMARK  8 active torsions:
REMARK  status: ('A' for Active; 'I' for Inactive)
REMARK    1  A    between atoms: C_11  and  N_13
REMARK    2  A    between atoms: N_13  and  C_40
REMARK    3  A    between atoms: C_14  and  C_16
REMARK    4  A    between atoms: C_16  and  C_19
REMARK    5  A    between atoms: C_19  and  C_21
REMARK    6  A    between atoms: C_28  and  N_29
REMARK    7  A    between atoms: N_29  and  S_31
REMARK    8  A    between atoms: S_31  and  C_34
REMARK                            x       y       z     vdW  Elec       q    Type
REMARK                         _______ _______ _______ _____ _____    ______ ____
ROOT
ATOM      1  N   UNL     1       7.596  -3.940  24.941  0.00  0.00    +0.000 N 
ATOM      2  C   UNL     1       8.276  -3.131  24.189  0.00  0.00    +0.000 C 
ATOM      3  O   UNL     1       9.517  -3.528  24.042  0.00  0.00    +0.000 OA
ENDROOT
BRANCH   1  10
ATOM      4  C   UNL     1       6.383  -3.392  26.992  0.00  0.00    +0.000 C 
ATOM      5  C   UNL     1       5.523  -4.105  27.858  0.00  0.00    +0.000 C 
ATOM      6  S   UNL     1       6.306  -5.785  27.849  0.00  0.00    +0.000 S 
ATOM      7  O   UNL     1       5.512  -6.612  27.045  0.00  0.00    +0.000 OA
ATOM      8  O   UNL     1       6.650  -6.142  29.155  0.00  0.00    +0.000 OA
ATOM      9  C   UNL     1       7.839  -5.421  26.919  0.00  0.00    +0.000 C 
ATOM     10  C   UNL     1       7.646  -4.020  26.381  0.00  0.00    +0.000 C 
ENDBRANCH   1  10
BRANCH   1  11
ATOM     11  C   UNL     1       7.042  -5.014  24.275  0.00  0.00    +0.000 A 
ATOM     12  C   UNL     1       5.627  -4.541  24.114  0.00  0.00    +0.000 A 
ATOM     13  C   UNL     1       4.970  -4.210  22.831  0.00  0.00    +0.000 A 
ATOM     14  C   UNL     1       5.797  -4.601  21.630  0.00  0.00    +0.000 A 
ATOM     15  F   UNL     1       5.952  -3.364  20.943  0.00  0.00    +0.000 F 
ATOM     16  C   UNL     1       7.071  -5.357  21.653  0.00  0.00    +0.000 A 
ATOM     17  C   UNL     1       7.603  -5.643  23.079  0.00  0.00    +0.000 A 
ENDBRANCH   1  11
BRANCH   2  18
ATOM     18  C   UNL     1       8.143  -1.688  24.048  0.00  0.00    +0.000 C 
BRANCH  18  19
ATOM     19  C   UNL     1       9.215  -0.789  23.641  0.00  0.00    +0.000 C 
ATOM     20  O   UNL     1      10.072  -0.538  24.505  0.00  0.00    +0.000 OA
BRANCH  19  21
ATOM     21  C   UNL     1       9.558  -0.596  22.272  0.00  0.00    +0.000 A 
ATOM     22  C   UNL     1       9.912   0.891  22.333  0.00  0.00    +0.000 A 
ATOM     23  C   UNL     1       9.144   2.041  21.762  0.00  0.00    +0.000 A 
ATOM     24  C   UNL     1       8.032   1.432  20.993  0.00  0.00    +0.000 A 
ATOM     25  C   UNL     1       7.646   0.176  20.520  0.00  0.00    +0.000 A 
ATOM     26  C   UNL     1       8.584  -0.829  21.171  0.00  0.00    +0.000 A 
BRANCH  25  27
ATOM     27  N   UNL     1       7.833   0.280  19.137  0.00  0.00    +0.000 N 
ATOM     28  H   UNL     1       8.204  -0.614  18.895  0.00  0.00    +0.000 HD
BRANCH  27  29
ATOM     29  S   UNL     1       6.454   0.400  18.345  0.00  0.00    +0.000 S 
ATOM     30  O   UNL     1       6.460   1.337  17.277  0.00  0.00    +0.000 OA
ATOM     31  O   UNL     1       6.110  -0.968  17.919  0.00  0.00    +0.000 OA
ATOM     32  C   UNL     1       5.127   0.873  19.458  0.00  0.00    +0.000 C 
ENDBRANCH  27  29
ENDBRANCH  25  27
ENDBRANCH  19  21
ENDBRANCH  18  19
ENDBRANCH   2  18
TORSDOF 7
ENDMDL
MODEL 2
REMARK VINA RESULT:      -9.0      2.326      2.824
REMARK  Name = 
REMARK  8 active torsions:
REMARK  status: ('A' for Active; 'I' for Inactive)
REMARK    1  A    between atoms: C_11  and  N_13
REMARK    2  A    between atoms: N_13  and  C_40
REMARK    3  A    between atoms: C_14  and  C_16
REMARK    4  A    between atoms: C_16  and  C_19
REMARK    5  A    between atoms: C_19  and  C_21
REMARK    6  A    between atoms: C_28  and  N_29
REMARK    7  A    between atoms: N_29  and  S_31
REMARK    8  A    between atoms: S_31  and  C_34
REMARK                            x       y       z     vdW  Elec       q    Type
REMARK                         _______ _______ _______ _____ _____    ______ ____
ROOT
ATOM      1  N   UNL     1       7.511  -2.226  24.666  0.00  0.00    +0.000 N 
ATOM      2  C   UNL     1       8.608  -2.826  24.319  0.00  0.00    +0.000 C 
ATOM      3  O   UNL     1       9.032  -3.644  25.253  0.00  0.00    +0.000 OA
ENDROOT
BRANCH   1  10
ATOM      4  C   UNL     1       6.955   0.151  24.808  0.00  0.00    +0.000 C 
ATOM      5  C   UNL     1       5.794   0.881  25.149  0.00  0.00    +0.000 C 
ATOM      6  S   UNL     1       5.096  -0.160  26.514  0.00  0.00    +0.000 S 
ATOM      7  O   UNL     1       4.004  -0.862  25.989  0.00  0.00    +0.000 OA
ATOM      8  O   UNL     1       4.982   0.613  27.673  0.00  0.00    +0.000 OA
ATOM      9  C   UNL     1       6.463  -1.355  26.741  0.00  0.00    +0.000 C 
ATOM     10  C   UNL     1       7.393  -1.110  25.573  0.00  0.00    +0.000 C 
ENDBRANCH   1  10
BRANCH   1  11
ATOM     11  C   UNL     1       6.359  -2.934  24.393  0.00  0.00    +0.000 A 
ATOM     12  C   UNL     1       6.113  -2.526  22.969  0.00  0.00    +0.000 A 
ATOM     13  C   UNL     1       6.190  -3.419  21.793  0.00  0.00    +0.000 A 
ATOM     14  C   UNL     1       6.335  -4.874  22.167  0.00  0.00    +0.000 A 
ATOM     15  F   UNL     1       7.546  -5.244  21.518  0.00  0.00    +0.000 F 
ATOM     16  C   UNL     1       6.277  -5.436  23.538  0.00  0.00    +0.000 A 
ATOM     17  C   UNL     1       6.168  -4.362  24.649  0.00  0.00    +0.000 A 
ENDBRANCH   1  11
BRANCH   2  18
ATOM     18  C   UNL     1       9.697  -2.329  23.491  0.00  0.00    +0.000 C 
BRANCH  18  19
ATOM     19  C   UNL     1       9.940  -0.923  23.191  0.00  0.00    +0.000 C 
ATOM     20  O   UNL     1      10.556  -0.281  24.058  0.00  0.00    +0.000 OA
BRANCH  19  21
ATOM     21  C   UNL     1       9.933  -0.427  21.856  0.00  0.00    +0.000 A 
ATOM     22  C   UNL     1      10.004   1.069  22.171  0.00  0.00    +0.000 A 
ATOM     23  C   UNL     1       8.926   2.093  22.003  0.00  0.00    +0.000 A 
ATOM     24  C   UNL     1       7.809   1.387  21.329  0.00  0.00    +0.000 A 
ATOM     25  C   UNL     1       7.575   0.175  20.674  0.00  0.00    +0.000 A 
ATOM     26  C   UNL     1       8.805  -0.684  20.921  0.00  0.00    +0.000 A 
BRANCH  25  27
ATOM     27  N   UNL     1       7.433   0.554  19.335  0.00  0.00    +0.000 N 
ATOM     28  H   UNL     1       8.089  -0.035  18.867  0.00  0.00    +0.000 HD
BRANCH  27  29
ATOM     29  S   UNL     1       6.006   0.163  18.741  0.00  0.00    +0.000 S 
ATOM     30  O   UNL     1       5.990  -0.082  17.342  0.00  0.00    +0.000 OA
ATOM     31  O   UNL     1       5.535  -0.983  19.540  0.00  0.00    +0.000 OA
ATOM     32  C   UNL     1       4.810   1.462  19.066  0.00  0.00    +0.000 C 
ENDBRANCH  27  29
ENDBRANCH  25  27
ENDBRANCH  19  21
ENDBRANCH  18  19
ENDBRANCH   2  18
TORSDOF 7
ENDMDL
MODEL 3
REMARK VINA RESULT:      -8.2      2.803      7.148
REMARK  Name = 
REMARK  8 active torsions:
REMARK  status: ('A' for Active; 'I' for Inactive)
REMARK    1  A    between atoms: C_11  and  N_13
REMARK    2  A    between atoms: N_13  and  C_40
REMARK    3  A    between atoms: C_14  and  C_16
REMARK    4  A    between atoms: C_16  and  C_19
REMARK    5  A    between atoms: C_19  and  C_21
REMARK    6  A    between atoms: C_28  and  N_29
REMARK    7  A    between atoms: N_29  and  S_31
REMARK    8  A    between atoms: S_31  and  C_34
REMARK                            x       y       z     vdW  Elec       q    Type
REMARK                         _______ _______ _______ _____ _____    ______ ____
ROOT
ATOM      1  N   UNL     1       8.159   0.054  21.738  0.00  0.00    +0.000 N 
ATOM      2  C   UNL     1       9.200  -0.063  22.503  0.00  0.00    +0.000 C 
ATOM      3  O   UNL     1      10.236   0.579  22.018  0.00  0.00    +0.000 OA
ENDROOT
BRANCH   1  10
ATOM      4  C   UNL     1       6.726  -1.622  20.682  0.00  0.00    +0.000 C 
ATOM      5  C   UNL     1       5.580  -1.571  19.857  0.00  0.00    +0.000 C 
ATOM      6  S   UNL     1       5.955  -0.098  18.798  0.00  0.00    +0.000 S 
ATOM      7  O   UNL     1       5.167   0.963  19.261  0.00  0.00    +0.000 OA
ATOM      8  O   UNL     1       5.954  -0.481  17.455  0.00  0.00    +0.000 OA
ATOM      9  C   UNL     1       7.681   0.234  19.308  0.00  0.00    +0.000 C 
ATOM     10  C   UNL     1       7.912  -0.658  20.508  0.00  0.00    +0.000 C 
ENDBRANCH   1  10
BRANCH   1  11
ATOM     11  C   UNL     1       7.405   1.188  21.965  0.00  0.00    +0.000 A 
ATOM     12  C   UNL     1       6.723   0.815  23.249  0.00  0.00    +0.000 A 
ATOM     13  C   UNL     1       6.944   1.461  24.560  0.00  0.00    +0.000 A 
ATOM     14  C   UNL     1       7.785   2.712  24.466  0.00  0.00    +0.000 A 
ATOM     15  F   UNL     1       8.877   2.420  25.331  0.00  0.00    +0.000 F 
ATOM     16  C   UNL     1       8.258   3.356  23.218  0.00  0.00    +0.000 A 
ATOM     17  C   UNL     1       7.916   2.558  21.934  0.00  0.00    +0.000 A 
ENDBRANCH   1  11
BRANCH   2  18
ATOM     18  C   UNL     1       9.595  -1.187  23.340  0.00  0.00    +0.000 C 
BRANCH  18  19
ATOM     19  C   UNL     1       9.273  -1.325  24.755  0.00  0.00    +0.000 C 
ATOM     20  O   UNL     1       9.704  -0.429  25.500  0.00  0.00    +0.000 OA
BRANCH  19  21
ATOM     21  C   UNL     1       8.171  -2.108  25.204  0.00  0.00    +0.000 A 
ATOM     22  C   UNL     1       8.946  -3.140  26.026  0.00  0.00    +0.000 A 
ATOM     23  C   UNL     1       9.172  -4.584  25.707  0.00  0.00    +0.000 A 
ATOM     24  C   UNL     1       8.364  -4.854  24.493  0.00  0.00    +0.000 A 
ATOM     25  C   UNL     1       7.367  -4.234  23.736  0.00  0.00    +0.000 A 
ATOM     26  C   UNL     1       7.261  -2.810  24.259  0.00  0.00    +0.000 A 
BRANCH  25  27
ATOM     27  N   UNL     1       6.230  -5.002  24.009  0.00  0.00    +0.000 N 
ATOM     28  H   UNL     1       5.699  -4.407  24.609  0.00  0.00    +0.000 HD
BRANCH  27  29
ATOM     29  S   UNL     1       5.324  -5.227  22.716  0.00  0.00    +0.000 S 
ATOM     30  O   UNL     1       4.288  -6.186  22.874  0.00  0.00    +0.000 OA
ATOM     31  O   UNL     1       4.829  -3.893  22.330  0.00  0.00    +0.000 OA
ATOM     32  C   UNL     1       6.329  -5.755  21.326  0.00  0.00    +0.000 C 
ENDBRANCH  27  29
ENDBRANCH  25  27
ENDBRANCH  19  21
ENDBRANCH  18  19
ENDBRANCH   2  18
TORSDOF 7
ENDMDL
MODEL 4
REMARK VINA RESULT:      -8.0      2.120      8.259
REMARK  Name = 
REMARK  8 active torsions:
REMARK  status: ('A' for Active; 'I' for Inactive)
REMARK    1  A    between atoms: C_11  and  N_13
REMARK    2  A    between atoms: N_13  and  C_40
REMARK    3  A    between atoms: C_14  and  C_16
REMARK    4  A    between atoms: C_16  and  C_19
REMARK    5  A    between atoms: C_19  and  C_21
REMARK    6  A    between atoms: C_28  and  N_29
REMARK    7  A    between atoms: N_29  and  S_31
REMARK    8  A    between atoms: S_31  and  C_34
REMARK                            x       y       z     vdW  Elec       q    Type
REMARK                         _______ _______ _______ _____ _____    ______ ____
ROOT
ATOM      1  N   UNL     1       8.456  -0.163  21.678  0.00  0.00    +0.000 N 
ATOM      2  C   UNL     1       8.942  -0.746  22.730  0.00  0.00    +0.000 C 
ATOM      3  O   UNL     1      10.195  -1.093  22.560  0.00  0.00    +0.000 OA
ENDROOT
BRANCH   1  10
ATOM      4  C   UNL     1       6.710  -1.577  20.712  0.00  0.00    +0.000 C 
ATOM      5  C   UNL     1       5.534  -1.333  19.966  0.00  0.00    +0.000 C 
ATOM      6  S   UNL     1       6.068   0.079  18.892  0.00  0.00    +0.000 S 
ATOM      7  O   UNL     1       5.490   1.244  19.413  0.00  0.00    +0.000 OA
ATOM      8  O   UNL     1       5.918  -0.278  17.550  0.00  0.00    +0.000 OA
ATOM      9  C   UNL     1       7.854   0.128  19.287  0.00  0.00    +0.000 C 
ATOM     10  C   UNL     1       8.019  -0.809  20.464  0.00  0.00    +0.000 C 
ENDBRANCH   1  10
BRANCH   1  11
ATOM     11  C   UNL     1       8.693   1.195  21.613  0.00  0.00    +0.000 A 
ATOM     12  C   UNL     1       7.471   1.723  22.307  0.00  0.00    +0.000 A 
ATOM     13  C   UNL     1       7.455   2.424  23.608  0.00  0.00    +0.000 A 
ATOM     14  C   UNL     1       8.838   2.768  24.107  0.00  0.00    +0.000 A 
ATOM     15  F   UNL     1       8.884   2.115  25.372  0.00  0.00    +0.000 F 
ATOM     16  C   UNL     1      10.108   2.577  23.368  0.00  0.00    +0.000 A 
ATOM     17  C   UNL     1       9.938   1.852  22.010  0.00  0.00    +0.000 A 
ENDBRANCH   1  11
BRANCH   2  18
ATOM     18  C   UNL     1       8.264  -1.599  23.696  0.00  0.00    +0.000 C 
BRANCH  18  19
ATOM     19  C   UNL     1       8.830  -2.030  24.968  0.00  0.00    +0.000 C 
ATOM     20  O   UNL     1       8.735  -1.222  25.907  0.00  0.00    +0.000 OA
BRANCH  19  21
ATOM     21  C   UNL     1       9.029  -3.406  25.276  0.00  0.00    +0.000 A 
ATOM     22  C   UNL     1       8.200  -4.014  24.143  0.00  0.00    +0.000 A 
ATOM     23  C   UNL     1       6.885  -4.719  24.245  0.00  0.00    +0.000 A 
ATOM     24  C   UNL     1       6.610  -4.838  25.698  0.00  0.00    +0.000 A 
ATOM     25  C   UNL     1       7.281  -4.668  26.911  0.00  0.00    +0.000 A 
ATOM     26  C   UNL     1       8.603  -3.997  26.574  0.00  0.00    +0.000 A 
BRANCH  25  27
ATOM     27  N   UNL     1       7.437  -5.977  27.380  0.00  0.00    +0.000 N 
ATOM     28  H   UNL     1       8.205  -5.896  28.011  0.00  0.00    +0.000 HD
BRANCH  27  29
ATOM     29  S   UNL     1       6.201  -6.456  28.266  0.00  0.00    +0.000 S 
ATOM     30  O   UNL     1       5.178  -7.131  27.547  0.00  0.00    +0.000 OA
ATOM     31  O   UNL     1       6.773  -7.260  29.361  0.00  0.00    +0.000 OA
ATOM     32  C   UNL     1       5.435  -5.055  29.089  0.00  0.00    +0.000 C 
ENDBRANCH  27  29
ENDBRANCH  25  27
ENDBRANCH  19  21
ENDBRANCH  18  19
ENDBRANCH   2  18
TORSDOF 7
ENDMDL
MODEL 5
REMARK VINA RESULT:      -8.0      2.882      7.330
REMARK  Name = 
REMARK  8 active torsions:
REMARK  status: ('A' for Active; 'I' for Inactive)
REMARK    1  A    between atoms: C_11  and  N_13
REMARK    2  A    between atoms: N_13  and  C_40
REMARK    3  A    between atoms: C_14  and  C_16
REMARK    4  A    between atoms: C_16  and  C_19
REMARK    5  A    between atoms: C_19  and  C_21
REMARK    6  A    between atoms: C_28  and  N_29
REMARK    7  A    between atoms: N_29  and  S_31
REMARK    8  A    between atoms: S_31  and  C_34
REMARK                            x       y       z     vdW  Elec       q    Type
REMARK                         _______ _______ _______ _____ _____    ______ ____
ROOT
ATOM      1  N   UNL     1       8.238   0.665  21.782  0.00  0.00    +0.000 N 
ATOM      2  C   UNL     1       9.340   0.919  22.417  0.00  0.00    +0.000 C 
ATOM      3  O   UNL     1      10.138   1.692  21.718  0.00  0.00    +0.000 OA
ENDROOT
BRANCH   1  10
ATOM      4  C   UNL     1       7.010  -1.332  21.088  0.00  0.00    +0.000 C 
ATOM      5  C   UNL     1       5.854  -1.567  20.309  0.00  0.00    +0.000 C 
ATOM      6  S   UNL     1       6.029  -0.272  18.995  0.00  0.00    +0.000 S 
ATOM      7  O   UNL     1       5.122   0.752  19.293  0.00  0.00    +0.000 OA
ATOM      8  O   UNL     1       6.057  -0.886  17.741  0.00  0.00    +0.000 OA
ATOM      9  C   UNL     1       7.707   0.350  19.377  0.00  0.00    +0.000 C 
ATOM     10  C   UNL     1       8.064  -0.280  20.705  0.00  0.00    +0.000 C 
ENDBRANCH   1  10
BRANCH   1  11
ATOM     11  C   UNL     1       7.251   1.617  21.942  0.00  0.00    +0.000 A 
ATOM     12  C   UNL     1       6.679   1.203  23.267  0.00  0.00    +0.000 A 
ATOM     13  C   UNL     1       6.760   1.983  24.521  0.00  0.00    +0.000 A 
ATOM     14  C   UNL     1       7.300   3.378  24.312  0.00  0.00    +0.000 A 
ATOM     15  F   UNL     1       8.435   3.405  25.170  0.00  0.00    +0.000 F 
ATOM     16  C   UNL     1       7.607   4.011  23.008  0.00  0.00    +0.000 A 
ATOM     17  C   UNL     1       7.443   3.060  21.797  0.00  0.00    +0.000 A 
ENDBRANCH   1  11
BRANCH   2  18
ATOM     18  C   UNL     1      10.074   0.071  23.345  0.00  0.00    +0.000 C 
BRANCH  18  19
ATOM     19  C   UNL     1       9.881  -1.367  23.490  0.00  0.00    +0.000 C 
ATOM     20  O   UNL     1      10.599  -2.086  22.775  0.00  0.00    +0.000 OA
BRANCH  19  21
ATOM     21  C   UNL     1       9.306  -1.935  24.662  0.00  0.00    +0.000 A 
ATOM     22  C   UNL     1       9.324  -3.403  24.235  0.00  0.00    +0.000 A 
ATOM     23  C   UNL     1       8.158  -4.268  23.875  0.00  0.00    +0.000 A 
ATOM     24  C   UNL     1       6.954  -3.448  24.156  0.00  0.00    +0.000 A 
ATOM     25  C   UNL     1       6.623  -2.256  24.805  0.00  0.00    +0.000 A 
ATOM     26  C   UNL     1       7.942  -1.572  25.131  0.00  0.00    +0.000 A 
BRANCH  25  27
ATOM     27  N   UNL     1       5.936  -2.688  25.944  0.00  0.00    +0.000 N 
ATOM     28  H   UNL     1       6.529  -2.390  26.688  0.00  0.00    +0.000 HD
BRANCH  27  29
ATOM     29  S   UNL     1       4.559  -1.911  26.154  0.00  0.00    +0.000 S 
ATOM     30  O   UNL     1       4.603  -0.527  25.835  0.00  0.00    +0.000 OA
ATOM     31  O   UNL     1       3.550  -2.656  25.381  0.00  0.00    +0.000 OA
ATOM     32  C   UNL     1       4.013  -2.046  27.859  0.00  0.00    +0.000 C 
ENDBRANCH  27  29
ENDBRANCH  25  27
ENDBRANCH  19  21
ENDBRANCH  18  19
ENDBRANCH   2  18
TORSDOF 7
ENDMDL
MODEL 6
REMARK VINA RESULT:      -7.9      2.791      3.985
REMARK  Name = 
REMARK  8 active torsions:
REMARK  status: ('A' for Active; 'I' for Inactive)
REMARK    1  A    between atoms: C_11  and  N_13
REMARK    2  A    between atoms: N_13  and  C_40
REMARK    3  A    between atoms: C_14  and  C_16
REMARK    4  A    between atoms: C_16  and  C_19
REMARK    5  A    between atoms: C_19  and  C_21
REMARK    6  A    between atoms: C_28  and  N_29
REMARK    7  A    between atoms: N_29  and  S_31
REMARK    8  A    between atoms: S_31  and  C_34
REMARK                            x       y       z     vdW  Elec       q    Type
REMARK                         _______ _______ _______ _____ _____    ______ ____
ROOT
ATOM      1  N   UNL     1       6.811  -0.896  25.112  0.00  0.00    +0.000 N 
ATOM      2  C   UNL     1       8.084  -0.731  25.300  0.00  0.00    +0.000 C 
ATOM      3  O   UNL     1       8.366  -0.513  26.562  0.00  0.00    +0.000 OA
ENDROOT
BRANCH   1  10
ATOM      4  C   UNL     1       5.120   0.277  26.433  0.00  0.00    +0.000 C 
ATOM      5  C   UNL     1       5.087   1.495  27.149  0.00  0.00    +0.000 C 
ATOM      6  S   UNL     1       6.111   2.588  26.057  0.00  0.00    +0.000 S 
ATOM      7  O   UNL     1       7.363   2.736  26.667  0.00  0.00    +0.000 OA
ATOM      8  O   UNL     1       5.350   3.693  25.665  0.00  0.00    +0.000 OA
ATOM      9  C   UNL     1       6.328   1.488  24.611  0.00  0.00    +0.000 C 
ATOM     10  C   UNL     1       5.808   0.141  25.064  0.00  0.00    +0.000 C 
ENDBRANCH   1  10
BRANCH   1  11
ATOM     11  C   UNL     1       6.364  -2.187  25.307  0.00  0.00    +0.000 A 
ATOM     12  C   UNL     1       5.436  -2.339  24.137  0.00  0.00    +0.000 A 
ATOM     13  C   UNL     1       5.640  -3.251  22.990  0.00  0.00    +0.000 A 
ATOM     14  C   UNL     1       6.789  -4.208  23.196  0.00  0.00    +0.000 A 
ATOM     15  F   UNL     1       7.632  -3.925  22.084  0.00  0.00    +0.000 F 
ATOM     16  C   UNL     1       7.585  -4.366  24.436  0.00  0.00    +0.000 A 
ATOM     17  C   UNL     1       7.222  -3.348  25.546  0.00  0.00    +0.000 A 
ENDBRANCH   1  11
BRANCH   2  18
ATOM     18  C   UNL     1       9.068  -0.136  24.408  0.00  0.00    +0.000 C 
BRANCH  18  19
ATOM     19  C   UNL     1       9.857  -0.872  23.428  0.00  0.00    +0.000 C 
ATOM     20  O   UNL     1      10.128  -2.049  23.722  0.00  0.00    +0.000 OA
BRANCH  19  21
ATOM     21  C   UNL     1       9.906  -0.488  22.058  0.00  0.00    +0.000 A 
ATOM     22  C   UNL     1      10.107   1.016  22.251  0.00  0.00    +0.000 A 
ATOM     23  C   UNL     1       9.126   2.114  21.984  0.00  0.00    +0.000 A 
ATOM     24  C   UNL     1       7.957   1.456  21.352  0.00  0.00    +0.000 A 
ATOM     25  C   UNL     1       7.622   0.220  20.794  0.00  0.00    +0.000 A 
ATOM     26  C   UNL     1       8.768  -0.721  21.128  0.00  0.00    +0.000 A 
BRANCH  25  27
ATOM     27  N   UNL     1       7.525   0.499  19.426  0.00  0.00    +0.000 N 
ATOM     28  H   UNL     1       8.192  -0.126  19.025  0.00  0.00    +0.000 HD
BRANCH  27  29
ATOM     29  S   UNL     1       6.115   0.072  18.817  0.00  0.00    +0.000 S 
ATOM     30  O   UNL     1       6.132  -0.226  17.428  0.00  0.00    +0.000 OA
ATOM     31  O   UNL     1       5.637  -1.048  19.647  0.00  0.00    +0.000 OA
ATOM     32  C   UNL     1       4.901   1.370  19.066  0.00  0.00    +0.000 C 
ENDBRANCH  27  29
ENDBRANCH  25  27
ENDBRANCH  19  21
ENDBRANCH  18  19
ENDBRANCH   2  18
TORSDOF 7
ENDMDL
MODEL 7
REMARK VINA RESULT:      -7.8      2.540      2.805
REMARK  Name = 
REMARK  8 active torsions:
REMARK  status: ('A' for Active; 'I' for Inactive)
REMARK    1  A    between atoms: C_11  and  N_13
REMARK    2  A    between atoms: N_13  and  C_40
REMARK    3  A    between atoms: C_14  and  C_16
REMARK    4  A    between atoms: C_16  and  C_19
REMARK    5  A    between atoms: C_19  and  C_21
REMARK    6  A    between atoms: C_28  and  N_29
REMARK    7  A    between atoms: N_29  and  S_31
REMARK    8  A    between atoms: S_31  and  C_34
REMARK                            x       y       z     vdW  Elec       q    Type
REMARK                         _______ _______ _______ _____ _____    ______ ____
ROOT
ATOM      1  N   UNL     1       7.876  -3.908  24.972  0.00  0.00    +0.000 N 
ATOM      2  C   UNL     1       8.810  -3.358  24.260  0.00  0.00    +0.000 C 
ATOM      3  O   UNL     1       9.896  -4.093  24.228  0.00  0.00    +0.000 OA
ENDROOT
BRANCH   1  10
ATOM      4  C   UNL     1       6.478  -3.289  26.880  0.00  0.00    +0.000 C 
ATOM      5  C   UNL     1       5.547  -3.974  27.693  0.00  0.00    +0.000 C 
ATOM      6  S   UNL     1       6.334  -5.646  27.822  0.00  0.00    +0.000 S 
ATOM      7  O   UNL     1       5.620  -6.511  26.984  0.00  0.00    +0.000 OA
ATOM      8  O   UNL     1       6.560  -5.949  29.168  0.00  0.00    +0.000 OA
ATOM      9  C   UNL     1       7.944  -5.307  27.022  0.00  0.00    +0.000 C 
ATOM     10  C   UNL     1       7.795  -3.931  26.413  0.00  0.00    +0.000 C 
ENDBRANCH   1  10
BRANCH   1  11
ATOM     11  C   UNL     1       7.092  -4.815  24.289  0.00  0.00    +0.000 A 
ATOM     12  C   UNL     1       5.817  -4.034  24.154  0.00  0.00    +0.000 A 
ATOM     13  C   UNL     1       5.244  -3.535  22.886  0.00  0.00    +0.000 A 
ATOM     14  C   UNL     1       5.955  -4.071  21.668  0.00  0.00    +0.000 A 
ATOM     15  F   UNL     1       6.379  -2.884  21.006  0.00  0.00    +0.000 F 
ATOM     16  C   UNL     1       7.029  -5.093  21.659  0.00  0.00    +0.000 A 
ATOM     17  C   UNL     1       7.491  -5.525  23.073  0.00  0.00    +0.000 A 
ENDBRANCH   1  11
BRANCH   2  18
ATOM     18  C   UNL     1       9.101  -1.944  24.072  0.00  0.00    +0.000 C 
BRANCH  18  19
ATOM     19  C   UNL     1       9.329  -1.305  22.782  0.00  0.00    +0.000 C 
ATOM     20  O   UNL     1      10.280  -1.749  22.116  0.00  0.00    +0.000 OA
BRANCH  19  21
ATOM     21  C   UNL     1       8.301  -0.592  22.102  0.00  0.00    +0.000 A 
ATOM     22  C   UNL     1       9.140   0.577  21.583  0.00  0.00    +0.000 A 
ATOM     23  C   UNL     1       9.108   2.002  22.038  0.00  0.00    +0.000 A 
ATOM     24  C   UNL     1       7.986   2.085  23.005  0.00  0.00    +0.000 A 
ATOM     25  C   UNL     1       6.904   1.309  23.426  0.00  0.00    +0.000 A 
ATOM     26  C   UNL     1       7.102  -0.066  22.808  0.00  0.00    +0.000 A 
BRANCH  25  27
ATOM     27  N   UNL     1       5.797   1.988  22.904  0.00  0.00    +0.000 N 
ATOM     28  H   UNL     1       5.316   1.274  22.401  0.00  0.00    +0.000 HD
BRANCH  27  29
ATOM     29  S   UNL     1       4.787   2.467  24.042  0.00  0.00    +0.000 S 
ATOM     30  O   UNL     1       3.487   2.804  23.579  0.00  0.00    +0.000 OA
ATOM     31  O   UNL     1       4.786   1.400  25.059  0.00  0.00    +0.000 OA
ATOM     32  C   UNL     1       5.436   3.905  24.897  0.00  0.00    +0.000 C 
ENDBRANCH  27  29
ENDBRANCH  25  27
ENDBRANCH  19  21
ENDBRANCH  18  19
ENDBRANCH   2  18
TORSDOF 7
ENDMDL
MODEL 8
REMARK VINA RESULT:      -7.8      2.620      7.937
REMARK  Name = 
REMARK  8 active torsions:
REMARK  status: ('A' for Active; 'I' for Inactive)
REMARK    1  A    between atoms: C_11  and  N_13
REMARK    2  A    between atoms: N_13  and  C_40
REMARK    3  A    between atoms: C_14  and  C_16
REMARK    4  A    between atoms: C_16  and  C_19
REMARK    5  A    between atoms: C_19  and  C_21
REMARK    6  A    between atoms: C_28  and  N_29
REMARK    7  A    between atoms: N_29  and  S_31
REMARK    8  A    between atoms: S_31  and  C_34
REMARK                            x       y       z     vdW  Elec       q    Type
REMARK                         _______ _______ _______ _____ _____    ______ ____
ROOT
ATOM      1  N   UNL     1       7.934   0.429  21.689  0.00  0.00    +0.000 N 
ATOM      2  C   UNL     1       7.696   0.045  22.905  0.00  0.00    +0.000 C 
ATOM      3  O   UNL     1       8.677  -0.678  23.389  0.00  0.00    +0.000 OA
ENDROOT
BRANCH   1  10
ATOM      4  C   UNL     1       6.736  -1.454  20.690  0.00  0.00    +0.000 C 
ATOM      5  C   UNL     1       5.621  -1.578  19.830  0.00  0.00    +0.000 C 
ATOM      6  S   UNL     1       5.868  -0.131  18.699  0.00  0.00    +0.000 S 
ATOM      7  O   UNL     1       4.951   0.857  19.075  0.00  0.00    +0.000 OA
ATOM      8  O   UNL     1       5.958  -0.585  17.380  0.00  0.00    +0.000 OA
ATOM      9  C   UNL     1       7.527   0.421  19.239  0.00  0.00    +0.000 C 
ATOM     10  C   UNL     1       7.812  -0.373  20.495  0.00  0.00    +0.000 C 
ENDBRANCH   1  10
BRANCH   1  11
ATOM     11  C   UNL     1       8.673   1.590  21.588  0.00  0.00    +0.000 A 
ATOM     12  C   UNL     1       7.677   2.597  22.085  0.00  0.00    +0.000 A 
ATOM     13  C   UNL     1       7.792   3.376  23.336  0.00  0.00    +0.000 A 
ATOM     14  C   UNL     1       9.141   3.231  23.998  0.00  0.00    +0.000 A 
ATOM     15  F   UNL     1       8.804   2.733  25.288  0.00  0.00    +0.000 F 
ATOM     16  C   UNL     1      10.314   2.514  23.445  0.00  0.00    +0.000 A 
ATOM     17  C   UNL     1      10.026   1.775  22.115  0.00  0.00    +0.000 A 
ENDBRANCH   1  11
BRANCH   2  18
ATOM     18  C   UNL     1       6.419  -0.278  23.525  0.00  0.00    +0.000 C 
BRANCH  18  19
ATOM     19  C   UNL     1       5.919   0.315  24.759  0.00  0.00    +0.000 C 
ATOM     20  O   UNL     1       5.184   1.308  24.626  0.00  0.00    +0.000 OA
BRANCH  19  21
ATOM     21  C   UNL     1       5.845  -0.423  25.974  0.00  0.00    +0.000 A 
ATOM     22  C   UNL     1       7.115   0.110  26.641  0.00  0.00    +0.000 A 
ATOM     23  C   UNL     1       8.399  -0.620  26.884  0.00  0.00    +0.000 A 
ATOM     24  C   UNL     1       8.142  -2.022  26.473  0.00  0.00    +0.000 A 
ATOM     25  C   UNL     1       7.059  -2.836  26.138  0.00  0.00    +0.000 A 
ATOM     26  C   UNL     1       5.860  -1.911  25.999  0.00  0.00    +0.000 A 
BRANCH  25  27
ATOM     27  N   UNL     1       6.955  -3.704  27.231  0.00  0.00    +0.000 N 
ATOM     28  H   UNL     1       5.991  -3.638  27.475  0.00  0.00    +0.000 HD
BRANCH  27  29
ATOM     29  S   UNL     1       7.192  -5.227  26.822  0.00  0.00    +0.000 S 
ATOM     30  O   UNL     1       7.338  -6.121  27.916  0.00  0.00    +0.000 OA
ATOM     31  O   UNL     1       6.081  -5.583  25.922  0.00  0.00    +0.000 OA
ATOM     32  C   UNL     1       8.665  -5.385  25.807  0.00  0.00    +0.000 C 
ENDBRANCH  27  29
ENDBRANCH  25  27
ENDBRANCH  19  21
ENDBRANCH  18  19
ENDBRANCH   2  18
TORSDOF 7
ENDMDL
MODEL 9
REMARK VINA RESULT:      -7.7      3.299      7.200
REMARK  Name = 
REMARK  8 active torsions:
REMARK  status: ('A' for Active; 'I' for Inactive)
REMARK    1  A    between atoms: C_11  and  N_13
REMARK    2  A    between atoms: N_13  and  C_40
REMARK    3  A    between atoms: C_14  and  C_16
REMARK    4  A    between atoms: C_16  and  C_19
REMARK    5  A    between atoms: C_19  and  C_21
REMARK    6  A    between atoms: C_28  and  N_29
REMARK    7  A    between atoms: N_29  and  S_31
REMARK    8  A    between atoms: S_31  and  C_34
REMARK                            x       y       z     vdW  Elec       q    Type
REMARK                         _______ _______ _______ _____ _____    ______ ____
ROOT
ATOM      1  N   UNL     1       9.006   1.206  23.470  0.00  0.00    +0.000 N 
ATOM      2  C   UNL     1       8.404   0.103  23.794  0.00  0.00    +0.000 C 
ATOM      3  O   UNL     1       7.177   0.320  24.203  0.00  0.00    +0.000 OA
ENDROOT
BRANCH   1  10
ATOM      4  C   UNL     1      10.759   2.894  23.712  0.00  0.00    +0.000 C 
ATOM      5  C   UNL     1      10.810   4.299  23.573  0.00  0.00    +0.000 C 
ATOM      6  S   UNL     1       9.160   4.795  24.254  0.00  0.00    +0.000 S 
ATOM      7  O   UNL     1       8.340   5.127  23.169  0.00  0.00    +0.000 OA
ATOM      8  O   UNL     1       9.347   5.670  25.328  0.00  0.00    +0.000 OA
ATOM      9  C   UNL     1       8.584   3.186  24.908  0.00  0.00    +0.000 C 
ATOM     10  C   UNL     1       9.575   2.173  24.378  0.00  0.00    +0.000 C 
ENDBRANCH   1  10
BRANCH   1  11
ATOM     11  C   UNL     1       8.780   1.624  22.174  0.00  0.00    +0.000 A 
ATOM     12  C   UNL     1       9.358   0.470  21.406  0.00  0.00    +0.000 A 
ATOM     13  C   UNL     1       8.590  -0.476  20.569  0.00  0.00    +0.000 A 
ATOM     14  C   UNL     1       7.155  -0.053  20.367  0.00  0.00    +0.000 A 
ATOM     15  F   UNL     1       6.427  -1.167  20.873  0.00  0.00    +0.000 F 
ATOM     16  C   UNL     1       6.548   1.223  20.814  0.00  0.00    +0.000 A 
ATOM     17  C   UNL     1       7.500   2.107  21.657  0.00  0.00    +0.000 A 
ENDBRANCH   1  11
BRANCH   2  18
ATOM     18  C   UNL     1       8.968  -1.108  24.371  0.00  0.00    +0.000 C 
BRANCH  18  19
ATOM     19  C   UNL     1       8.669  -1.612  25.707  0.00  0.00    +0.000 C 
ATOM     20  O   UNL     1       8.905  -0.834  26.646  0.00  0.00    +0.000 OA
BRANCH  19  21
ATOM     21  C   UNL     1       7.744  -2.672  25.921  0.00  0.00    +0.000 A 
ATOM     22  C   UNL     1       8.736  -3.756  26.347  0.00  0.00    +0.000 A 
ATOM     23  C   UNL     1       9.152  -4.972  25.580  0.00  0.00    +0.000 A 
ATOM     24  C   UNL     1       8.292  -4.991  24.371  0.00  0.00    +0.000 A 
ATOM     25  C   UNL     1       7.150  -4.351  23.884  0.00  0.00    +0.000 A 
ATOM     26  C   UNL     1       6.873  -3.197  24.834  0.00  0.00    +0.000 A 
BRANCH  25  27
ATOM     27  N   UNL     1       6.172  -5.350  23.938  0.00  0.00    +0.000 N 
ATOM     28  H   UNL     1       5.638  -5.093  24.740  0.00  0.00    +0.000 HD
BRANCH  27  29
ATOM     29  S   UNL     1       5.161  -5.277  22.707  0.00  0.00    +0.000 S 
ATOM     30  O   UNL     1       4.855  -3.963  22.265  0.00  0.00    +0.000 OA
ATOM     31  O   UNL     1       5.744  -6.126  21.653  0.00  0.00    +0.000 OA
ATOM     32  C   UNL     1       3.606  -6.074  23.121  0.00  0.00    +0.000 C 
ENDBRANCH  27  29
ENDBRANCH  25  27
ENDBRANCH  19  21
ENDBRANCH  18  19
ENDBRANCH   2  18
TORSDOF 7
ENDMDL
