MODEL 1
REMARK VINA RESULT:      -8.7      0.000      0.000
REMARK  Name = 
REMARK  3 active torsions:
REMARK  status: ('A' for Active; 'I' for Inactive)
REMARK    1  A    between atoms: C_5  and  C_7
REMARK    2  A    between atoms: N_28  and  C_29
REMARK    3  A    between atoms: C_29  and  C_32
REMARK                            x       y       z     vdW  Elec       q    Type
REMARK                         _______ _______ _______ _____ _____    ______ ____
ROOT
ATOM      1  C   UNL     1       9.754  -2.431  24.136  0.00  0.00    +0.000 C 
ATOM      2  C   UNL     1       9.067  -3.594  24.124  0.00  0.00    +0.000 C 
ATOM      3  C   UNL     1       7.764  -3.903  25.082  0.00  0.00    +0.000 C 
ATOM      4  C   UNL     1       7.201  -2.644  24.820  0.00  0.00    +0.000 A 
ATOM      5  C   UNL     1       6.590  -1.967  25.973  0.00  0.00    +0.000 A 
ATOM      6  C   UNL     1       6.745  -1.008  26.947  0.00  0.00    +0.000 A 
ATOM      7  C   UNL     1       7.082   0.049  25.846  0.00  0.00    +0.000 A 
ATOM      8  C   UNL     1       7.244  -0.144  24.561  0.00  0.00    +0.000 A 
ATOM      9  C   UNL     1       7.803  -1.490  24.089  0.00  0.00    +0.000 A 
ATOM     10  N   UNL     1       8.947  -1.312  23.520  0.00  0.00    +0.000 N 
ENDROOT
BRANCH   3  11
ATOM     11  C   UNL     1       6.941  -5.024  24.382  0.00  0.00    +0.000 A 
ATOM     12  C   UNL     1       7.506  -5.357  23.144  0.00  0.00    +0.000 A 
ATOM     13  C   UNL     1       6.990  -5.137  21.730  0.00  0.00    +0.000 A 
ATOM     14  C   UNL     1       5.803  -4.423  22.052  0.00  0.00    +0.000 A 
ATOM     15  C   UNL     1       4.755  -4.184  23.051  0.00  0.00    +0.000 A 
ATOM     16  C   UNL     1       5.469  -4.730  24.302  0.00  0.00    +0.000 A 
ENDBRANCH   3  11
BRANCH  10  17
ATOM     17  C   UNL     1       9.146  -1.608  22.090  0.00  0.00    +0.000 C 
BRANCH  17  18
ATOM     18  C   UNL     1       8.830  -0.478  21.211  0.00  0.00    +0.000 A 
ATOM     19  C   UNL     1       9.699   0.674  21.776  0.00  0.00    +0.000 A 
ATOM     20  C   UNL     1       9.151   1.993  22.069  0.00  0.00    +0.000 A 
ATOM     21  C   UNL     1       7.801   2.140  21.341  0.00  0.00    +0.000 A 
ATOM     22  C   UNL     1       6.878   1.294  21.211  0.00  0.00    +0.000 A 
ATOM     23  C   UNL     1       5.976   1.485  20.256  0.00  0.00    +0.000 A 
ATOM     24  C   UNL     1       5.403   1.321  18.940  0.00  0.00    +0.000 A 
ATOM     25  C   UNL     1       6.509   0.324  18.544  0.00  0.00    +0.000 A 
ATOM     26  C   UNL     1       7.632   0.032  19.123  0.00  0.00    +0.000 A 
ATOM     27  C   UNL     1       7.622  -0.053  20.612  0.00  0.00    +0.000 A 
ENDBRANCH  17  18
ENDBRANCH  10  17
TORSDOF 3
ENDMDL
MODEL 2
REMARK VINA RESULT:      -7.9      1.969      3.858
REMARK  Name = 
REMARK  3 active torsions:
REMARK  status: ('A' for Active; 'I' for Inactive)
REMARK    1  A    between atoms: C_5  and  C_7
REMARK    2  A    between atoms: N_28  and  C_29
REMARK    3  A    between atoms: C_29  and  C_32
REMARK                            x       y       z     vdW  Elec       q    Type
REMARK                         _______ _______ _______ _____ _____    ______ ____
ROOT
ATOM      1  C   UNL     1       6.710  -5.219  21.847  0.00  0.00    +0.000 C 
ATOM      2  C   UNL     1       5.663  -5.606  22.606  0.00  0.00    +0.000 C 
ATOM      3  C   UNL     1       5.768  -5.951  24.213  0.00  0.00    +0.000 C 
ATOM      4  C   UNL     1       6.556  -4.816  24.463  0.00  0.00    +0.000 A 
ATOM      5  C   UNL     1       7.671  -5.009  25.401  0.00  0.00    +0.000 A 
ATOM      6  C   UNL     1       9.024  -5.216  25.538  0.00  0.00    +0.000 A 
ATOM      7  C   UNL     1       9.302  -3.955  24.658  0.00  0.00    +0.000 A 
ATOM      8  C   UNL     1       8.438  -3.210  24.014  0.00  0.00    +0.000 A 
ATOM      9  C   UNL     1       7.161  -3.870  23.481  0.00  0.00    +0.000 A 
ATOM     10  N   UNL     1       7.147  -3.815  22.192  0.00  0.00    +0.000 N 
ENDROOT
BRANCH   3  11
ATOM     11  C   UNL     1       4.343  -5.768  24.812  0.00  0.00    +0.000 A 
ATOM     12  C   UNL     1       3.920  -6.938  25.456  0.00  0.00    +0.000 A 
ATOM     13  C   UNL     1       2.821  -7.925  25.091  0.00  0.00    +0.000 A 
ATOM     14  C   UNL     1       2.414  -7.337  23.861  0.00  0.00    +0.000 A 
ATOM     15  C   UNL     1       2.315  -6.105  23.072  0.00  0.00    +0.000 A 
ATOM     16  C   UNL     1       3.339  -5.237  23.826  0.00  0.00    +0.000 A 
ENDBRANCH   3  11
BRANCH  10  17
ATOM     17  C   UNL     1       6.123  -3.040  21.468  0.00  0.00    +0.000 C 
BRANCH  17  18
ATOM     18  C   UNL     1       6.423  -1.608  21.387  0.00  0.00    +0.000 A 
ATOM     19  C   UNL     1       5.832  -1.191  20.016  0.00  0.00    +0.000 A 
ATOM     20  C   UNL     1       6.594  -0.424  19.039  0.00  0.00    +0.000 A 
ATOM     21  C   UNL     1       7.798   0.224  19.749  0.00  0.00    +0.000 A 
ATOM     22  C   UNL     1       8.562  -0.271  20.619  0.00  0.00    +0.000 A 
ATOM     23  C   UNL     1       9.294   0.553  21.359  0.00  0.00    +0.000 A 
ATOM     24  C   UNL     1       9.593   1.360  22.518  0.00  0.00    +0.000 A 
ATOM     25  C   UNL     1       8.311   0.881  23.226  0.00  0.00    +0.000 A 
ATOM     26  C   UNL     1       7.282   0.238  22.769  0.00  0.00    +0.000 A 
ATOM     27  C   UNL     1       7.549  -0.852  21.787  0.00  0.00    +0.000 A 
ENDBRANCH  17  18
ENDBRANCH  10  17
TORSDOF 3
ENDMDL
MODEL 3
REMARK VINA RESULT:      -7.8      1.472      3.418
REMARK  Name = 
REMARK  3 active torsions:
REMARK  status: ('A' for Active; 'I' for Inactive)
REMARK    1  A    between atoms: C_5  and  C_7
REMARK    2  A    between atoms: N_28  and  C_29
REMARK    3  A    between atoms: C_29  and  C_32
REMARK                            x       y       z     vdW  Elec       q    Type
REMARK                         _______ _______ _______ _____ _____    ______ ____
ROOT
ATOM      1  C   UNL     1       6.238  -1.999  22.681  0.00  0.00    +0.000 C 
ATOM      2  C   UNL     1       6.315  -2.045  24.029  0.00  0.00    +0.000 C 
ATOM      3  C   UNL     1       5.877  -3.350  24.932  0.00  0.00    +0.000 C 
ATOM      4  C   UNL     1       6.533  -4.240  24.068  0.00  0.00    +0.000 A 
ATOM      5  C   UNL     1       5.821  -5.494  23.783  0.00  0.00    +0.000 A 
ATOM      6  C   UNL     1       5.032  -6.180  22.890  0.00  0.00    +0.000 A 
ATOM      7  C   UNL     1       6.085  -5.918  21.765  0.00  0.00    +0.000 A 
ATOM      8  C   UNL     1       7.165  -5.180  21.824  0.00  0.00    +0.000 A 
ATOM      9  C   UNL     1       7.165  -3.956  22.746  0.00  0.00    +0.000 A 
ATOM     10  N   UNL     1       7.286  -2.881  22.044  0.00  0.00    +0.000 N 
ENDROOT
BRANCH   3  11
ATOM     11  C   UNL     1       6.639  -3.242  26.285  0.00  0.00    +0.000 A 
ATOM     12  C   UNL     1       8.020  -3.375  26.091  0.00  0.00    +0.000 A 
ATOM     13  C   UNL     1       8.975  -4.485  26.505  0.00  0.00    +0.000 A 
ATOM     14  C   UNL     1       8.023  -5.375  27.075  0.00  0.00    +0.000 A 
ATOM     15  C   UNL     1       6.722  -5.507  27.740  0.00  0.00    +0.000 A 
ATOM     16  C   UNL     1       6.100  -4.152  27.354  0.00  0.00    +0.000 A 
ENDBRANCH   3  11
BRANCH  10  17
ATOM     17  C   UNL     1       8.469  -2.010  22.172  0.00  0.00    +0.000 C 
BRANCH  17  18
ATOM     18  C   UNL     1       8.433  -0.844  21.284  0.00  0.00    +0.000 A 
ATOM     19  C   UNL     1       9.429   0.143  21.943  0.00  0.00    +0.000 A 
ATOM     20  C   UNL     1       9.089   1.537  22.202  0.00  0.00    +0.000 A 
ATOM     21  C   UNL     1       7.858   1.912  21.354  0.00  0.00    +0.000 A 
ATOM     22  C   UNL     1       6.821   1.235  21.127  0.00  0.00    +0.000 A 
ATOM     23  C   UNL     1       6.058   1.576  20.096  0.00  0.00    +0.000 A 
ATOM     24  C   UNL     1       5.591   1.511  18.730  0.00  0.00    +0.000 A 
ATOM     25  C   UNL     1       6.543   0.338  18.425  0.00  0.00    +0.000 A 
ATOM     26  C   UNL     1       7.541  -0.141  19.101  0.00  0.00    +0.000 A 
ATOM     27  C   UNL     1       7.377  -0.220  20.581  0.00  0.00    +0.000 A 
ENDBRANCH  17  18
ENDBRANCH  10  17
TORSDOF 3
ENDMDL
MODEL 4
REMARK VINA RESULT:      -7.8      1.447      6.353
REMARK  Name = 
REMARK  3 active torsions:
REMARK  status: ('A' for Active; 'I' for Inactive)
REMARK    1  A    between atoms: C_5  and  C_7
REMARK    2  A    between atoms: N_28  and  C_29
REMARK    3  A    between atoms: C_29  and  C_32
REMARK                            x       y       z     vdW  Elec       q    Type
REMARK                         _______ _______ _______ _____ _____    ______ ____
ROOT
ATOM      1  C   UNL     1       9.908  -1.243  21.588  0.00  0.00    +0.000 C 
ATOM      2  C   UNL     1      10.080  -0.009  22.110  0.00  0.00    +0.000 C 
ATOM      3  C   UNL     1       9.287   1.333  21.580  0.00  0.00    +0.000 C 
ATOM      4  C   UNL     1       8.059   0.656  21.526  0.00  0.00    +0.000 A 
ATOM      5  C   UNL     1       7.215   0.959  20.361  0.00  0.00    +0.000 A 
ATOM      6  C   UNL     1       6.794   0.543  19.119  0.00  0.00    +0.000 A 
ATOM      7  C   UNL     1       6.359  -0.828  19.731  0.00  0.00    +0.000 A 
ATOM      8  C   UNL     1       6.545  -1.266  20.951  0.00  0.00    +0.000 A 
ATOM      9  C   UNL     1       7.791  -0.800  21.712  0.00  0.00    +0.000 A 
ATOM     10  N   UNL     1       8.557  -1.809  21.956  0.00  0.00    +0.000 N 
ENDROOT
BRANCH   3  11
ATOM     11  C   UNL     1       9.295   2.358  22.752  0.00  0.00    +0.000 A 
ATOM     12  C   UNL     1       9.416   1.703  23.985  0.00  0.00    +0.000 A 
ATOM     13  C   UNL     1       8.420   1.547  25.124  0.00  0.00    +0.000 A 
ATOM     14  C   UNL     1       7.310   2.200  24.519  0.00  0.00    +0.000 A 
ATOM     15  C   UNL     1       6.868   3.209  23.550  0.00  0.00    +0.000 A 
ATOM     16  C   UNL     1       8.151   3.333  22.708  0.00  0.00    +0.000 A 
ENDBRANCH   3  11
BRANCH  10  17
ATOM     17  C   UNL     1       8.829  -2.250  23.336  0.00  0.00    +0.000 C 
BRANCH  17  18
ATOM     18  C   UNL     1       7.643  -2.759  24.030  0.00  0.00    +0.000 A 
ATOM     19  C   UNL     1       8.048  -2.708  25.525  0.00  0.00    +0.000 A 
ATOM     20  C   UNL     1       7.874  -3.847  26.419  0.00  0.00    +0.000 A 
ATOM     21  C   UNL     1       6.883  -4.835  25.775  0.00  0.00    +0.000 A 
ATOM     22  C   UNL     1       6.798  -5.197  24.572  0.00  0.00    +0.000 A 
ATOM     23  C   UNL     1       5.669  -5.759  24.160  0.00  0.00    +0.000 A 
ATOM     24  C   UNL     1       4.355  -5.778  23.561  0.00  0.00    +0.000 A 
ATOM     25  C   UNL     1       4.456  -4.281  23.207  0.00  0.00    +0.000 A 
ATOM     26  C   UNL     1       5.300  -3.376  23.594  0.00  0.00    +0.000 A 
ATOM     27  C   UNL     1       6.728  -3.790  23.712  0.00  0.00    +0.000 A 
ENDBRANCH  17  18
ENDBRANCH  10  17
TORSDOF 3
ENDMDL
MODEL 5
REMARK VINA RESULT:      -7.6      1.286      2.067
REMARK  Name = 
REMARK  3 active torsions:
REMARK  status: ('A' for Active; 'I' for Inactive)
REMARK    1  A    between atoms: C_5  and  C_7
REMARK    2  A    between atoms: N_28  and  C_29
REMARK    3  A    between atoms: C_29  and  C_32
REMARK                            x       y       z     vdW  Elec       q    Type
REMARK                         _______ _______ _______ _____ _____    ______ ____
ROOT
ATOM      1  C   UNL     1       8.523  -3.937  25.818  0.00  0.00    +0.000 C 
ATOM      2  C   UNL     1       7.624  -4.581  25.043  0.00  0.00    +0.000 C 
ATOM      3  C   UNL     1       5.996  -4.353  25.138  0.00  0.00    +0.000 C 
ATOM      4  C   UNL     1       6.137  -2.958  25.200  0.00  0.00    +0.000 A 
ATOM      5  C   UNL     1       5.250  -2.270  26.149  0.00  0.00    +0.000 A 
ATOM      6  C   UNL     1       5.137  -1.694  27.393  0.00  0.00    +0.000 A 
ATOM      7  C   UNL     1       6.364  -0.779  27.076  0.00  0.00    +0.000 A 
ATOM      8  C   UNL     1       7.147  -0.810  26.027  0.00  0.00    +0.000 A 
ATOM      9  C   UNL     1       7.388  -2.156  25.335  0.00  0.00    +0.000 A 
ATOM     10  N   UNL     1       8.633  -2.480  25.433  0.00  0.00    +0.000 N 
ENDROOT
BRANCH   3  11
ATOM     11  C   UNL     1       5.396  -4.780  23.766  0.00  0.00    +0.000 A 
ATOM     12  C   UNL     1       6.167  -5.792  23.179  0.00  0.00    +0.000 A 
ATOM     13  C   UNL     1       7.046  -5.772  21.938  0.00  0.00    +0.000 A 
ATOM     14  C   UNL     1       6.905  -4.396  21.607  0.00  0.00    +0.000 A 
ATOM     15  C   UNL     1       6.055  -3.203  21.685  0.00  0.00    +0.000 A 
ATOM     16  C   UNL     1       5.129  -3.625  22.840  0.00  0.00    +0.000 A 
ENDBRANCH   3  11
BRANCH  10  17
ATOM     17  C   UNL     1       9.493  -2.592  24.240  0.00  0.00    +0.000 C 
BRANCH  17  18
ATOM     18  C   UNL     1       9.538  -1.368  23.436  0.00  0.00    +0.000 A 
ATOM     19  C   UNL     1      10.333  -0.380  24.327  0.00  0.00    +0.000 A 
ATOM     20  C   UNL     1       9.861   0.971  24.608  0.00  0.00    +0.000 A 
ATOM     21  C   UNL     1       8.778   1.340  23.576  0.00  0.00    +0.000 A 
ATOM     22  C   UNL     1       7.844   0.628  23.122  0.00  0.00    +0.000 A 
ATOM     23  C   UNL     1       7.256   1.002  21.993  0.00  0.00    +0.000 A 
ATOM     24  C   UNL     1       7.044   1.014  20.564  0.00  0.00    +0.000 A 
ATOM     25  C   UNL     1       8.111  -0.080  20.362  0.00  0.00    +0.000 A 
ATOM     26  C   UNL     1       9.003  -0.553  21.177  0.00  0.00    +0.000 A 
ATOM     27  C   UNL     1       8.584  -0.751  22.595  0.00  0.00    +0.000 A 
ENDBRANCH  17  18
ENDBRANCH  10  17
TORSDOF 3
ENDMDL
MODEL 6
REMARK VINA RESULT:      -7.5      2.161      4.348
REMARK  Name = 
REMARK  3 active torsions:
REMARK  status: ('A' for Active; 'I' for Inactive)
REMARK    1  A    between atoms: C_5  and  C_7
REMARK    2  A    between atoms: N_28  and  C_29
REMARK    3  A    between atoms: C_29  and  C_32
REMARK                            x       y       z     vdW  Elec       q    Type
REMARK                         _______ _______ _______ _____ _____    ______ ____
ROOT
ATOM      1  C   UNL     1       7.344  -5.473  22.685  0.00  0.00    +0.000 C 
ATOM      2  C   UNL     1       6.022  -5.706  22.535  0.00  0.00    +0.000 C 
ATOM      3  C   UNL     1       5.003  -6.060  23.778  0.00  0.00    +0.000 C 
ATOM      4  C   UNL     1       5.545  -5.049  24.586  0.00  0.00    +0.000 A 
ATOM      5  C   UNL     1       5.733  -5.397  26.002  0.00  0.00    +0.000 A 
ATOM      6  C   UNL     1       6.626  -5.793  26.970  0.00  0.00    +0.000 A 
ATOM      7  C   UNL     1       7.549  -4.585  26.608  0.00  0.00    +0.000 A 
ATOM      8  C   UNL     1       7.412  -3.727  25.628  0.00  0.00    +0.000 A 
ATOM      9  C   UNL     1       6.745  -4.199  24.331  0.00  0.00    +0.000 A 
ATOM     10  N   UNL     1       7.592  -4.144  23.360  0.00  0.00    +0.000 N 
ENDROOT
BRANCH   3  11
ATOM     11  C   UNL     1       3.568  -5.677  23.313  0.00  0.00    +0.000 A 
ATOM     12  C   UNL     1       3.180  -4.445  23.857  0.00  0.00    +0.000 A 
ATOM     13  C   UNL     1       2.119  -4.114  24.895  0.00  0.00    +0.000 A 
ATOM     14  C   UNL     1       1.701  -5.440  25.195  0.00  0.00    +0.000 A 
ATOM     15  C   UNL     1       1.565  -6.816  24.706  0.00  0.00    +0.000 A 
ATOM     16  C   UNL     1       2.554  -6.766  23.526  0.00  0.00    +0.000 A 
ENDBRANCH   3  11
BRANCH  10  17
ATOM     17  C   UNL     1       7.392  -3.234  22.218  0.00  0.00    +0.000 C 
BRANCH  17  18
ATOM     18  C   UNL     1       7.756  -1.844  22.510  0.00  0.00    +0.000 A 
ATOM     19  C   UNL     1       7.404  -1.095  21.199  0.00  0.00    +0.000 A 
ATOM     20  C   UNL     1       8.340  -0.190  20.543  0.00  0.00    +0.000 A 
ATOM     21  C   UNL     1       9.441   0.198  21.549  0.00  0.00    +0.000 A 
ATOM     22  C   UNL     1      10.038  -0.530  22.385  0.00  0.00    +0.000 A 
ATOM     23  C   UNL     1      10.675   0.056  23.390  0.00  0.00    +0.000 A 
ATOM     24  C   UNL     1      10.819   0.566  24.734  0.00  0.00    +0.000 A 
ATOM     25  C   UNL     1       9.424   0.038  25.121  0.00  0.00    +0.000 A 
ATOM     26  C   UNL     1       8.456  -0.414  24.386  0.00  0.00    +0.000 A 
ATOM     27  C   UNL     1       8.833  -1.278  23.230  0.00  0.00    +0.000 A 
ENDBRANCH  17  18
ENDBRANCH  10  17
TORSDOF 3
ENDMDL
MODEL 7
REMARK VINA RESULT:      -7.4      1.630      5.613
REMARK  Name = 
REMARK  3 active torsions:
REMARK  status: ('A' for Active; 'I' for Inactive)
REMARK    1  A    between atoms: C_5  and  C_7
REMARK    2  A    between atoms: N_28  and  C_29
REMARK    3  A    between atoms: C_29  and  C_32
REMARK                            x       y       z     vdW  Elec       q    Type
REMARK                         _______ _______ _______ _____ _____    ______ ____
ROOT
ATOM      1  C   UNL     1       6.406   2.337  22.660  0.00  0.00    +0.000 C 
ATOM      2  C   UNL     1       6.670   1.540  21.602  0.00  0.00    +0.000 C 
ATOM      3  C   UNL     1       8.176   1.306  20.978  0.00  0.00    +0.000 C 
ATOM      4  C   UNL     1       8.742   1.149  22.253  0.00  0.00    +0.000 A 
ATOM      5  C   UNL     1      10.048   1.792  22.454  0.00  0.00    +0.000 A 
ATOM      6  C   UNL     1      10.718   2.877  22.969  0.00  0.00    +0.000 A 
ATOM      7  C   UNL     1      10.047   2.626  24.358  0.00  0.00    +0.000 A 
ATOM      8  C   UNL     1       9.120   1.753  24.663  0.00  0.00    +0.000 A 
ATOM      9  C   UNL     1       8.104   1.359  23.585  0.00  0.00    +0.000 A 
ATOM     10  N   UNL     1       6.922   1.729  23.944  0.00  0.00    +0.000 N 
ENDROOT
BRANCH   3  11
ATOM     11  C   UNL     1       8.148  -0.054  20.222  0.00  0.00    +0.000 A 
ATOM     12  C   UNL     1       7.483   0.072  18.995  0.00  0.00    +0.000 A 
ATOM     13  C   UNL     1       6.153  -0.499  18.527  0.00  0.00    +0.000 A 
ATOM     14  C   UNL     1       5.761  -1.130  19.741  0.00  0.00    +0.000 A 
ATOM     15  C   UNL     1       6.208  -1.756  20.990  0.00  0.00    +0.000 A 
ATOM     16  C   UNL     1       7.641  -1.197  21.056  0.00  0.00    +0.000 A 
ENDBRANCH   3  11
BRANCH  10  17
ATOM     17  C   UNL     1       5.857   0.744  24.209  0.00  0.00    +0.000 C 
BRANCH  17  18
ATOM     18  C   UNL     1       6.327  -0.444  24.926  0.00  0.00    +0.000 A 
ATOM     19  C   UNL     1       6.497   0.056  26.383  0.00  0.00    +0.000 A 
ATOM     20  C   UNL     1       7.712  -0.183  27.152  0.00  0.00    +0.000 A 
ATOM     21  C   UNL     1       8.513  -1.313  26.475  0.00  0.00    +0.000 A 
ATOM     22  C   UNL     1       8.717  -1.509  25.248  0.00  0.00    +0.000 A 
ATOM     23  C   UNL     1       9.111  -2.715  24.859  0.00  0.00    +0.000 A 
ATOM     24  C   UNL     1       8.927  -4.058  24.360  0.00  0.00    +0.000 A 
ATOM     25  C   UNL     1       7.417  -3.819  24.172  0.00  0.00    +0.000 A 
ATOM     26  C   UNL     1       6.652  -2.861  24.596  0.00  0.00    +0.000 A 
ATOM     27  C   UNL     1       7.216  -1.481  24.561  0.00  0.00    +0.000 A 
ENDBRANCH  17  18
ENDBRANCH  10  17
TORSDOF 3
ENDMDL
MODEL 8
REMARK VINA RESULT:      -7.4      1.620      2.311
REMARK  Name = 
REMARK  3 active torsions:
REMARK  status: ('A' for Active; 'I' for Inactive)
REMARK    1  A    between atoms: C_5  and  C_7
REMARK    2  A    between atoms: N_28  and  C_29
REMARK    3  A    between atoms: C_29  and  C_32
REMARK                            x       y       z     vdW  Elec       q    Type
REMARK                         _______ _______ _______ _____ _____    ______ ____
ROOT
ATOM      1  C   UNL     1       8.664  -1.245  26.802  0.00  0.00    +0.000 C 
ATOM      2  C   UNL     1       7.980  -2.285  26.277  0.00  0.00    +0.000 C 
ATOM      3  C   UNL     1       6.343  -2.314  26.101  0.00  0.00    +0.000 C 
ATOM      4  C   UNL     1       6.317  -1.006  25.591  0.00  0.00    +0.000 A 
ATOM      5  C   UNL     1       5.218  -0.157  26.070  0.00  0.00    +0.000 A 
ATOM      6  C   UNL     1       4.841   0.838  26.942  0.00  0.00    +0.000 A 
ATOM      7  C   UNL     1       5.995   1.743  26.401  0.00  0.00    +0.000 A 
ATOM      8  C   UNL     1       6.937   1.430  25.547  0.00  0.00    +0.000 A 
ATOM      9  C   UNL     1       7.434  -0.020  25.507  0.00  0.00    +0.000 A 
ATOM     10  N   UNL     1       8.674  -0.065  25.858  0.00  0.00    +0.000 N 
ENDROOT
BRANCH   3  11
ATOM     11  C   UNL     1       6.025  -3.344  24.979  0.00  0.00    +0.000 A 
ATOM     12  C   UNL     1       7.139  -4.151  24.713  0.00  0.00    +0.000 A 
ATOM     13  C   UNL     1       8.037  -4.226  23.488  0.00  0.00    +0.000 A 
ATOM     14  C   UNL     1       7.446  -3.174  22.734  0.00  0.00    +0.000 A 
ATOM     15  C   UNL     1       6.229  -2.401  22.464  0.00  0.00    +0.000 A 
ATOM     16  C   UNL     1       5.434  -2.724  23.742  0.00  0.00    +0.000 A 
ENDBRANCH   3  11
BRANCH  10  17
ATOM     17  C   UNL     1       9.723  -0.496  24.916  0.00  0.00    +0.000 C 
BRANCH  17  18
ATOM     18  C   UNL     1       9.700   0.231  23.645  0.00  0.00    +0.000 A 
ATOM     19  C   UNL     1      10.311   1.610  24.006  0.00  0.00    +0.000 A 
ATOM     20  C   UNL     1       9.674   2.867  23.630  0.00  0.00    +0.000 A 
ATOM     21  C   UNL     1       8.643   2.587  22.519  0.00  0.00    +0.000 A 
ATOM     22  C   UNL     1       7.832   1.630  22.419  0.00  0.00    +0.000 A 
ATOM     23  C   UNL     1       7.298   1.376  21.230  0.00  0.00    +0.000 A 
ATOM     24  C   UNL     1       7.202   0.717  19.949  0.00  0.00    +0.000 A 
ATOM     25  C   UNL     1       8.393  -0.198  20.290  0.00  0.00    +0.000 A 
ATOM     26  C   UNL     1       9.262  -0.133  21.251  0.00  0.00    +0.000 A 
ATOM     27  C   UNL     1       8.755   0.273  22.594  0.00  0.00    +0.000 A 
ENDBRANCH  17  18
ENDBRANCH  10  17
TORSDOF 3
ENDMDL
MODEL 9
REMARK VINA RESULT:      -7.3      2.048      3.819
REMARK  Name = 
REMARK  3 active torsions:
REMARK  status: ('A' for Active; 'I' for Inactive)
REMARK    1  A    between atoms: C_5  and  C_7
REMARK    2  A    between atoms: N_28  and  C_29
REMARK    3  A    between atoms: C_29  and  C_32
REMARK                            x       y       z     vdW  Elec       q    Type
REMARK                         _______ _______ _______ _____ _____    ______ ____
ROOT
ATOM      1  C   UNL     1       7.004  -4.119  21.880  0.00  0.00    +0.000 C 
ATOM      2  C   UNL     1       5.917  -4.600  22.520  0.00  0.00    +0.000 C 
ATOM      3  C   UNL     1       5.978  -5.432  23.940  0.00  0.00    +0.000 C 
ATOM      4  C   UNL     1       6.893  -4.526  24.498  0.00  0.00    +0.000 A 
ATOM      5  C   UNL     1       7.975  -5.122  25.294  0.00  0.00    +0.000 A 
ATOM      6  C   UNL     1       9.295  -5.511  25.315  0.00  0.00    +0.000 A 
ATOM      7  C   UNL     1       9.720  -4.080  24.854  0.00  0.00    +0.000 A 
ATOM      8  C   UNL     1       8.950  -3.082  24.498  0.00  0.00    +0.000 A 
ATOM      9  C   UNL     1       7.606  -3.397  23.832  0.00  0.00    +0.000 A 
ATOM     10  N   UNL     1       7.602  -2.947  22.624  0.00  0.00    +0.000 N 
ENDROOT
BRANCH   3  11
ATOM     11  C   UNL     1       4.583  -5.284  24.614  0.00  0.00    +0.000 A 
ATOM     12  C   UNL     1       4.297  -6.396  25.417  0.00  0.00    +0.000 A 
ATOM     13  C   UNL     1       3.262  -7.498  25.249  0.00  0.00    +0.000 A 
ATOM     14  C   UNL     1       2.733  -7.094  23.992  0.00  0.00    +0.000 A 
ATOM     15  C   UNL     1       2.484  -5.977  23.074  0.00  0.00    +0.000 A 
ATOM     16  C   UNL     1       3.480  -4.951  23.648  0.00  0.00    +0.000 A 
ENDBRANCH   3  11
BRANCH  10  17
ATOM     17  C   UNL     1       6.677  -1.877  22.206  0.00  0.00    +0.000 C 
BRANCH  17  18
ATOM     18  C   UNL     1       7.268  -0.538  22.268  0.00  0.00    +0.000 A 
ATOM     19  C   UNL     1       8.453  -0.618  21.272  0.00  0.00    +0.000 A 
ATOM     20  C   UNL     1       9.798  -0.178  21.623  0.00  0.00    +0.000 A 
ATOM     21  C   UNL     1       9.714   0.721  22.871  0.00  0.00    +0.000 A 
ATOM     22  C   UNL     1       9.010   0.573  23.905  0.00  0.00    +0.000 A 
ATOM     23  C   UNL     1       8.809   1.626  24.688  0.00  0.00    +0.000 A 
ATOM     24  C   UNL     1       8.091   2.780  25.176  0.00  0.00    +0.000 A 
ATOM     25  C   UNL     1       6.918   2.500  24.217  0.00  0.00    +0.000 A 
ATOM     26  C   UNL     1       6.827   1.696  23.203  0.00  0.00    +0.000 A 
ATOM     27  C   UNL     1       7.473   0.358  23.343  0.00  0.00    +0.000 A 
ENDBRANCH  17  18
ENDBRANCH  10  17
TORSDOF 3
ENDMDL
