MODEL 1
REMARK VINA RESULT:      -8.7      0.000      0.000
REMARK  Name = 
REMARK  5 active torsions:
REMARK  status: ('A' for Active; 'I' for Inactive)
REMARK    1  A    between atoms: C_5  and  C_6
REMARK    2  A    between atoms: C_16  and  C_18
REMARK    3  A    between atoms: C_18  and  C_21
REMARK    4  A    between atoms: C_26  and  C_27
REMARK    5  A    between atoms: C_37  and  C_39
REMARK                            x       y       z     vdW  Elec       q    Type
REMARK                         _______ _______ _______ _____ _____    ______ ____
ROOT
ATOM      1  C   UNL     1       8.905  -2.404  24.862  0.00  0.00    +0.000 C 
ENDROOT
BRANCH   1   7
ATOM      2  C   UNL     1       7.784   1.169  22.033  0.00  0.00    +0.000 C 
ATOM      3  O   UNL     1       9.151   1.662  21.854  0.00  0.00    +0.000 OA
ATOM      4  C   UNL     1      10.093   0.712  22.199  0.00  0.00    +0.000 C 
ATOM      5  C   UNL     1      10.032   0.730  23.725  0.00  0.00    +0.000 C 
ATOM      6  N   UNL     1       8.837  -0.090  23.971  0.00  0.00    +0.000 N 
ATOM      7  C   UNL     1       8.804  -0.878  25.015  0.00  0.00    +0.000 C 
ATOM      8  O   UNL     1       9.022  -0.358  26.135  0.00  0.00    +0.000 OA
ATOM      9  C   UNL     1       7.627   0.378  23.251  0.00  0.00    +0.000 C 
BRANCH   2  12
ATOM     10  C   UNL     1       6.835  -0.210  18.628  0.00  0.00    +0.000 A 
ATOM     11  C   UNL     1       7.752   0.241  19.748  0.00  0.00    +0.000 A 
ATOM     12  C   UNL     1       7.344   1.128  20.808  0.00  0.00    +0.000 A 
ATOM     13  C   UNL     1       6.035   1.738  20.496  0.00  0.00    +0.000 A 
ATOM     14  C   UNL     1       5.148   1.665  19.423  0.00  0.00    +0.000 A 
ATOM     15  C   UNL     1       5.687   0.663  18.404  0.00  0.00    +0.000 A 
ATOM     16  F   UNL     1       5.805   1.305  17.212  0.00  0.00    +0.000 F 
ENDBRANCH   2  12
ENDBRANCH   1   7
BRANCH   1  17
ATOM     17  C   UNL     1       8.537  -2.995  26.168  0.00  0.00    +0.000 A 
ATOM     18  C   UNL     1       7.084  -2.645  26.428  0.00  0.00    +0.000 A 
ATOM     19  C   UNL     1       6.083  -3.556  26.946  0.00  0.00    +0.000 A 
ATOM     20  C   UNL     1       6.493  -5.079  26.654  0.00  0.00    +0.000 A 
ATOM     21  C   UNL     1       7.886  -5.492  26.706  0.00  0.00    +0.000 A 
ATOM     22  C   UNL     1       8.949  -4.317  26.633  0.00  0.00    +0.000 A 
BRANCH  20  23
ATOM     23  C   UNL     1       5.567  -5.353  25.413  0.00  0.00    +0.000 C 
ATOM     24  O   UNL     1       6.457  -5.587  24.363  0.00  0.00    +0.000 OA
ATOM     25  C   UNL     1       5.817  -5.451  23.165  0.00  0.00    +0.000 C 
ATOM     26  C   UNL     1       4.403  -5.906  23.163  0.00  0.00    +0.000 C 
ATOM     27  N   UNL     1       3.999  -6.685  24.305  0.00  0.00    +0.000 N 
ATOM     28  C   UNL     1       2.754  -7.224  24.304  0.00  0.00    +0.000 C 
ATOM     29  O   UNL     1       2.654  -8.435  24.080  0.00  0.00    +0.000 OA
ATOM     30  C   UNL     1       4.725  -6.590  25.575  0.00  0.00    +0.000 C 
BRANCH  28  31
ATOM     31  C   UNL     1       1.618  -6.309  23.927  0.00  0.00    +0.000 C 
ATOM     32 CL   UNL     1       1.524  -4.925  25.031  0.00  0.00    +0.000 Cl
ENDBRANCH  28  31
ENDBRANCH  20  23
ENDBRANCH   1  17
TORSDOF 5
ENDMDL
MODEL 2
REMARK VINA RESULT:      -8.3      1.987      2.903
REMARK  Name = 
REMARK  5 active torsions:
REMARK  status: ('A' for Active; 'I' for Inactive)
REMARK    1  A    between atoms: C_5  and  C_6
REMARK    2  A    between atoms: C_16  and  C_18
REMARK    3  A    between atoms: C_18  and  C_21
REMARK    4  A    between atoms: C_26  and  C_27
REMARK    5  A    between atoms: C_37  and  C_39
REMARK                            x       y       z     vdW  Elec       q    Type
REMARK                         _______ _______ _______ _____ _____    ______ ____
ROOT
ATOM      1  C   UNL     1       7.326  -2.025  25.503  0.00  0.00    +0.000 C 
ENDROOT
BRANCH   1   7
ATOM      2  C   UNL     1       8.393   0.731  21.858  0.00  0.00    +0.000 C 
ATOM      3  O   UNL     1       9.613   0.017  21.474  0.00  0.00    +0.000 OA
ATOM      4  C   UNL     1       9.663  -1.252  22.017  0.00  0.00    +0.000 C 
ATOM      5  C   UNL     1      10.004  -0.969  23.479  0.00  0.00    +0.000 C 
ATOM      6  N   UNL     1       8.686  -0.587  24.009  0.00  0.00    +0.000 N 
ATOM      7  C   UNL     1       8.364  -0.925  25.231  0.00  0.00    +0.000 C 
ATOM      8  O   UNL     1       9.146  -0.579  26.148  0.00  0.00    +0.000 OA
ATOM      9  C   UNL     1       8.028   0.508  23.254  0.00  0.00    +0.000 C 
BRANCH   2  12
ATOM     10  C   UNL     1       6.819  -0.222  18.539  0.00  0.00    +0.000 A 
ATOM     11  C   UNL     1       7.932   0.042  19.535  0.00  0.00    +0.000 A 
ATOM     12  C   UNL     1       7.773   0.847  20.718  0.00  0.00    +0.000 A 
ATOM     13  C   UNL     1       6.494   1.586  20.672  0.00  0.00    +0.000 A 
ATOM     14  C   UNL     1       5.453   1.691  19.750  0.00  0.00    +0.000 A 
ATOM     15  C   UNL     1       5.737   0.756  18.577  0.00  0.00    +0.000 A 
ATOM     16  F   UNL     1       5.733   1.503  17.441  0.00  0.00    +0.000 F 
ENDBRANCH   2  12
ENDBRANCH   1   7
BRANCH   1  17
ATOM     17  C   UNL     1       7.138  -2.767  24.235  0.00  0.00    +0.000 A 
ATOM     18  C   UNL     1       7.507  -4.214  24.501  0.00  0.00    +0.000 A 
ATOM     19  C   UNL     1       6.762  -5.367  24.035  0.00  0.00    +0.000 A 
ATOM     20  C   UNL     1       5.233  -4.978  23.744  0.00  0.00    +0.000 A 
ATOM     21  C   UNL     1       4.895  -3.677  23.191  0.00  0.00    +0.000 A 
ATOM     22  C   UNL     1       6.026  -2.570  23.308  0.00  0.00    +0.000 A 
BRANCH  20  23
ATOM     23  C   UNL     1       4.577  -5.546  25.055  0.00  0.00    +0.000 C 
ATOM     24  O   UNL     1       3.774  -6.597  24.611  0.00  0.00    +0.000 OA
ATOM     25  C   UNL     1       2.856  -6.925  25.568  0.00  0.00    +0.000 C 
ATOM     26  C   UNL     1       3.345  -6.794  26.964  0.00  0.00    +0.000 C 
ATOM     27  N   UNL     1       4.769  -6.636  27.113  0.00  0.00    +0.000 N 
ATOM     28  C   UNL     1       5.284  -6.627  28.368  0.00  0.00    +0.000 C 
ATOM     29  O   UNL     1       5.868  -7.644  28.755  0.00  0.00    +0.000 OA
ATOM     30  C   UNL     1       5.587  -6.121  26.011  0.00  0.00    +0.000 C 
BRANCH  28  31
ATOM     31  C   UNL     1       4.599  -5.742  29.376  0.00  0.00    +0.000 C 
ATOM     32 CL   UNL     1       4.675  -4.041  28.884  0.00  0.00    +0.000 Cl
ENDBRANCH  28  31
ENDBRANCH  20  23
ENDBRANCH   1  17
TORSDOF 5
ENDMDL
MODEL 3
REMARK VINA RESULT:      -8.2      2.389      3.316
REMARK  Name = 
REMARK  5 active torsions:
REMARK  status: ('A' for Active; 'I' for Inactive)
REMARK    1  A    between atoms: C_5  and  C_6
REMARK    2  A    between atoms: C_16  and  C_18
REMARK    3  A    between atoms: C_18  and  C_21
REMARK    4  A    between atoms: C_26  and  C_27
REMARK    5  A    between atoms: C_37  and  C_39
REMARK                            x       y       z     vdW  Elec       q    Type
REMARK                         _______ _______ _______ _____ _____    ______ ____
ROOT
ATOM      1  C   UNL     1       7.350  -1.753  25.706  0.00  0.00    +0.000 C 
ENDROOT
BRANCH   1   7
ATOM      2  C   UNL     1       8.491   0.697  21.869  0.00  0.00    +0.000 C 
ATOM      3  O   UNL     1       9.597  -0.168  21.455  0.00  0.00    +0.000 OA
ATOM      4  C   UNL     1       9.540  -1.409  22.059  0.00  0.00    +0.000 C 
ATOM      5  C   UNL     1       9.999  -1.101  23.482  0.00  0.00    +0.000 C 
ATOM      6  N   UNL     1       8.767  -0.548  24.065  0.00  0.00    +0.000 N 
ATOM      7  C   UNL     1       8.486  -0.792  25.319  0.00  0.00    +0.000 C 
ATOM      8  O   UNL     1       9.356  -0.496  26.172  0.00  0.00    +0.000 OA
ATOM      9  C   UNL     1       8.190   0.580  23.294  0.00  0.00    +0.000 C 
BRANCH   2  12
ATOM     10  C   UNL     1       6.735  -0.206  18.628  0.00  0.00    +0.000 A 
ATOM     11  C   UNL     1       7.901   0.028  19.569  0.00  0.00    +0.000 A 
ATOM     12  C   UNL     1       7.818   0.831  20.762  0.00  0.00    +0.000 A 
ATOM     13  C   UNL     1       6.556   1.599  20.781  0.00  0.00    +0.000 A 
ATOM     14  C   UNL     1       5.473   1.731  19.912  0.00  0.00    +0.000 A 
ATOM     15  C   UNL     1       5.679   0.796  18.722  0.00  0.00    +0.000 A 
ATOM     16  F   UNL     1       5.636   1.547  17.591  0.00  0.00    +0.000 F 
ENDBRANCH   2  12
ENDBRANCH   1   7
BRANCH   1  17
ATOM     17  C   UNL     1       7.693  -3.078  25.141  0.00  0.00    +0.000 A 
ATOM     18  C   UNL     1       8.373  -3.873  26.240  0.00  0.00    +0.000 A 
ATOM     19  C   UNL     1       8.117  -5.266  26.547  0.00  0.00    +0.000 A 
ATOM     20  C   UNL     1       6.661  -5.703  26.036  0.00  0.00    +0.000 A 
ATOM     21  C   UNL     1       6.121  -5.165  24.798  0.00  0.00    +0.000 A 
ATOM     22  C   UNL     1       6.833  -3.857  24.254  0.00  0.00    +0.000 A 
BRANCH  20  23
ATOM     23  C   UNL     1       5.887  -5.642  27.403  0.00  0.00    +0.000 C 
ATOM     24  O   UNL     1       6.841  -6.006  28.356  0.00  0.00    +0.000 OA
ATOM     25  C   UNL     1       6.228  -6.374  29.519  0.00  0.00    +0.000 C 
ATOM     26  C   UNL     1       4.996  -5.609  29.838  0.00  0.00    +0.000 C 
ATOM     27  N   UNL     1       4.786  -4.415  29.059  0.00  0.00    +0.000 N 
ATOM     28  C   UNL     1       3.738  -3.617  29.383  0.00  0.00    +0.000 C 
ATOM     29  O   UNL     1       3.984  -2.568  29.989  0.00  0.00    +0.000 OA
ATOM     30  C   UNL     1       5.414  -4.255  27.745  0.00  0.00    +0.000 C 
BRANCH  28  31
ATOM     31  C   UNL     1       2.407  -4.291  29.589  0.00  0.00    +0.000 C 
ATOM     32 CL   UNL     1       1.874  -5.108  28.109  0.00  0.00    +0.000 Cl
ENDBRANCH  28  31
ENDBRANCH  20  23
ENDBRANCH   1  17
TORSDOF 5
ENDMDL
MODEL 4
REMARK VINA RESULT:      -8.2      3.087      4.666
REMARK  Name = 
REMARK  5 active torsions:
REMARK  status: ('A' for Active; 'I' for Inactive)
REMARK    1  A    between atoms: C_5  and  C_6
REMARK    2  A    between atoms: C_16  and  C_18
REMARK    3  A    between atoms: C_18  and  C_21
REMARK    4  A    between atoms: C_26  and  C_27
REMARK    5  A    between atoms: C_37  and  C_39
REMARK                            x       y       z     vdW  Elec       q    Type
REMARK                         _______ _______ _______ _____ _____    ______ ____
ROOT
ATOM      1  C   UNL     1       8.576  -2.670  24.126  0.00  0.00    +0.000 C 
ENDROOT
BRANCH   1   7
ATOM      2  C   UNL     1      10.062   1.768  23.786  0.00  0.00    +0.000 C 
ATOM      3  O   UNL     1       9.795   1.913  22.354  0.00  0.00    +0.000 OA
ATOM      4  C   UNL     1       8.924   0.947  21.889  0.00  0.00    +0.000 C 
ATOM      5  C   UNL     1       9.810  -0.296  21.840  0.00  0.00    +0.000 C 
ATOM      6  N   UNL     1       9.807  -0.702  23.254  0.00  0.00    +0.000 N 
ATOM      7  C   UNL     1       9.822  -1.975  23.555  0.00  0.00    +0.000 C 
ATOM      8  O   UNL     1      10.743  -2.671  23.066  0.00  0.00    +0.000 OA
ATOM      9  C   UNL     1      10.219   0.373  24.189  0.00  0.00    +0.000 C 
BRANCH   2  12
ATOM     10  C   UNL     1       8.650   5.285  23.973  0.00  0.00    +0.000 A 
ATOM     11  C   UNL     1       9.711   4.208  23.853  0.00  0.00    +0.000 A 
ATOM     12  C   UNL     1       9.520   2.845  24.277  0.00  0.00    +0.000 A 
ATOM     13  C   UNL     1       8.286   2.723  25.080  0.00  0.00    +0.000 A 
ATOM     14  C   UNL     1       7.310   3.615  25.523  0.00  0.00    +0.000 A 
ATOM     15  C   UNL     1       7.619   5.002  24.965  0.00  0.00    +0.000 A 
ATOM     16  F   UNL     1       7.722   5.859  26.014  0.00  0.00    +0.000 F 
ENDBRANCH   2  12
ENDBRANCH   1   7
BRANCH   1  17
ATOM     17  C   UNL     1       7.782  -3.152  22.973  0.00  0.00    +0.000 A 
ATOM     18  C   UNL     1       7.825  -4.668  22.998  0.00  0.00    +0.000 A 
ATOM     19  C   UNL     1       6.691  -5.541  22.769  0.00  0.00    +0.000 A 
ATOM     20  C   UNL     1       5.313  -4.780  23.081  0.00  0.00    +0.000 A 
ATOM     21  C   UNL     1       5.163  -3.369  22.768  0.00  0.00    +0.000 A 
ATOM     22  C   UNL     1       6.515  -2.574  22.530  0.00  0.00    +0.000 A 
BRANCH  20  23
ATOM     23  C   UNL     1       5.015  -5.377  24.505  0.00  0.00    +0.000 C 
ATOM     24  O   UNL     1       4.728  -6.722  24.262  0.00  0.00    +0.000 OA
ATOM     25  C   UNL     1       4.078  -7.265  25.333  0.00  0.00    +0.000 C 
ATOM     26  C   UNL     1       4.513  -6.740  26.652  0.00  0.00    +0.000 C 
ATOM     27  N   UNL     1       5.734  -5.976  26.645  0.00  0.00    +0.000 N 
ATOM     28  C   UNL     1       6.241  -5.570  27.836  0.00  0.00    +0.000 C 
ATOM     29  O   UNL     1       7.220  -6.178  28.280  0.00  0.00    +0.000 OA
ATOM     30  C   UNL     1       6.209  -5.328  25.420  0.00  0.00    +0.000 C 
BRANCH  28  31
ATOM     31  C   UNL     1       5.279  -4.922  28.798  0.00  0.00    +0.000 C 
ATOM     32 CL   UNL     1       4.666  -3.391  28.149  0.00  0.00    +0.000 Cl
ENDBRANCH  28  31
ENDBRANCH  20  23
ENDBRANCH   1  17
TORSDOF 5
ENDMDL
MODEL 5
REMARK VINA RESULT:      -8.0      3.725      8.177
REMARK  Name = 
REMARK  5 active torsions:
REMARK  status: ('A' for Active; 'I' for Inactive)
REMARK    1  A    between atoms: C_5  and  C_6
REMARK    2  A    between atoms: C_16  and  C_18
REMARK    3  A    between atoms: C_18  and  C_21
REMARK    4  A    between atoms: C_26  and  C_27
REMARK    5  A    between atoms: C_37  and  C_39
REMARK                            x       y       z     vdW  Elec       q    Type
REMARK                         _______ _______ _______ _____ _____    ______ ____
ROOT
ATOM      1  C   UNL     1       9.094  -1.475  24.733  0.00  0.00    +0.000 C 
ENDROOT
BRANCH   1   7
ATOM      2  C   UNL     1       6.453  -5.346  24.990  0.00  0.00    +0.000 C 
ATOM      3  O   UNL     1       7.079  -5.882  26.200  0.00  0.00    +0.000 OA
ATOM      4  C   UNL     1       7.783  -4.915  26.891  0.00  0.00    +0.000 C 
ATOM      5  C   UNL     1       9.034  -4.745  26.032  0.00  0.00    +0.000 C 
ATOM      6  N   UNL     1       8.526  -3.879  24.959  0.00  0.00    +0.000 N 
ATOM      7  C   UNL     1       9.312  -2.969  24.443  0.00  0.00    +0.000 C 
ATOM      8  O   UNL     1      10.418  -3.352  23.994  0.00  0.00    +0.000 OA
ATOM      9  C   UNL     1       7.319  -4.409  24.278  0.00  0.00    +0.000 C 
BRANCH   2  12
ATOM     10  C   UNL     1       2.696  -4.874  24.740  0.00  0.00    +0.000 A 
ATOM     11  C   UNL     1       4.139  -4.491  25.005  0.00  0.00    +0.000 A 
ATOM     12  C   UNL     1       5.185  -5.446  25.269  0.00  0.00    +0.000 A 
ATOM     13  C   UNL     1       4.611  -6.784  25.519  0.00  0.00    +0.000 A 
ATOM     14  C   UNL     1       3.318  -7.304  25.578  0.00  0.00    +0.000 A 
ATOM     15  C   UNL     1       2.325  -6.195  25.237  0.00  0.00    +0.000 A 
ATOM     16  F   UNL     1       1.455  -6.083  26.275  0.00  0.00    +0.000 F 
ENDBRANCH   2  12
ENDBRANCH   1   7
BRANCH   1  17
ATOM     17  C   UNL     1      10.077  -0.728  23.916  0.00  0.00    +0.000 A 
ATOM     18  C   UNL     1       9.535  -0.674  22.499  0.00  0.00    +0.000 A 
ATOM     19  C   UNL     1       9.546   0.495  21.643  0.00  0.00    +0.000 A 
ATOM     20  C   UNL     1       9.623   1.839  22.514  0.00  0.00    +0.000 A 
ATOM     21  C   UNL     1      10.407   1.881  23.738  0.00  0.00    +0.000 A 
ATOM     22  C   UNL     1      10.790   0.470  24.352  0.00  0.00    +0.000 A 
BRANCH  20  23
ATOM     23  C   UNL     1       8.111   2.264  22.453  0.00  0.00    +0.000 C 
ATOM     24  O   UNL     1       7.602   1.569  21.355  0.00  0.00    +0.000 OA
ATOM     25  C   UNL     1       6.425   2.130  20.947  0.00  0.00    +0.000 C 
ATOM     26  C   UNL     1       5.582   2.666  22.046  0.00  0.00    +0.000 C 
ATOM     27  N   UNL     1       5.964   2.264  23.376  0.00  0.00    +0.000 N 
ATOM     28  C   UNL     1       5.164   2.629  24.408  0.00  0.00    +0.000 C 
ATOM     29  O   UNL     1       4.436   1.762  24.903  0.00  0.00    +0.000 OA
ATOM     30  C   UNL     1       7.332   1.826  23.664  0.00  0.00    +0.000 C 
BRANCH  28  31
ATOM     31  C   UNL     1       4.727   4.071  24.453  0.00  0.00    +0.000 C 
ATOM     32 CL   UNL     1       6.111   5.145  24.720  0.00  0.00    +0.000 Cl
ENDBRANCH  28  31
ENDBRANCH  20  23
ENDBRANCH   1  17
TORSDOF 5
ENDMDL
MODEL 6
REMARK VINA RESULT:      -7.9      2.873      3.942
REMARK  Name = 
REMARK  5 active torsions:
REMARK  status: ('A' for Active; 'I' for Inactive)
REMARK    1  A    between atoms: C_5  and  C_6
REMARK    2  A    between atoms: C_16  and  C_18
REMARK    3  A    between atoms: C_18  and  C_21
REMARK    4  A    between atoms: C_26  and  C_27
REMARK    5  A    between atoms: C_37  and  C_39
REMARK                            x       y       z     vdW  Elec       q    Type
REMARK                         _______ _______ _______ _____ _____    ______ ____
ROOT
ATOM      1  C   UNL     1       8.586  -2.506  23.098  0.00  0.00    +0.000 C 
ENDROOT
BRANCH   1   7
ATOM      2  C   UNL     1       9.269   2.043  24.029  0.00  0.00    +0.000 C 
ATOM      3  O   UNL     1       9.098   2.511  22.652  0.00  0.00    +0.000 OA
ATOM      4  C   UNL     1       8.457   1.576  21.862  0.00  0.00    +0.000 C 
ATOM      5  C   UNL     1       9.554   0.540  21.626  0.00  0.00    +0.000 C 
ATOM      6  N   UNL     1       9.509  -0.214  22.888  0.00  0.00    +0.000 N 
ATOM      7  C   UNL     1       9.728  -1.503  22.872  0.00  0.00    +0.000 C 
ATOM      8  O   UNL     1      10.797  -1.898  22.349  0.00  0.00    +0.000 OA
ATOM      9  C   UNL     1       9.642   0.632  24.099  0.00  0.00    +0.000 C 
BRANCH   2  12
ATOM     10  C   UNL     1       7.161   3.461  26.848  0.00  0.00    +0.000 A 
ATOM     11  C   UNL     1       7.524   2.538  25.701  0.00  0.00    +0.000 A 
ATOM     12  C   UNL     1       8.502   2.859  24.693  0.00  0.00    +0.000 A 
ATOM     13  C   UNL     1       8.877   4.286  24.774  0.00  0.00    +0.000 A 
ATOM     14  C   UNL     1       8.485   5.361  25.572  0.00  0.00    +0.000 A 
ATOM     15  C   UNL     1       7.485   4.864  26.614  0.00  0.00    +0.000 A 
ATOM     16  F   UNL     1       6.349   5.597  26.482  0.00  0.00    +0.000 F 
ENDBRANCH   2  12
ENDBRANCH   1   7
BRANCH   1  17
ATOM     17  C   UNL     1       8.661  -2.936  24.513  0.00  0.00    +0.000 A 
ATOM     18  C   UNL     1       7.354  -2.540  25.174  0.00  0.00    +0.000 A 
ATOM     19  C   UNL     1       6.589  -3.372  26.082  0.00  0.00    +0.000 A 
ATOM     20  C   UNL     1       6.924  -4.923  25.852  0.00  0.00    +0.000 A 
ATOM     21  C   UNL     1       8.273  -5.345  25.511  0.00  0.00    +0.000 A 
ATOM     22  C   UNL     1       9.230  -4.200  24.974  0.00  0.00    +0.000 A 
BRANCH  20  23
ATOM     23  C   UNL     1       5.663  -5.329  25.006  0.00  0.00    +0.000 C 
ATOM     24  O   UNL     1       6.165  -5.543  23.720  0.00  0.00    +0.000 OA
ATOM     25  C   UNL     1       5.149  -5.516  22.808  0.00  0.00    +0.000 C 
ATOM     26  C   UNL     1       3.864  -6.079  23.296  0.00  0.00    +0.000 C 
ATOM     27  N   UNL     1       3.940  -6.831  24.522  0.00  0.00    +0.000 N 
ATOM     28  C   UNL     1       2.822  -7.465  24.954  0.00  0.00    +0.000 C 
ATOM     29  O   UNL     1       2.761  -8.690  24.801  0.00  0.00    +0.000 OA
ATOM     30  C   UNL     1       5.040  -6.618  25.467  0.00  0.00    +0.000 C 
BRANCH  28  31
ATOM     31  C   UNL     1       1.548  -6.661  24.968  0.00  0.00    +0.000 C 
ATOM     32 CL   UNL     1       1.748  -5.169  25.904  0.00  0.00    +0.000 Cl
ENDBRANCH  28  31
ENDBRANCH  20  23
ENDBRANCH   1  17
TORSDOF 5
ENDMDL
MODEL 7
REMARK VINA RESULT:      -7.8      4.335      9.424
REMARK  Name = 
REMARK  5 active torsions:
REMARK  status: ('A' for Active; 'I' for Inactive)
REMARK    1  A    between atoms: C_5  and  C_6
REMARK    2  A    between atoms: C_16  and  C_18
REMARK    3  A    between atoms: C_18  and  C_21
REMARK    4  A    between atoms: C_26  and  C_27
REMARK    5  A    between atoms: C_37  and  C_39
REMARK                            x       y       z     vdW  Elec       q    Type
REMARK                         _______ _______ _______ _____ _____    ______ ____
ROOT
ATOM      1  C   UNL     1       7.269  -2.428  23.070  0.00  0.00    +0.000 C 
ENDROOT
BRANCH   1   7
ATOM      2  C   UNL     1       6.051  -5.717  26.188  0.00  0.00    +0.000 C 
ATOM      3  O   UNL     1       7.415  -6.049  26.605  0.00  0.00    +0.000 OA
ATOM      4  C   UNL     1       8.318  -5.063  26.258  0.00  0.00    +0.000 C 
ATOM      5  C   UNL     1       8.471  -5.275  24.754  0.00  0.00    +0.000 C 
ATOM      6  N   UNL     1       7.261  -4.610  24.248  0.00  0.00    +0.000 N 
ATOM      7  C   UNL     1       7.312  -3.964  23.112  0.00  0.00    +0.000 C 
ATOM      8  O   UNL     1       7.723  -4.594  22.110  0.00  0.00    +0.000 OA
ATOM      9  C   UNL     1       6.004  -5.101  24.864  0.00  0.00    +0.000 C 
BRANCH   2  12
ATOM     10  C   UNL     1       5.505  -5.488  29.936  0.00  0.00    +0.000 A 
ATOM     11  C   UNL     1       5.786  -6.150  28.602  0.00  0.00    +0.000 A 
ATOM     12  C   UNL     1       5.443  -5.567  27.330  0.00  0.00    +0.000 A 
ATOM     13  C   UNL     1       4.552  -4.404  27.519  0.00  0.00    +0.000 A 
ATOM     14  C   UNL     1       3.968  -3.783  28.623  0.00  0.00    +0.000 A 
ATOM     15  C   UNL     1       4.453  -4.477  29.893  0.00  0.00    +0.000 A 
ATOM     16  F   UNL     1       3.358  -4.903  30.577  0.00  0.00    +0.000 F 
ENDBRANCH   2  12
ENDBRANCH   1   7
BRANCH   1  17
ATOM     17  C   UNL     1       8.468  -1.982  22.323  0.00  0.00    +0.000 A 
ATOM     18  C   UNL     1       8.062  -0.776  21.499  0.00  0.00    +0.000 A 
ATOM     19  C   UNL     1       8.841   0.437  21.350  0.00  0.00    +0.000 A 
ATOM     20  C   UNL     1       9.848   0.622  22.585  0.00  0.00    +0.000 A 
ATOM     21  C   UNL     1      10.490  -0.532  23.193  0.00  0.00    +0.000 A 
ATOM     22  C   UNL     1       9.822  -1.934  22.869  0.00  0.00    +0.000 A 
BRANCH  20  23
ATOM     23  C   UNL     1       9.037   1.684  23.413  0.00  0.00    +0.000 C 
ATOM     24  O   UNL     1       8.879   1.094  24.669  0.00  0.00    +0.000 OA
ATOM     25  C   UNL     1       7.875   1.715  25.357  0.00  0.00    +0.000 C 
ATOM     26  C   UNL     1       7.769   3.175  25.113  0.00  0.00    +0.000 C 
ATOM     27  N   UNL     1       8.892   3.777  24.440  0.00  0.00    +0.000 N 
ATOM     28  C   UNL     1       8.901   5.126  24.294  0.00  0.00    +0.000 C 
ATOM     29  O   UNL     1       9.645   5.778  25.035  0.00  0.00    +0.000 OA
ATOM     30  C   UNL     1       9.791   2.971  23.610  0.00  0.00    +0.000 C 
BRANCH  28  31
ATOM     31  C   UNL     1       7.639   5.762  23.773  0.00  0.00    +0.000 C 
ATOM     32 CL   UNL     1       7.307   5.247  22.110  0.00  0.00    +0.000 Cl
ENDBRANCH  28  31
ENDBRANCH  20  23
ENDBRANCH   1  17
TORSDOF 5
ENDMDL
MODEL 8
REMARK VINA RESULT:      -7.7      2.535      3.404
REMARK  Name = 
REMARK  5 active torsions:
REMARK  status: ('A' for Active; 'I' for Inactive)
REMARK    1  A    between atoms: C_5  and  C_6
REMARK    2  A    between atoms: C_16  and  C_18
REMARK    3  A    between atoms: C_18  and  C_21
REMARK    4  A    between atoms: C_26  and  C_27
REMARK    5  A    between atoms: C_37  and  C_39
REMARK                            x       y       z     vdW  Elec       q    Type
REMARK                         _______ _______ _______ _____ _____    ______ ____
ROOT
ATOM      1  C   UNL     1       9.287  -2.994  24.228  0.00  0.00    +0.000 C 
ENDROOT
BRANCH   1   7
ATOM      2  C   UNL     1       7.155   0.610  22.108  0.00  0.00    +0.000 C 
ATOM      3  O   UNL     1       8.158   1.616  22.465  0.00  0.00    +0.000 OA
ATOM      4  C   UNL     1       9.356   1.042  22.845  0.00  0.00    +0.000 C 
ATOM      5  C   UNL     1       9.038   0.517  24.243  0.00  0.00    +0.000 C 
ATOM      6  N   UNL     1       8.324  -0.728  23.923  0.00  0.00    +0.000 N 
ATOM      7  C   UNL     1       8.479  -1.773  24.696  0.00  0.00    +0.000 C 
ATOM      8  O   UNL     1       8.245  -1.623  25.918  0.00  0.00    +0.000 OA
ATOM      9  C   UNL     1       7.174  -0.543  23.005  0.00  0.00    +0.000 C 
BRANCH   2  12
ATOM     10  C   UNL     1       7.072  -0.025  18.368  0.00  0.00    +0.000 A 
ATOM     11  C   UNL     1       7.688   0.199  19.735  0.00  0.00    +0.000 A 
ATOM     12  C   UNL     1       6.995   0.822  20.833  0.00  0.00    +0.000 A 
ATOM     13  C   UNL     1       5.742   1.448  20.364  0.00  0.00    +0.000 A 
ATOM     14  C   UNL     1       5.115   1.585  19.126  0.00  0.00    +0.000 A 
ATOM     15  C   UNL     1       5.936   0.843  18.074  0.00  0.00    +0.000 A 
ATOM     16  F   UNL     1       6.259   1.731  17.097  0.00  0.00    +0.000 F 
ENDBRANCH   2  12
ENDBRANCH   1   7
BRANCH   1  17
ATOM     17  C   UNL     1       8.313  -3.996  23.739  0.00  0.00    +0.000 A 
ATOM     18  C   UNL     1       7.832  -4.783  24.944  0.00  0.00    +0.000 A 
ATOM     19  C   UNL     1       6.456  -5.154  25.206  0.00  0.00    +0.000 A 
ATOM     20  C   UNL     1       5.444  -4.167  24.448  0.00  0.00    +0.000 A 
ATOM     21  C   UNL     1       5.772  -3.643  23.132  0.00  0.00    +0.000 A 
ATOM     22  C   UNL     1       7.299  -3.746  22.717  0.00  0.00    +0.000 A 
BRANCH  20  23
ATOM     23  C   UNL     1       5.039  -3.248  25.658  0.00  0.00    +0.000 C 
ATOM     24  O   UNL     1       4.858  -1.987  25.087  0.00  0.00    +0.000 OA
ATOM     25  C   UNL     1       4.890  -1.023  26.054  0.00  0.00    +0.000 C 
ATOM     26  C   UNL     1       4.300  -1.432  27.354  0.00  0.00    +0.000 C 
ATOM     27  N   UNL     1       3.524  -2.645  27.331  0.00  0.00    +0.000 N 
ATOM     28  C   UNL     1       2.866  -3.005  28.461  0.00  0.00    +0.000 C 
ATOM     29  O   UNL     1       1.644  -2.825  28.495  0.00  0.00    +0.000 OA
ATOM     30  C   UNL     1       3.733  -3.651  26.285  0.00  0.00    +0.000 C 
BRANCH  28  31
ATOM     31  C   UNL     1       3.653  -2.968  29.745  0.00  0.00    +0.000 C 
ATOM     32 CL   UNL     1       4.673  -4.408  29.907  0.00  0.00    +0.000 Cl
ENDBRANCH  28  31
ENDBRANCH  20  23
ENDBRANCH   1  17
TORSDOF 5
ENDMDL
MODEL 9
REMARK VINA RESULT:      -7.5      3.241      5.712
REMARK  Name = 
REMARK  5 active torsions:
REMARK  status: ('A' for Active; 'I' for Inactive)
REMARK    1  A    between atoms: C_5  and  C_6
REMARK    2  A    between atoms: C_16  and  C_18
REMARK    3  A    between atoms: C_18  and  C_21
REMARK    4  A    between atoms: C_26  and  C_27
REMARK    5  A    between atoms: C_37  and  C_39
REMARK                            x       y       z     vdW  Elec       q    Type
REMARK                         _______ _______ _______ _____ _____    ______ ____
ROOT
ATOM      1  C   UNL     1       5.169  -3.217  22.851  0.00  0.00    +0.000 C 
ENDROOT
BRANCH   1   7
ATOM      2  C   UNL     1       8.690  -0.581  21.214  0.00  0.00    +0.000 C 
ATOM      3  O   UNL     1       7.880   0.195  20.273  0.00  0.00    +0.000 OA
ATOM      4  C   UNL     1       6.531   0.119  20.564  0.00  0.00    +0.000 C 
ATOM      5  C   UNL     1       6.172  -1.286  20.085  0.00  0.00    +0.000 C 
ATOM      6  N   UNL     1       6.656  -2.102  21.208  0.00  0.00    +0.000 N 
ATOM      7  C   UNL     1       5.993  -3.175  21.554  0.00  0.00    +0.000 C 
ATOM      8  O   UNL     1       5.776  -4.029  20.661  0.00  0.00    +0.000 OA
ATOM      9  C   UNL     1       8.078  -1.861  21.558  0.00  0.00    +0.000 C 
BRANCH   2  12
ATOM     10  C   UNL     1       9.468   2.700  22.954  0.00  0.00    +0.000 A 
ATOM     11  C   UNL     1       9.139   1.773  21.801  0.00  0.00    +0.000 A 
ATOM     12  C   UNL     1       9.362   0.350  21.830  0.00  0.00    +0.000 A 
ATOM     13  C   UNL     1      10.192  -0.019  22.995  0.00  0.00    +0.000 A 
ATOM     14  C   UNL     1      10.808   0.689  24.026  0.00  0.00    +0.000 A 
ATOM     15  C   UNL     1      10.451   2.167  23.891  0.00  0.00    +0.000 A 
ATOM     16  F   UNL     1      11.612   2.869  23.809  0.00  0.00    +0.000 F 
ENDBRANCH   2  12
ENDBRANCH   1   7
BRANCH   1  17
ATOM     17  C   UNL     1       5.746  -4.288  23.695  0.00  0.00    +0.000 A 
ATOM     18  C   UNL     1       7.200  -3.933  23.942  0.00  0.00    +0.000 A 
ATOM     19  C   UNL     1       7.883  -4.040  25.216  0.00  0.00    +0.000 A 
ATOM     20  C   UNL     1       6.836  -3.990  26.430  0.00  0.00    +0.000 A 
ATOM     21  C   UNL     1       5.527  -4.609  26.302  0.00  0.00    +0.000 A 
ATOM     22  C   UNL     1       5.063  -4.925  24.819  0.00  0.00    +0.000 A 
BRANCH  20  23
ATOM     23  C   UNL     1       7.034  -2.493  26.869  0.00  0.00    +0.000 C 
ATOM     24  O   UNL     1       8.229  -2.110  26.257  0.00  0.00    +0.000 OA
ATOM     25  C   UNL     1       8.723  -0.986  26.854  0.00  0.00    +0.000 C 
ATOM     26  C   UNL     1       7.690  -0.025  27.317  0.00  0.00    +0.000 C 
ATOM     27  N   UNL     1       6.357  -0.257  26.820  0.00  0.00    +0.000 N 
ATOM     28  C   UNL     1       5.397   0.653  27.116  0.00  0.00    +0.000 C 
ATOM     29  O   UNL     1       5.048   1.430  26.221  0.00  0.00    +0.000 OA
ATOM     30  C   UNL     1       5.951  -1.586  26.352  0.00  0.00    +0.000 C 
BRANCH  28  31
ATOM     31  C   UNL     1       5.298   1.093  28.554  0.00  0.00    +0.000 C 
ATOM     32 CL   UNL     1       4.537  -0.160  29.550  0.00  0.00    +0.000 Cl
ENDBRANCH  28  31
ENDBRANCH  20  23
ENDBRANCH   1  17
TORSDOF 5
ENDMDL
