MODEL 1
REMARK VINA RESULT:      -8.7      0.000      0.000
REMARK  Name = 
REMARK  6 active torsions:
REMARK  status: ('A' for Active; 'I' for Inactive)
REMARK    1  A    between atoms: C_7  and  C_8
REMARK    2  A    between atoms: N_10  and  C_12
REMARK    3  A    between atoms: C_21  and  C_23
REMARK    4  A    between atoms: C_28  and  S_29
REMARK    5  A    between atoms: S_29  and  N_32
REMARK    6  A    between atoms: C_40  and  C_42
REMARK                            x       y       z     vdW  Elec       q    Type
REMARK                         _______ _______ _______ _____ _____    ______ ____
ROOT
ATOM      1  C   UNL     1       8.561  -2.853  25.800  0.00  0.00    +0.000 A 
ATOM      2  C   UNL     1       8.083  -3.961  26.502  0.00  0.00    +0.000 A 
ATOM      3  C   UNL     1       6.760  -4.347  27.074  0.00  0.00    +0.000 A 
ATOM      4  C   UNL     1       5.810  -3.191  26.633  0.00  0.00    +0.000 A 
ATOM      5  C   UNL     1       6.152  -1.791  26.413  0.00  0.00    +0.000 A 
ATOM      6  C   UNL     1       7.591  -1.721  25.857  0.00  0.00    +0.000 A 
ENDROOT
BRANCH   1  11
ATOM      7  C   UNL     1       8.669   0.076  22.264  0.00  0.00    +0.000 C 
ATOM      8  C   UNL     1       7.406  -0.612  22.603  0.00  0.00    +0.000 C 
ATOM      9  C   UNL     1       7.518  -2.041  23.047  0.00  0.00    +0.000 C 
ATOM     10  N   UNL     1       8.810  -2.359  23.627  0.00  0.00    +0.000 N 
ATOM     11  C   UNL     1       8.826  -3.429  24.481  0.00  0.00    +0.000 C 
ATOM     12  O   UNL     1       9.717  -4.254  24.377  0.00  0.00    +0.000 OA
ATOM     13  C   UNL     1      10.029  -1.944  23.004  0.00  0.00    +0.000 C 
ATOM     14  C   UNL     1       9.819  -0.847  21.994  0.00  0.00    +0.000 C 
BRANCH   7  17
ATOM     15  C   UNL     1       9.139   2.425  22.735  0.00  0.00    +0.000 C 
ATOM     16  O   UNL     1       8.175   2.978  22.212  0.00  0.00    +0.000 OA
ATOM     17  N   UNL     1       9.001   1.152  23.172  0.00  0.00    +0.000 N 
ATOM     18  H   UNL     1       8.461   1.251  23.986  0.00  0.00    +0.000 HD
BRANCH  15  22
ATOM     19  C   UNL     1      11.308   5.859  23.673  0.00  0.00    +0.000 A 
ATOM     20  C   UNL     1       9.819   5.669  23.897  0.00  0.00    +0.000 A 
ATOM     21  C   UNL     1       9.086   4.421  24.079  0.00  0.00    +0.000 A 
ATOM     22  C   UNL     1       9.962   3.205  23.674  0.00  0.00    +0.000 A 
ATOM     23  C   UNL     1      11.417   3.189  23.507  0.00  0.00    +0.000 A 
ATOM     24  C   UNL     1      11.999   4.643  23.284  0.00  0.00    +0.000 A 
ENDBRANCH  15  22
ENDBRANCH   7  17
ENDBRANCH   1  11
BRANCH   4  25
ATOM     25  S   UNL     1       4.324  -3.849  26.218  0.00  0.00    +0.000 S 
ATOM     26  O   UNL     1       3.519  -3.593  27.569  0.00  0.00    +0.000 OA
ATOM     27  O   UNL     1       3.795  -2.612  25.359  0.00  0.00    +0.000 OA
BRANCH  25  28
ATOM     28  N   UNL     1       3.645  -5.052  25.620  0.00  0.00    +0.000 NA
ATOM     29  C   UNL     1       3.849  -6.407  25.656  0.00  0.00    +0.000 C 
ATOM     30  C   UNL     1       4.470  -6.935  24.339  0.00  0.00    +0.000 C 
ATOM     31  N   UNL     1       4.082  -5.964  23.288  0.00  0.00    +0.000 N 
ATOM     32  C   UNL     1       4.979  -5.055  22.865  0.00  0.00    +0.000 C 
ATOM     33  O   UNL     1       4.648  -3.881  22.643  0.00  0.00    +0.000 OA
ATOM     34  C   UNL     1       2.674  -5.551  23.431  0.00  0.00    +0.000 C 
ATOM     35  C   UNL     1       2.577  -4.733  24.714  0.00  0.00    +0.000 C 
BRANCH  32  36
ATOM     36  C   UNL     1       6.343  -5.500  22.447  0.00  0.00    +0.000 C 
ATOM     37 CL   UNL     1       6.394  -5.850  20.706  0.00  0.00    +0.000 Cl
ENDBRANCH  32  36
ENDBRANCH  25  28
ENDBRANCH   4  25
TORSDOF 6
ENDMDL
MODEL 2
REMARK VINA RESULT:      -8.7      3.094      4.633
REMARK  Name = 
REMARK  6 active torsions:
REMARK  status: ('A' for Active; 'I' for Inactive)
REMARK    1  A    between atoms: C_7  and  C_8
REMARK    2  A    between atoms: N_10  and  C_12
REMARK    3  A    between atoms: C_21  and  C_23
REMARK    4  A    between atoms: C_28  and  S_29
REMARK    5  A    between atoms: S_29  and  N_32
REMARK    6  A    between atoms: C_40  and  C_42
REMARK                            x       y       z     vdW  Elec       q    Type
REMARK                         _______ _______ _______ _____ _____    ______ ____
ROOT
ATOM      1  C   UNL     1       7.235  -3.882  23.451  0.00  0.00    +0.000 A 
ATOM      2  C   UNL     1       6.018  -3.384  23.917  0.00  0.00    +0.000 A 
ATOM      3  C   UNL     1       4.712  -3.998  24.296  0.00  0.00    +0.000 A 
ATOM      4  C   UNL     1       4.966  -5.532  24.159  0.00  0.00    +0.000 A 
ATOM      5  C   UNL     1       5.872  -6.206  23.238  0.00  0.00    +0.000 A 
ATOM      6  C   UNL     1       7.105  -5.303  23.016  0.00  0.00    +0.000 A 
ENDROOT
BRANCH   1  11
ATOM      7  C   UNL     1       9.776  -0.061  23.235  0.00  0.00    +0.000 C 
ATOM      8  C   UNL     1      10.339  -1.340  22.755  0.00  0.00    +0.000 C 
ATOM      9  C   UNL     1       9.990  -2.567  23.547  0.00  0.00    +0.000 C 
ATOM     10  N   UNL     1       8.742  -2.438  24.276  0.00  0.00    +0.000 N 
ATOM     11  C   UNL     1       8.118  -3.618  24.588  0.00  0.00    +0.000 C 
ATOM     12  O   UNL     1       7.675  -3.770  25.714  0.00  0.00    +0.000 OA
ATOM     13  C   UNL     1       8.438  -1.265  25.035  0.00  0.00    +0.000 C 
ATOM     14  C   UNL     1       9.304  -0.092  24.657  0.00  0.00    +0.000 C 
BRANCH   7  17
ATOM     15  C   UNL     1       8.248  -0.207  21.336  0.00  0.00    +0.000 C 
ATOM     16  O   UNL     1       7.578  -1.192  21.636  0.00  0.00    +0.000 OA
ATOM     17  N   UNL     1       8.813   0.522  22.326  0.00  0.00    +0.000 N 
ATOM     18  H   UNL     1       8.051   1.007  22.712  0.00  0.00    +0.000 HD
BRANCH  15  22
ATOM     19  C   UNL     1       5.113   1.267  19.019  0.00  0.00    +0.000 A 
ATOM     20  C   UNL     1       5.553   1.822  20.360  0.00  0.00    +0.000 A 
ATOM     21  C   UNL     1       6.867   1.733  20.987  0.00  0.00    +0.000 A 
ATOM     22  C   UNL     1       7.747   0.675  20.269  0.00  0.00    +0.000 A 
ATOM     23  C   UNL     1       7.523   0.104  18.939  0.00  0.00    +0.000 A 
ATOM     24  C   UNL     1       6.022   0.277  18.470  0.00  0.00    +0.000 A 
ENDBRANCH  15  22
ENDBRANCH   7  17
ENDBRANCH   1  11
BRANCH   4  25
ATOM     25  S   UNL     1       4.184  -6.318  25.417  0.00  0.00    +0.000 S 
ATOM     26  O   UNL     1       3.884  -7.721  24.725  0.00  0.00    +0.000 OA
ATOM     27  O   UNL     1       5.491  -6.709  26.247  0.00  0.00    +0.000 OA
BRANCH  25  28
ATOM     28  N   UNL     1       3.096  -6.189  26.450  0.00  0.00    +0.000 NA
ATOM     29  C   UNL     1       1.829  -5.668  26.474  0.00  0.00    +0.000 C 
ATOM     30  C   UNL     1       1.775  -4.310  27.218  0.00  0.00    +0.000 C 
ATOM     31  N   UNL     1       2.921  -4.315  28.158  0.00  0.00    +0.000 N 
ATOM     32  C   UNL     1       4.036  -3.631  27.844  0.00  0.00    +0.000 C 
ATOM     33  O   UNL     1       5.162  -4.101  28.066  0.00  0.00    +0.000 OA
ATOM     34  C   UNL     1       3.060  -5.620  28.829  0.00  0.00    +0.000 C 
ATOM     35  C   UNL     1       3.479  -6.627  27.764  0.00  0.00    +0.000 C 
BRANCH  32  36
ATOM     36  C   UNL     1       3.933  -2.202  27.421  0.00  0.00    +0.000 C 
ATOM     37 CL   UNL     1       5.544  -1.485  27.201  0.00  0.00    +0.000 Cl
ENDBRANCH  32  36
ENDBRANCH  25  28
ENDBRANCH   4  25
TORSDOF 6
ENDMDL
MODEL 3
REMARK VINA RESULT:      -8.7      2.425      4.055
REMARK  Name = 
REMARK  6 active torsions:
REMARK  status: ('A' for Active; 'I' for Inactive)
REMARK    1  A    between atoms: C_7  and  C_8
REMARK    2  A    between atoms: N_10  and  C_12
REMARK    3  A    between atoms: C_21  and  C_23
REMARK    4  A    between atoms: C_28  and  S_29
REMARK    5  A    between atoms: S_29  and  N_32
REMARK    6  A    between atoms: C_40  and  C_42
REMARK                            x       y       z     vdW  Elec       q    Type
REMARK                         _______ _______ _______ _____ _____    ______ ____
ROOT
ATOM      1  C   UNL     1       9.218  -2.105  24.238  0.00  0.00    +0.000 A 
ATOM      2  C   UNL     1       7.829  -2.033  24.127  0.00  0.00    +0.000 A 
ATOM      3  C   UNL     1       6.701  -2.939  24.492  0.00  0.00    +0.000 A 
ATOM      4  C   UNL     1       7.400  -4.136  25.208  0.00  0.00    +0.000 A 
ATOM      5  C   UNL     1       8.736  -4.664  24.965  0.00  0.00    +0.000 A 
ATOM      6  C   UNL     1       9.660  -3.491  24.571  0.00  0.00    +0.000 A 
ENDROOT
BRANCH   1  11
ATOM      7  C   UNL     1       9.189   2.239  22.744  0.00  0.00    +0.000 C 
ATOM      8  C   UNL     1      10.463   1.490  22.788  0.00  0.00    +0.000 C 
ATOM      9  C   UNL     1      10.662   0.572  23.958  0.00  0.00    +0.000 C 
ATOM     10  N   UNL     1       9.415   0.109  24.539  0.00  0.00    +0.000 N 
ATOM     11  C   UNL     1       9.491  -1.068  25.235  0.00  0.00    +0.000 C 
ATOM     12  O   UNL     1       8.940  -1.148  26.320  0.00  0.00    +0.000 OA
ATOM     13  C   UNL     1       8.337   1.011  24.804  0.00  0.00    +0.000 C 
ATOM     14  C   UNL     1       8.475   2.312  24.060  0.00  0.00    +0.000 C 
BRANCH   7  17
ATOM     15  C   UNL     1       7.003   2.120  21.664  0.00  0.00    +0.000 C 
ATOM     16  O   UNL     1       6.639   3.292  21.718  0.00  0.00    +0.000 OA
ATOM     17  N   UNL     1       8.329   1.851  21.648  0.00  0.00    +0.000 N 
ATOM     18  H   UNL     1       8.600   2.105  20.738  0.00  0.00    +0.000 HD
BRANCH  15  22
ATOM     19  C   UNL     1       6.404   0.498  17.872  0.00  0.00    +0.000 A 
ATOM     20  C   UNL     1       7.375  -0.028  18.911  0.00  0.00    +0.000 A 
ATOM     21  C   UNL     1       7.315   0.121  20.361  0.00  0.00    +0.000 A 
ATOM     22  C   UNL     1       6.283   1.210  20.758  0.00  0.00    +0.000 A 
ATOM     23  C   UNL     1       5.221   1.762  19.914  0.00  0.00    +0.000 A 
ATOM     24  C   UNL     1       5.507   1.523  18.376  0.00  0.00    +0.000 A 
ENDBRANCH  15  22
ENDBRANCH   7  17
ENDBRANCH   1  11
BRANCH   4  25
ATOM     25  S   UNL     1       6.446  -4.615  26.502  0.00  0.00    +0.000 S 
ATOM     26  O   UNL     1       7.578  -5.029  27.544  0.00  0.00    +0.000 OA
ATOM     27  O   UNL     1       6.108  -3.154  27.049  0.00  0.00    +0.000 OA
BRANCH  25  28
ATOM     28  N   UNL     1       5.265  -5.460  26.903  0.00  0.00    +0.000 NA
ATOM     29  C   UNL     1       4.942  -6.789  26.820  0.00  0.00    +0.000 C 
ATOM     30  C   UNL     1       3.910  -7.065  25.698  0.00  0.00    +0.000 C 
ATOM     31  N   UNL     1       3.170  -5.794  25.504  0.00  0.00    +0.000 N 
ATOM     32  C   UNL     1       3.478  -5.004  24.460  0.00  0.00    +0.000 C 
ATOM     33  O   UNL     1       3.532  -3.770  24.582  0.00  0.00    +0.000 OA
ATOM     34  C   UNL     1       2.840  -5.163  26.795  0.00  0.00    +0.000 C 
ATOM     35  C   UNL     1       4.154  -4.708  27.418  0.00  0.00    +0.000 C 
BRANCH  32  36
ATOM     36  C   UNL     1       3.546  -5.585  23.086  0.00  0.00    +0.000 C 
ATOM     37 CL   UNL     1       5.223  -5.651  22.504  0.00  0.00    +0.000 Cl
ENDBRANCH  32  36
ENDBRANCH  25  28
ENDBRANCH   4  25
TORSDOF 6
ENDMDL
MODEL 4
REMARK VINA RESULT:      -8.3      2.986      9.024
REMARK  Name = 
REMARK  6 active torsions:
REMARK  status: ('A' for Active; 'I' for Inactive)
REMARK    1  A    between atoms: C_7  and  C_8
REMARK    2  A    between atoms: N_10  and  C_12
REMARK    3  A    between atoms: C_21  and  C_23
REMARK    4  A    between atoms: C_28  and  S_29
REMARK    5  A    between atoms: S_29  and  N_32
REMARK    6  A    between atoms: C_40  and  C_42
REMARK                            x       y       z     vdW  Elec       q    Type
REMARK                         _______ _______ _______ _____ _____    ______ ____
ROOT
ATOM      1  C   UNL     1       8.360  -2.088  22.996  0.00  0.00    +0.000 A 
ATOM      2  C   UNL     1       9.083  -1.383  22.034  0.00  0.00    +0.000 A 
ATOM      3  C   UNL     1       9.167   0.050  21.629  0.00  0.00    +0.000 A 
ATOM      4  C   UNL     1       8.249   0.783  22.656  0.00  0.00    +0.000 A 
ATOM      5  C   UNL     1       7.063   0.261  23.323  0.00  0.00    +0.000 A 
ATOM      6  C   UNL     1       7.266  -1.250  23.569  0.00  0.00    +0.000 A 
ENDROOT
BRANCH   1  11
ATOM      7  C   UNL     1       7.069  -4.628  26.600  0.00  0.00    +0.000 C 
ATOM      8  C   UNL     1       7.165  -3.159  26.738  0.00  0.00    +0.000 C 
ATOM      9  C   UNL     1       8.302  -2.490  26.023  0.00  0.00    +0.000 C 
ATOM     10  N   UNL     1       8.775  -3.242  24.875  0.00  0.00    +0.000 N 
ATOM     11  C   UNL     1       9.420  -2.507  23.915  0.00  0.00    +0.000 C 
ATOM     12  O   UNL     1      10.459  -2.935  23.444  0.00  0.00    +0.000 OA
ATOM     13  C   UNL     1       9.007  -4.651  24.950  0.00  0.00    +0.000 C 
ATOM     14  C   UNL     1       8.334  -5.286  26.139  0.00  0.00    +0.000 C 
BRANCH   7  17
ATOM     15  C   UNL     1       5.528  -6.364  25.842  0.00  0.00    +0.000 C 
ATOM     16  O   UNL     1       5.244  -6.918  26.900  0.00  0.00    +0.000 OA
ATOM     17  N   UNL     1       5.900  -5.062  25.868  0.00  0.00    +0.000 N 
ATOM     18  H   UNL     1       5.053  -4.591  26.029  0.00  0.00    +0.000 HD
BRANCH  15  22
ATOM     19  C   UNL     1       2.298  -5.391  23.394  0.00  0.00    +0.000 A 
ATOM     20  C   UNL     1       3.709  -4.854  23.245  0.00  0.00    +0.000 A 
ATOM     21  C   UNL     1       4.959  -5.466  23.682  0.00  0.00    +0.000 A 
ATOM     22  C   UNL     1       4.683  -6.634  24.667  0.00  0.00    +0.000 A 
ATOM     23  C   UNL     1       3.410  -7.330  24.868  0.00  0.00    +0.000 A 
ATOM     24  C   UNL     1       2.183  -6.470  24.358  0.00  0.00    +0.000 A 
ENDBRANCH  15  22
ENDBRANCH   7  17
ENDBRANCH   1  11
BRANCH   4  25
ATOM     25  S   UNL     1       8.968   2.240  23.071  0.00  0.00    +0.000 S 
ATOM     26  O   UNL     1       9.620   1.840  24.469  0.00  0.00    +0.000 OA
ATOM     27  O   UNL     1      10.252   2.100  22.134  0.00  0.00    +0.000 OA
BRANCH  25  28
ATOM     28  N   UNL     1       8.741   3.724  23.195  0.00  0.00    +0.000 NA
ATOM     29  C   UNL     1       9.387   4.762  23.814  0.00  0.00    +0.000 C 
ATOM     30  C   UNL     1       8.654   5.217  25.100  0.00  0.00    +0.000 C 
ATOM     31  N   UNL     1       7.234   4.828  24.919  0.00  0.00    +0.000 N 
ATOM     32  C   UNL     1       6.768   3.728  25.536  0.00  0.00    +0.000 C 
ATOM     33  O   UNL     1       5.997   2.946  24.959  0.00  0.00    +0.000 OA
ATOM     34  C   UNL     1       6.767   5.123  23.553  0.00  0.00    +0.000 C 
ATOM     35  C   UNL     1       7.508   4.179  22.613  0.00  0.00    +0.000 C 
BRANCH  32  36
ATOM     36  C   UNL     1       6.999   3.545  27.001  0.00  0.00    +0.000 C 
ATOM     37 CL   UNL     1       7.083   1.822  27.423  0.00  0.00    +0.000 Cl
ENDBRANCH  32  36
ENDBRANCH  25  28
ENDBRANCH   4  25
TORSDOF 6
ENDMDL
MODEL 5
REMARK VINA RESULT:      -8.2      2.655      8.099
REMARK  Name = 
REMARK  6 active torsions:
REMARK  status: ('A' for Active; 'I' for Inactive)
REMARK    1  A    between atoms: C_7  and  C_8
REMARK    2  A    between atoms: N_10  and  C_12
REMARK    3  A    between atoms: C_21  and  C_23
REMARK    4  A    between atoms: C_28  and  S_29
REMARK    5  A    between atoms: S_29  and  N_32
REMARK    6  A    between atoms: C_40  and  C_42
REMARK                            x       y       z     vdW  Elec       q    Type
REMARK                         _______ _______ _______ _____ _____    ______ ____
ROOT
ATOM      1  C   UNL     1       8.527  -3.077  23.527  0.00  0.00    +0.000 A 
ATOM      2  C   UNL     1       7.569  -2.893  24.524  0.00  0.00    +0.000 A 
ATOM      3  C   UNL     1       7.289  -1.821  25.523  0.00  0.00    +0.000 A 
ATOM      4  C   UNL     1       8.335  -0.713  25.185  0.00  0.00    +0.000 A 
ATOM      5  C   UNL     1       9.670  -0.887  24.626  0.00  0.00    +0.000 A 
ATOM      6  C   UNL     1       9.643  -2.096  23.665  0.00  0.00    +0.000 A 
ENDROOT
BRANCH   1  11
ATOM      7  C   UNL     1       5.138  -6.146  23.086  0.00  0.00    +0.000 C 
ATOM      8  C   UNL     1       6.462  -6.430  22.494  0.00  0.00    +0.000 C 
ATOM      9  C   UNL     1       7.185  -5.269  21.877  0.00  0.00    +0.000 C 
ATOM     10  N   UNL     1       6.792  -3.989  22.437  0.00  0.00    +0.000 N 
ATOM     11  C   UNL     1       7.713  -2.983  22.314  0.00  0.00    +0.000 C 
ATOM     12  O   UNL     1       7.339  -1.881  21.950  0.00  0.00    +0.000 OA
ATOM     13  C   UNL     1       5.416  -3.655  22.640  0.00  0.00    +0.000 C 
ATOM     14  C   UNL     1       4.518  -4.864  22.617  0.00  0.00    +0.000 C 
BRANCH   7  17
ATOM     15  C   UNL     1       4.002  -6.778  25.153  0.00  0.00    +0.000 C 
ATOM     16  O   UNL     1       3.603  -7.906  24.877  0.00  0.00    +0.000 OA
ATOM     17  N   UNL     1       5.103  -6.305  24.523  0.00  0.00    +0.000 N 
ATOM     18  H   UNL     1       5.836  -6.801  24.950  0.00  0.00    +0.000 HD
BRANCH  15  22
ATOM     19  C   UNL     1       5.397  -4.322  28.217  0.00  0.00    +0.000 A 
ATOM     20  C   UNL     1       4.227  -4.011  27.304  0.00  0.00    +0.000 A 
ATOM     21  C   UNL     1       3.371  -4.947  26.582  0.00  0.00    +0.000 A 
ATOM     22  C   UNL     1       4.001  -6.365  26.566  0.00  0.00    +0.000 A 
ATOM     23  C   UNL     1       5.068  -6.862  27.438  0.00  0.00    +0.000 A 
ATOM     24  C   UNL     1       5.895  -5.679  28.087  0.00  0.00    +0.000 A 
ENDBRANCH  15  22
ENDBRANCH   7  17
ENDBRANCH   1  11
BRANCH   4  25
ATOM     25  S   UNL     1       7.599   0.785  25.354  0.00  0.00    +0.000 S 
ATOM     26  O   UNL     1       6.082   0.383  25.080  0.00  0.00    +0.000 OA
ATOM     27  O   UNL     1       7.578   0.815  26.950  0.00  0.00    +0.000 OA
BRANCH  25  28
ATOM     28  N   UNL     1       7.665   2.232  24.942  0.00  0.00    +0.000 NA
ATOM     29  C   UNL     1       6.748   3.227  24.719  0.00  0.00    +0.000 C 
ATOM     30  C   UNL     1       6.542   3.497  23.208  0.00  0.00    +0.000 C 
ATOM     31  N   UNL     1       7.793   3.060  22.542  0.00  0.00    +0.000 N 
ATOM     32  C   UNL     1       7.823   1.876  21.906  0.00  0.00    +0.000 C 
ATOM     33  O   UNL     1       8.807   1.125  21.990  0.00  0.00    +0.000 OA
ATOM     34  C   UNL     1       8.983   3.481  23.304  0.00  0.00    +0.000 C 
ATOM     35  C   UNL     1       8.985   2.687  24.605  0.00  0.00    +0.000 C 
BRANCH  32  36
ATOM     36  C   UNL     1       6.759   1.542  20.911  0.00  0.00    +0.000 C 
ATOM     37 CL   UNL     1       7.414   0.563  19.581  0.00  0.00    +0.000 Cl
ENDBRANCH  32  36
ENDBRANCH  25  28
ENDBRANCH   4  25
TORSDOF 6
ENDMDL
MODEL 6
REMARK VINA RESULT:      -8.1      2.739      4.495
REMARK  Name = 
REMARK  6 active torsions:
REMARK  status: ('A' for Active; 'I' for Inactive)
REMARK    1  A    between atoms: C_7  and  C_8
REMARK    2  A    between atoms: N_10  and  C_12
REMARK    3  A    between atoms: C_21  and  C_23
REMARK    4  A    between atoms: C_28  and  S_29
REMARK    5  A    between atoms: S_29  and  N_32
REMARK    6  A    between atoms: C_40  and  C_42
REMARK                            x       y       z     vdW  Elec       q    Type
REMARK                         _______ _______ _______ _____ _____    ______ ____
ROOT
ATOM      1  C   UNL     1       9.377  -2.883  24.390  0.00  0.00    +0.000 A 
ATOM      2  C   UNL     1       8.491  -2.309  23.478  0.00  0.00    +0.000 A 
ATOM      3  C   UNL     1       7.221  -2.750  22.831  0.00  0.00    +0.000 A 
ATOM      4  C   UNL     1       6.928  -4.135  23.489  0.00  0.00    +0.000 A 
ATOM      5  C   UNL     1       7.893  -5.107  23.988  0.00  0.00    +0.000 A 
ATOM      6  C   UNL     1       9.108  -4.342  24.556  0.00  0.00    +0.000 A 
ENDROOT
BRANCH   1  11
ATOM      7  C   UNL     1       8.531   1.563  23.608  0.00  0.00    +0.000 C 
ATOM      8  C   UNL     1       9.921   1.114  23.837  0.00  0.00    +0.000 C 
ATOM      9  C   UNL     1      10.118   0.041  24.868  0.00  0.00    +0.000 C 
ATOM     10  N   UNL     1       8.942  -0.787  25.061  0.00  0.00    +0.000 N 
ATOM     11  C   UNL     1       9.179  -2.038  25.568  0.00  0.00    +0.000 C 
ATOM     12  O   UNL     1       8.468  -2.454  26.467  0.00  0.00    +0.000 OA
ATOM     13  C   UNL     1       7.639  -0.213  25.198  0.00  0.00    +0.000 C 
ATOM     14  C   UNL     1       7.582   1.212  24.713  0.00  0.00    +0.000 C 
BRANCH   7  17
ATOM     15  C   UNL     1       6.897   1.797  21.809  0.00  0.00    +0.000 C 
ATOM     16  O   UNL     1       6.861   3.016  21.668  0.00  0.00    +0.000 OA
ATOM     17  N   UNL     1       8.027   1.231  22.294  0.00  0.00    +0.000 N 
ATOM     18  H   UNL     1       8.648   1.284  21.535  0.00  0.00    +0.000 HD
BRANCH  15  22
ATOM     19  C   UNL     1       6.654   0.651  17.810  0.00  0.00    +0.000 A 
ATOM     20  C   UNL     1       7.615   0.077  18.833  0.00  0.00    +0.000 A 
ATOM     21  C   UNL     1       7.465   0.024  20.283  0.00  0.00    +0.000 A 
ATOM     22  C   UNL     1       6.315   0.956  20.750  0.00  0.00    +0.000 A 
ATOM     23  C   UNL     1       5.251   1.522  19.917  0.00  0.00    +0.000 A 
ATOM     24  C   UNL     1       5.639   1.516  18.382  0.00  0.00    +0.000 A 
ENDBRANCH  15  22
ENDBRANCH   7  17
ENDBRANCH   1  11
BRANCH   4  25
ATOM     25  S   UNL     1       5.277  -4.261  23.755  0.00  0.00    +0.000 S 
ATOM     26  O   UNL     1       5.047  -2.991  24.689  0.00  0.00    +0.000 OA
ATOM     27  O   UNL     1       4.805  -3.648  22.359  0.00  0.00    +0.000 OA
BRANCH  25  28
ATOM     28  N   UNL     1       4.172  -5.203  24.155  0.00  0.00    +0.000 NA
ATOM     29  C   UNL     1       2.905  -5.064  24.659  0.00  0.00    +0.000 C 
ATOM     30  C   UNL     1       2.840  -5.409  26.167  0.00  0.00    +0.000 C 
ATOM     31  N   UNL     1       3.971  -6.334  26.423  0.00  0.00    +0.000 N 
ATOM     32  C   UNL     1       5.091  -5.863  26.999  0.00  0.00    +0.000 C 
ATOM     33  O   UNL     1       6.214  -6.223  26.612  0.00  0.00    +0.000 OA
ATOM     34  C   UNL     1       4.098  -7.337  25.349  0.00  0.00    +0.000 C 
ATOM     35  C   UNL     1       4.534  -6.592  24.092  0.00  0.00    +0.000 C 
BRANCH  32  36
ATOM     36  C   UNL     1       4.997  -5.067  28.260  0.00  0.00    +0.000 C 
ATOM     37 CL   UNL     1       5.859  -5.870  29.589  0.00  0.00    +0.000 Cl
ENDBRANCH  32  36
ENDBRANCH  25  28
ENDBRANCH   4  25
TORSDOF 6
ENDMDL
MODEL 7
REMARK VINA RESULT:      -7.7      3.057      4.829
REMARK  Name = 
REMARK  6 active torsions:
REMARK  status: ('A' for Active; 'I' for Inactive)
REMARK    1  A    between atoms: C_7  and  C_8
REMARK    2  A    between atoms: N_10  and  C_12
REMARK    3  A    between atoms: C_21  and  C_23
REMARK    4  A    between atoms: C_28  and  S_29
REMARK    5  A    between atoms: S_29  and  N_32
REMARK    6  A    between atoms: C_40  and  C_42
REMARK                            x       y       z     vdW  Elec       q    Type
REMARK                         _______ _______ _______ _____ _____    ______ ____
ROOT
ATOM      1  C   UNL     1       9.053  -2.326  24.504  0.00  0.00    +0.000 A 
ATOM      2  C   UNL     1       7.691  -2.207  24.226  0.00  0.00    +0.000 A 
ATOM      3  C   UNL     1       6.496  -3.072  24.452  0.00  0.00    +0.000 A 
ATOM      4  C   UNL     1       7.062  -4.289  25.248  0.00  0.00    +0.000 A 
ATOM      5  C   UNL     1       8.399  -4.863  25.168  0.00  0.00    +0.000 A 
ATOM      6  C   UNL     1       9.404  -3.725  24.888  0.00  0.00    +0.000 A 
ENDROOT
BRANCH   1  11
ATOM      7  C   UNL     1       9.139   2.026  23.039  0.00  0.00    +0.000 C 
ATOM      8  C   UNL     1      10.407   1.280  23.183  0.00  0.00    +0.000 C 
ATOM      9  C   UNL     1      10.510   0.354  24.360  0.00  0.00    +0.000 C 
ATOM     10  N   UNL     1       9.220  -0.114  24.833  0.00  0.00    +0.000 N 
ATOM     11  C   UNL     1       9.240  -1.295  25.526  0.00  0.00    +0.000 C 
ATOM     12  O   UNL     1       8.601  -1.383  26.561  0.00  0.00    +0.000 OA
ATOM     13  C   UNL     1       8.121   0.784  25.013  0.00  0.00    +0.000 C 
ATOM     14  C   UNL     1       8.317   2.091  24.291  0.00  0.00    +0.000 C 
BRANCH   7  17
ATOM     15  C   UNL     1       7.094   2.049  21.705  0.00  0.00    +0.000 C 
ATOM     16  O   UNL     1       6.860   3.253  21.636  0.00  0.00    +0.000 OA
ATOM     17  N   UNL     1       8.374   1.644  21.872  0.00  0.00    +0.000 N 
ATOM     18  H   UNL     1       8.775   1.795  20.988  0.00  0.00    +0.000 HD
BRANCH  15  22
ATOM     19  C   UNL     1       6.310   0.705  17.839  0.00  0.00    +0.000 A 
ATOM     20  C   UNL     1       7.420   0.197  18.739  0.00  0.00    +0.000 A 
ATOM     21  C   UNL     1       7.478   0.213  20.197  0.00  0.00    +0.000 A 
ATOM     22  C   UNL     1       6.386   1.149  20.780  0.00  0.00    +0.000 A 
ATOM     23  C   UNL     1       5.202   1.656  20.082  0.00  0.00    +0.000 A 
ATOM     24  C   UNL     1       5.369   1.582  18.510  0.00  0.00    +0.000 A 
ENDBRANCH  15  22
ENDBRANCH   7  17
ENDBRANCH   1  11
BRANCH   4  25
ATOM     25  S   UNL     1       5.943  -4.729  26.417  0.00  0.00    +0.000 S 
ATOM     26  O   UNL     1       6.010  -6.315  26.284  0.00  0.00    +0.000 OA
ATOM     27  O   UNL     1       6.894  -4.532  27.684  0.00  0.00    +0.000 OA
BRANCH  25  28
ATOM     28  N   UNL     1       4.552  -4.474  26.936  0.00  0.00    +0.000 NA
ATOM     29  C   UNL     1       3.313  -4.317  26.372  0.00  0.00    +0.000 C 
ATOM     30  C   UNL     1       2.863  -2.835  26.365  0.00  0.00    +0.000 C 
ATOM     31  N   UNL     1       3.597  -2.181  27.476  0.00  0.00    +0.000 N 
ATOM     32  C   UNL     1       4.675  -1.426  27.201  0.00  0.00    +0.000 C 
ATOM     33  O   UNL     1       5.691  -1.474  27.911  0.00  0.00    +0.000 OA
ATOM     34  C   UNL     1       3.620  -3.033  28.679  0.00  0.00    +0.000 C 
ATOM     35  C   UNL     1       4.488  -4.243  28.353  0.00  0.00    +0.000 C 
BRANCH  32  36
ATOM     36  C   UNL     1       4.586  -0.357  26.161  0.00  0.00    +0.000 C 
ATOM     37 CL   UNL     1       5.079   1.217  26.821  0.00  0.00    +0.000 Cl
ENDBRANCH  32  36
ENDBRANCH  25  28
ENDBRANCH   4  25
TORSDOF 6
ENDMDL
MODEL 8
REMARK VINA RESULT:      -7.7      2.742      7.949
REMARK  Name = 
REMARK  6 active torsions:
REMARK  status: ('A' for Active; 'I' for Inactive)
REMARK    1  A    between atoms: C_7  and  C_8
REMARK    2  A    between atoms: N_10  and  C_12
REMARK    3  A    between atoms: C_21  and  C_23
REMARK    4  A    between atoms: C_28  and  S_29
REMARK    5  A    between atoms: S_29  and  N_32
REMARK    6  A    between atoms: C_40  and  C_42
REMARK                            x       y       z     vdW  Elec       q    Type
REMARK                         _______ _______ _______ _____ _____    ______ ____
ROOT
ATOM      1  C   UNL     1       4.847  -0.093  26.287  0.00  0.00    +0.000 A 
ATOM      2  C   UNL     1       5.516  -0.610  25.177  0.00  0.00    +0.000 A 
ATOM      3  C   UNL     1       6.291  -0.015  24.050  0.00  0.00    +0.000 A 
ATOM      4  C   UNL     1       6.328   1.508  24.385  0.00  0.00    +0.000 A 
ATOM      5  C   UNL     1       5.326   2.289  25.101  0.00  0.00    +0.000 A 
ATOM      6  C   UNL     1       4.676   1.385  26.171  0.00  0.00    +0.000 A 
ENDROOT
BRANCH   1  11
ATOM      7  C   UNL     1       4.929  -4.636  26.958  0.00  0.00    +0.000 C 
ATOM      8  C   UNL     1       3.962  -3.805  27.706  0.00  0.00    +0.000 C 
ATOM      9  C   UNL     1       4.448  -2.463  28.171  0.00  0.00    +0.000 C 
ATOM     10  N   UNL     1       5.533  -1.938  27.362  0.00  0.00    +0.000 N 
ATOM     11  C   UNL     1       5.681  -0.576  27.388  0.00  0.00    +0.000 C 
ATOM     12  O   UNL     1       6.798  -0.107  27.519  0.00  0.00    +0.000 OA
ATOM     13  C   UNL     1       6.644  -2.755  26.984  0.00  0.00    +0.000 C 
ATOM     14  C   UNL     1       6.360  -4.226  27.139  0.00  0.00    +0.000 C 
BRANCH   7  17
ATOM     15  C   UNL     1       5.068  -5.875  24.859  0.00  0.00    +0.000 C 
ATOM     16  O   UNL     1       4.838  -7.021  25.236  0.00  0.00    +0.000 OA
ATOM     17  N   UNL     1       4.564  -4.842  25.574  0.00  0.00    +0.000 N 
ATOM     18  H   UNL     1       3.609  -4.856  25.347  0.00  0.00    +0.000 HD
BRANCH  15  22
ATOM     19  C   UNL     1       6.585  -4.044  21.436  0.00  0.00    +0.000 A 
ATOM     20  C   UNL     1       6.978  -5.417  21.948  0.00  0.00    +0.000 A 
ATOM     21  C   UNL     1       6.200  -6.325  22.783  0.00  0.00    +0.000 A 
ATOM     22  C   UNL     1       4.990  -5.588  23.417  0.00  0.00    +0.000 A 
ATOM     23  C   UNL     1       4.421  -4.308  22.990  0.00  0.00    +0.000 A 
ATOM     24  C   UNL     1       5.447  -3.466  22.129  0.00  0.00    +0.000 A 
ENDBRANCH  15  22
ENDBRANCH   7  17
ENDBRANCH   1  11
BRANCH   4  25
ATOM     25  S   UNL     1       7.842   2.107  23.985  0.00  0.00    +0.000 S 
ATOM     26  O   UNL     1       7.425   3.475  23.284  0.00  0.00    +0.000 OA
ATOM     27  O   UNL     1       8.224   2.661  25.433  0.00  0.00    +0.000 OA
BRANCH  25  28
ATOM     28  N   UNL     1       9.161   1.766  23.343  0.00  0.00    +0.000 NA
ATOM     29  C   UNL     1       9.561   1.320  22.110  0.00  0.00    +0.000 C 
ATOM     30  C   UNL     1       9.941  -0.181  22.131  0.00  0.00    +0.000 C 
ATOM     31  N   UNL     1      10.334  -0.482  23.529  0.00  0.00    +0.000 N 
ATOM     32  C   UNL     1       9.465  -1.114  24.338  0.00  0.00    +0.000 C 
ATOM     33  O   UNL     1       9.328  -0.776  25.524  0.00  0.00    +0.000 OA
ATOM     34  C   UNL     1      11.171   0.592  24.095  0.00  0.00    +0.000 C 
ATOM     35  C   UNL     1      10.282   1.822  24.240  0.00  0.00    +0.000 C 
BRANCH  32  36
ATOM     36  C   UNL     1       8.807  -2.374  23.878  0.00  0.00    +0.000 C 
ATOM     37 CL   UNL     1       9.472  -3.786  24.726  0.00  0.00    +0.000 Cl
ENDBRANCH  32  36
ENDBRANCH  25  28
ENDBRANCH   4  25
TORSDOF 6
ENDMDL
MODEL 9
REMARK VINA RESULT:      -7.6      3.245      8.606
REMARK  Name = 
REMARK  6 active torsions:
REMARK  status: ('A' for Active; 'I' for Inactive)
REMARK    1  A    between atoms: C_7  and  C_8
REMARK    2  A    between atoms: N_10  and  C_12
REMARK    3  A    between atoms: C_21  and  C_23
REMARK    4  A    between atoms: C_28  and  S_29
REMARK    5  A    between atoms: S_29  and  N_32
REMARK    6  A    between atoms: C_40  and  C_42
REMARK                            x       y       z     vdW  Elec       q    Type
REMARK                         _______ _______ _______ _____ _____    ______ ____
ROOT
ATOM      1  C   UNL     1       8.159  -2.189  23.757  0.00  0.00    +0.000 A 
ATOM      2  C   UNL     1       7.526  -1.244  24.565  0.00  0.00    +0.000 A 
ATOM      3  C   UNL     1       7.885   0.116  25.064  0.00  0.00    +0.000 A 
ATOM      4  C   UNL     1       9.252   0.418  24.374  0.00  0.00    +0.000 A 
ATOM      5  C   UNL     1      10.284  -0.534  23.985  0.00  0.00    +0.000 A 
ATOM      6  C   UNL     1       9.599  -1.851  23.559  0.00  0.00    +0.000 A 
ENDROOT
BRANCH   1  11
ATOM      7  C   UNL     1       5.494  -5.872  23.098  0.00  0.00    +0.000 C 
ATOM      8  C   UNL     1       6.831  -5.816  22.469  0.00  0.00    +0.000 C 
ATOM      9  C   UNL     1       7.270  -4.481  21.944  0.00  0.00    +0.000 C 
ATOM     10  N   UNL     1       6.628  -3.365  22.614  0.00  0.00    +0.000 N 
ATOM     11  C   UNL     1       7.309  -2.177  22.565  0.00  0.00    +0.000 C 
ATOM     12  O   UNL     1       6.697  -1.157  22.300  0.00  0.00    +0.000 OA
ATOM     13  C   UNL     1       5.219  -3.353  22.860  0.00  0.00    +0.000 C 
ATOM     14  C   UNL     1       4.600  -4.721  22.746  0.00  0.00    +0.000 C 
BRANCH   7  17
ATOM     15  C   UNL     1       4.452  -6.624  25.174  0.00  0.00    +0.000 C 
ATOM     16  O   UNL     1       3.982  -7.706  24.834  0.00  0.00    +0.000 OA
ATOM     17  N   UNL     1       5.536  -6.150  24.517  0.00  0.00    +0.000 N 
ATOM     18  H   UNL     1       6.267  -6.711  24.855  0.00  0.00    +0.000 HD
BRANCH  15  22
ATOM     19  C   UNL     1       4.726  -3.895  28.312  0.00  0.00    +0.000 A 
ATOM     20  C   UNL     1       3.436  -4.407  27.702  0.00  0.00    +0.000 A 
ATOM     21  C   UNL     1       3.207  -5.664  26.997  0.00  0.00    +0.000 A 
ATOM     22  C   UNL     1       4.555  -6.332  26.613  0.00  0.00    +0.000 A 
ATOM     23  C   UNL     1       5.875  -6.027  27.171  0.00  0.00    +0.000 A 
ATOM     24  C   UNL     1       5.910  -4.600  27.854  0.00  0.00    +0.000 A 
ENDBRANCH  15  22
ENDBRANCH   7  17
ENDBRANCH   1  11
BRANCH   4  25
ATOM     25  S   UNL     1       9.278   2.034  23.925  0.00  0.00    +0.000 S 
ATOM     26  O   UNL     1      10.850   2.292  23.907  0.00  0.00    +0.000 OA
ATOM     27  O   UNL     1       9.032   1.807  22.364  0.00  0.00    +0.000 OA
BRANCH  25  28
ATOM     28  N   UNL     1       8.696   3.392  24.214  0.00  0.00    +0.000 NA
ATOM     29  C   UNL     1       8.350   4.086  25.344  0.00  0.00    +0.000 C 
ATOM     30  C   UNL     1       6.816   4.121  25.556  0.00  0.00    +0.000 C 
ATOM     31  N   UNL     1       6.216   3.946  24.211  0.00  0.00    +0.000 N 
ATOM     32  C   UNL     1       5.726   2.744  23.858  0.00  0.00    +0.000 C 
ATOM     33  O   UNL     1       5.906   2.286  22.719  0.00  0.00    +0.000 OA
ATOM     34  C   UNL     1       6.929   4.743  23.196  0.00  0.00    +0.000 C 
ATOM     35  C   UNL     1       8.316   4.129  23.040  0.00  0.00    +0.000 C 
BRANCH  32  36
ATOM     36  C   UNL     1       4.771   2.038  24.764  0.00  0.00    +0.000 C 
ATOM     37 CL   UNL     1       3.325   3.026  25.061  0.00  0.00    +0.000 Cl
ENDBRANCH  32  36
ENDBRANCH  25  28
ENDBRANCH   4  25
TORSDOF 6
ENDMDL
