MODEL 1
REMARK VINA RESULT:      -9.1      0.000      0.000
REMARK  Name = 
REMARK  7 active torsions:
REMARK  status: ('A' for Active; 'I' for Inactive)
REMARK    1  A    between atoms: O_2  and  C_3
REMARK    2  A    between atoms: C_12  and  N_13
REMARK    3  A    between atoms: C_15  and  C_17
REMARK    4  A    between atoms: C_26  and  C_28
REMARK    5  A    between atoms: C_28  and  C_31
REMARK    6  A    between atoms: C_31  and  C_34
REMARK    7  A    between atoms: C_50  and  C_52
REMARK                            x       y       z     vdW  Elec       q    Type
REMARK                         _______ _______ _______ _____ _____    ______ ____
ROOT
ATOM      1  C   UNL     1       6.884  -4.971  25.116  0.00  0.00    +0.000 C 
ATOM      2  C   UNL     1       8.327  -4.866  25.443  0.00  0.00    +0.000 C 
ATOM      3  C   UNL     1       8.977  -3.538  25.386  0.00  0.00    +0.000 C 
ATOM      4  N   UNL     1       8.138  -2.364  25.249  0.00  0.00    +0.000 N 
ATOM      5  C   UNL     1       8.615  -1.165  25.773  0.00  0.00    +0.000 C 
ATOM      6  O   UNL     1       8.193  -1.069  27.000  0.00  0.00    +0.000 OA
ATOM      7  C   UNL     1       6.709  -2.480  25.107  0.00  0.00    +0.000 C 
ATOM      8  C   UNL     1       6.162  -3.768  25.697  0.00  0.00    +0.000 C 
ENDROOT
BRANCH   1  11
ATOM      9  N   UNL     1       5.537  -6.107  23.386  0.00  0.00    +0.000 N 
ATOM     10  H   UNL     1       5.307  -6.040  22.452  0.00  0.00    +0.000 HD
ATOM     11  C   UNL     1       6.484  -5.274  23.748  0.00  0.00    +0.000 C 
ATOM     12  O   UNL     1       7.419  -5.292  22.830  0.00  0.00    +0.000 OA
BRANCH   9  18
ATOM     13  C   UNL     1       3.967  -7.297  24.652  0.00  0.00    +0.000 A 
ATOM     14  C   UNL     1       2.579  -7.718  24.218  0.00  0.00    +0.000 A 
ATOM     15  C   UNL     1       1.474  -6.859  23.683  0.00  0.00    +0.000 A 
ATOM     16  C   UNL     1       2.098  -5.530  23.436  0.00  0.00    +0.000 A 
ATOM     17  C   UNL     1       3.378  -4.970  23.422  0.00  0.00    +0.000 A 
ATOM     18  C   UNL     1       4.344  -5.970  24.062  0.00  0.00    +0.000 A 
BRANCH  13  20
ATOM     19  H   UNL     1       4.344  -7.007  26.485  0.00  0.00    +0.000 HD
ATOM     20  O   UNL     1       3.717  -7.550  26.029  0.00  0.00    +0.000 OA
ENDBRANCH  13  20
ENDBRANCH   9  18
ENDBRANCH   1  11
BRANCH   5  21
ATOM     21  C   UNL     1       9.809  -0.473  25.376  0.00  0.00    +0.000 C 
BRANCH  21  22
ATOM     22  C   UNL     1      10.455  -0.501  24.119  0.00  0.00    +0.000 C 
BRANCH  22  23
ATOM     23  C   UNL     1      10.004  -0.540  22.757  0.00  0.00    +0.000 C 
ATOM     24  O   UNL     1      10.146  -1.742  22.228  0.00  0.00    +0.000 OA
ATOM     25  N   UNL     1       9.875   0.339  21.762  0.00  0.00    +0.000 N 
ATOM     26  C   UNL     1      10.131   1.820  22.153  0.00  0.00    +0.000 C 
ATOM     27  C   UNL     1       9.121   2.129  22.913  0.00  0.00    +0.000 A 
ATOM     28  C   UNL     1       9.161   3.500  23.511  0.00  0.00    +0.000 A 
ATOM     29  C   UNL     1       8.033   4.286  23.997  0.00  0.00    +0.000 A 
ATOM     30  C   UNL     1       6.778   3.503  23.642  0.00  0.00    +0.000 A 
ATOM     31  C   UNL     1       6.486   2.285  23.011  0.00  0.00    +0.000 A 
ATOM     32  C   UNL     1       7.742   1.705  22.478  0.00  0.00    +0.000 A 
ATOM     33  C   UNL     1       7.748   1.330  20.990  0.00  0.00    +0.000 C 
ATOM     34  C   UNL     1       8.737   0.202  20.826  0.00  0.00    +0.000 C 
BRANCH  33  35
ATOM     35  C   UNL     1       6.332   0.891  20.637  0.00  0.00    +0.000 A 
ATOM     36  C   UNL     1       6.512  -0.524  20.036  0.00  0.00    +0.000 A 
ATOM     37  C   UNL     1       6.385  -0.920  18.603  0.00  0.00    +0.000 A 
ATOM     38  C   UNL     1       5.766   0.245  17.918  0.00  0.00    +0.000 A 
ATOM     39  C   UNL     1       5.187   1.490  18.273  0.00  0.00    +0.000 A 
ATOM     40  C   UNL     1       5.389   1.647  19.788  0.00  0.00    +0.000 A 
ENDBRANCH  33  35
ENDBRANCH  22  23
ENDBRANCH  21  22
ENDBRANCH   5  21
TORSDOF 7
ENDMDL
MODEL 2
REMARK VINA RESULT:      -7.9      1.568      2.029
REMARK  Name = 
REMARK  7 active torsions:
REMARK  status: ('A' for Active; 'I' for Inactive)
REMARK    1  A    between atoms: O_2  and  C_3
REMARK    2  A    between atoms: C_12  and  N_13
REMARK    3  A    between atoms: C_15  and  C_17
REMARK    4  A    between atoms: C_26  and  C_28
REMARK    5  A    between atoms: C_28  and  C_31
REMARK    6  A    between atoms: C_31  and  C_34
REMARK    7  A    between atoms: C_50  and  C_52
REMARK                            x       y       z     vdW  Elec       q    Type
REMARK                         _______ _______ _______ _____ _____    ______ ____
ROOT
ATOM      1  C   UNL     1       4.801  -3.885  24.265  0.00  0.00    +0.000 C 
ATOM      2  C   UNL     1       5.510  -2.983  23.324  0.00  0.00    +0.000 C 
ATOM      3  C   UNL     1       6.823  -2.427  23.721  0.00  0.00    +0.000 C 
ATOM      4  N   UNL     1       7.474  -2.967  24.897  0.00  0.00    +0.000 N 
ATOM      5  C   UNL     1       8.865  -2.917  24.944  0.00  0.00    +0.000 C 
ATOM      6  O   UNL     1       9.323  -4.025  24.437  0.00  0.00    +0.000 OA
ATOM      7  C   UNL     1       6.840  -3.976  25.705  0.00  0.00    +0.000 C 
ATOM      8  C   UNL     1       5.820  -4.793  24.932  0.00  0.00    +0.000 C 
ENDROOT
BRANCH   1  11
ATOM      9  N   UNL     1       2.532  -3.452  25.136  0.00  0.00    +0.000 N 
ATOM     10  H   UNL     1       2.080  -3.157  25.936  0.00  0.00    +0.000 HD
ATOM     11  C   UNL     1       3.836  -3.322  25.201  0.00  0.00    +0.000 C 
ATOM     12  O   UNL     1       4.106  -2.151  25.723  0.00  0.00    +0.000 OA
BRANCH   9  18
ATOM     13  C   UNL     1       2.400  -5.572  26.123  0.00  0.00    +0.000 A 
ATOM     14  C   UNL     1       3.193  -6.804  25.743  0.00  0.00    +0.000 A 
ATOM     15  C   UNL     1       3.309  -7.454  24.397  0.00  0.00    +0.000 A 
ATOM     16  C   UNL     1       2.673  -6.500  23.448  0.00  0.00    +0.000 A 
ATOM     17  C   UNL     1       2.182  -5.192  23.462  0.00  0.00    +0.000 A 
ATOM     18  C   UNL     1       2.080  -4.736  24.919  0.00  0.00    +0.000 A 
BRANCH  13  20
ATOM     19  H   UNL     1       0.689  -5.747  26.917  0.00  0.00    +0.000 HD
ATOM     20  O   UNL     1       1.457  -6.301  26.898  0.00  0.00    +0.000 OA
ENDBRANCH  13  20
ENDBRANCH   9  18
ENDBRANCH   1  11
BRANCH   5  21
ATOM     21  C   UNL     1       9.681  -1.735  24.920  0.00  0.00    +0.000 C 
BRANCH  21  22
ATOM     22  C   UNL     1      10.240  -1.086  23.796  0.00  0.00    +0.000 C 
BRANCH  22  23
ATOM     23  C   UNL     1       9.809  -0.865  22.445  0.00  0.00    +0.000 C 
ATOM     24  O   UNL     1       9.944  -1.948  21.702  0.00  0.00    +0.000 OA
ATOM     25  N   UNL     1       9.705   0.187  21.629  0.00  0.00    +0.000 N 
ATOM     26  C   UNL     1       9.973   1.565  22.293  0.00  0.00    +0.000 C 
ATOM     27  C   UNL     1       8.955   1.741  23.085  0.00  0.00    +0.000 A 
ATOM     28  C   UNL     1       9.002   2.976  23.929  0.00  0.00    +0.000 A 
ATOM     29  C   UNL     1       7.876   3.673  24.539  0.00  0.00    +0.000 A 
ATOM     30  C   UNL     1       6.617   2.988  24.028  0.00  0.00    +0.000 A 
ATOM     31  C   UNL     1       6.320   1.914  23.177  0.00  0.00    +0.000 A 
ATOM     32  C   UNL     1       7.578   1.425  22.561  0.00  0.00    +0.000 A 
ATOM     33  C   UNL     1       7.601   1.334  21.030  0.00  0.00    +0.000 C 
ATOM     34  C   UNL     1       8.579   0.243  20.670  0.00  0.00    +0.000 C 
BRANCH  33  35
ATOM     35  C   UNL     1       6.186   0.989  20.583  0.00  0.00    +0.000 A 
ATOM     36  C   UNL     1       6.273  -0.497  20.156  0.00  0.00    +0.000 A 
ATOM     37  C   UNL     1       6.237  -1.041  18.768  0.00  0.00    +0.000 A 
ATOM     38  C   UNL     1       5.805   0.089  17.904  0.00  0.00    +0.000 A 
ATOM     39  C   UNL     1       5.326   1.414  18.066  0.00  0.00    +0.000 A 
ATOM     40  C   UNL     1       5.406   1.726  19.569  0.00  0.00    +0.000 A 
ENDBRANCH  33  35
ENDBRANCH  22  23
ENDBRANCH  21  22
ENDBRANCH   5  21
TORSDOF 7
ENDMDL
MODEL 3
REMARK VINA RESULT:      -7.9      2.609      8.902
REMARK  Name = 
REMARK  7 active torsions:
REMARK  status: ('A' for Active; 'I' for Inactive)
REMARK    1  A    between atoms: O_2  and  C_3
REMARK    2  A    between atoms: C_12  and  N_13
REMARK    3  A    between atoms: C_15  and  C_17
REMARK    4  A    between atoms: C_26  and  C_28
REMARK    5  A    between atoms: C_28  and  C_31
REMARK    6  A    between atoms: C_31  and  C_34
REMARK    7  A    between atoms: C_50  and  C_52
REMARK                            x       y       z     vdW  Elec       q    Type
REMARK                         _______ _______ _______ _____ _____    ______ ____
ROOT
ATOM      1  C   UNL     1       9.416   0.736  22.523  0.00  0.00    +0.000 C 
ATOM      2  C   UNL     1       9.725  -0.454  21.693  0.00  0.00    +0.000 C 
ATOM      3  C   UNL     1       8.655  -1.444  21.438  0.00  0.00    +0.000 C 
ATOM      4  N   UNL     1       7.295  -1.100  21.801  0.00  0.00    +0.000 N 
ATOM      5  C   UNL     1       6.264  -1.690  21.074  0.00  0.00    +0.000 C 
ATOM      6  O   UNL     1       5.977  -0.903  20.077  0.00  0.00    +0.000 OA
ATOM      7  C   UNL     1       6.989   0.147  22.453  0.00  0.00    +0.000 C 
ATOM      8  C   UNL     1       8.021   1.226  22.173  0.00  0.00    +0.000 C 
ENDROOT
BRANCH   1  11
ATOM      9  N   UNL     1       9.778   1.722  24.758  0.00  0.00    +0.000 N 
ATOM     10  H   UNL     1       9.766   1.485  25.693  0.00  0.00    +0.000 HD
ATOM     11  C   UNL     1       9.663   0.687  23.959  0.00  0.00    +0.000 C 
ATOM     12  O   UNL     1      10.436  -0.269  24.411  0.00  0.00    +0.000 OA
BRANCH   9  18
ATOM     13  C   UNL     1       9.438   3.950  24.121  0.00  0.00    +0.000 A 
ATOM     14  C   UNL     1       9.122   5.118  25.030  0.00  0.00    +0.000 A 
ATOM     15  C   UNL     1       8.006   5.247  26.022  0.00  0.00    +0.000 A 
ATOM     16  C   UNL     1       7.403   3.889  26.108  0.00  0.00    +0.000 A 
ATOM     17  C   UNL     1       7.687   2.595  25.662  0.00  0.00    +0.000 A 
ATOM     18  C   UNL     1       8.802   2.684  24.618  0.00  0.00    +0.000 A 
BRANCH  13  20
ATOM     19  H   UNL     1       8.226   5.021  23.135  0.00  0.00    +0.000 HD
ATOM     20  O   UNL     1       9.073   4.649  22.937  0.00  0.00    +0.000 OA
ENDBRANCH  13  20
ENDBRANCH   9  18
ENDBRANCH   1  11
BRANCH   5  21
ATOM     21  C   UNL     1       5.981  -3.094  20.974  0.00  0.00    +0.000 C 
BRANCH  21  22
ATOM     22  C   UNL     1       5.876  -4.037  22.022  0.00  0.00    +0.000 C 
BRANCH  22  23
ATOM     23  C   UNL     1       4.914  -4.287  23.057  0.00  0.00    +0.000 C 
ATOM     24  O   UNL     1       3.833  -4.884  22.588  0.00  0.00    +0.000 OA
ATOM     25  N   UNL     1       4.610  -3.746  24.239  0.00  0.00    +0.000 N 
ATOM     26  C   UNL     1       5.595  -2.655  24.737  0.00  0.00    +0.000 C 
ATOM     27  C   UNL     1       6.683  -3.311  25.017  0.00  0.00    +0.000 A 
ATOM     28  C   UNL     1       7.848  -2.474  25.446  0.00  0.00    +0.000 A 
ATOM     29  C   UNL     1       8.998  -2.898  26.235  0.00  0.00    +0.000 A 
ATOM     30  C   UNL     1       8.718  -4.328  26.672  0.00  0.00    +0.000 A 
ATOM     31  C   UNL     1       7.687  -5.261  26.491  0.00  0.00    +0.000 A 
ATOM     32  C   UNL     1       6.562  -4.604  25.781  0.00  0.00    +0.000 A 
ATOM     33  C   UNL     1       5.182  -4.702  26.443  0.00  0.00    +0.000 C 
ATOM     34  C   UNL     1       4.158  -4.629  25.338  0.00  0.00    +0.000 C 
BRANCH  33  35
ATOM     35  C   UNL     1       5.130  -6.040  27.170  0.00  0.00    +0.000 A 
ATOM     36  C   UNL     1       3.866  -6.731  26.603  0.00  0.00    +0.000 A 
ATOM     37  C   UNL     1       2.565  -6.945  27.298  0.00  0.00    +0.000 A 
ATOM     38  C   UNL     1       2.818  -6.633  28.729  0.00  0.00    +0.000 A 
ATOM     39  C   UNL     1       3.927  -6.335  29.562  0.00  0.00    +0.000 A 
ATOM     40  C   UNL     1       5.148  -6.219  28.635  0.00  0.00    +0.000 A 
ENDBRANCH  33  35
ENDBRANCH  22  23
ENDBRANCH  21  22
ENDBRANCH   5  21
TORSDOF 7
ENDMDL
MODEL 4
REMARK VINA RESULT:      -7.8      2.607      8.985
REMARK  Name = 
REMARK  7 active torsions:
REMARK  status: ('A' for Active; 'I' for Inactive)
REMARK    1  A    between atoms: O_2  and  C_3
REMARK    2  A    between atoms: C_12  and  N_13
REMARK    3  A    between atoms: C_15  and  C_17
REMARK    4  A    between atoms: C_26  and  C_28
REMARK    5  A    between atoms: C_28  and  C_31
REMARK    6  A    between atoms: C_31  and  C_34
REMARK    7  A    between atoms: C_50  and  C_52
REMARK                            x       y       z     vdW  Elec       q    Type
REMARK                         _______ _______ _______ _____ _____    ______ ____
ROOT
ATOM      1  C   UNL     1       8.953   0.092  23.411  0.00  0.00    +0.000 C 
ATOM      2  C   UNL     1       9.941  -1.011  23.333  0.00  0.00    +0.000 C 
ATOM      3  C   UNL     1       9.483  -2.399  23.567  0.00  0.00    +0.000 C 
ATOM      4  N   UNL     1       8.057  -2.654  23.623  0.00  0.00    +0.000 N 
ATOM      5  C   UNL     1       7.613  -3.920  23.250  0.00  0.00    +0.000 C 
ATOM      6  O   UNL     1       7.346  -3.889  21.976  0.00  0.00    +0.000 OA
ATOM      7  C   UNL     1       7.102  -1.581  23.521  0.00  0.00    +0.000 C 
ATOM      8  C   UNL     1       7.651  -0.374  22.782  0.00  0.00    +0.000 C 
ENDROOT
BRANCH   1  11
ATOM      9  N   UNL     1       9.362   1.894  25.049  0.00  0.00    +0.000 N 
ATOM     10  H   UNL     1       8.977   2.290  25.839  0.00  0.00    +0.000 HD
ATOM     11  C   UNL     1       8.761   0.789  24.677  0.00  0.00    +0.000 C 
ATOM     12  O   UNL     1       8.541   0.061  25.745  0.00  0.00    +0.000 OA
BRANCH   9  18
ATOM     13  C   UNL     1      10.628   2.789  23.293  0.00  0.00    +0.000 A 
ATOM     14  C   UNL     1      11.410   4.086  23.304  0.00  0.00    +0.000 A 
ATOM     15  C   UNL     1      10.918   5.463  23.632  0.00  0.00    +0.000 A 
ATOM     16  C   UNL     1       9.549   5.267  24.184  0.00  0.00    +0.000 A 
ATOM     17  C   UNL     1       8.735   4.207  24.591  0.00  0.00    +0.000 A 
ATOM     18  C   UNL     1       9.373   2.902  24.109  0.00  0.00    +0.000 A 
BRANCH  13  20
ATOM     19  H   UNL     1      10.651   3.544  21.556  0.00  0.00    +0.000 HD
ATOM     20  O   UNL     1      10.685   2.655  21.879  0.00  0.00    +0.000 OA
ENDBRANCH  13  20
ENDBRANCH   9  18
ENDBRANCH   1  11
BRANCH   5  21
ATOM     21  C   UNL     1       7.957  -5.167  23.874  0.00  0.00    +0.000 C 
BRANCH  21  22
ATOM     22  C   UNL     1       7.905  -5.496  25.247  0.00  0.00    +0.000 C 
BRANCH  22  23
ATOM     23  C   UNL     1       7.179  -4.989  26.377  0.00  0.00    +0.000 C 
ATOM     24  O   UNL     1       7.954  -4.290  27.186  0.00  0.00    +0.000 OA
ATOM     25  N   UNL     1       6.085  -5.344  27.055  0.00  0.00    +0.000 N 
ATOM     26  C   UNL     1       5.273  -6.511  26.431  0.00  0.00    +0.000 C 
ATOM     27  C   UNL     1       4.761  -6.001  25.349  0.00  0.00    +0.000 A 
ATOM     28  C   UNL     1       3.986  -6.954  24.493  0.00  0.00    +0.000 A 
ATOM     29  C   UNL     1       2.952  -6.626  23.518  0.00  0.00    +0.000 A 
ATOM     30  C   UNL     1       2.702  -5.130  23.642  0.00  0.00    +0.000 A 
ATOM     31  C   UNL     1       3.210  -4.077  24.416  0.00  0.00    +0.000 A 
ATOM     32  C   UNL     1       4.145  -4.628  25.426  0.00  0.00    +0.000 A 
ATOM     33  C   UNL     1       3.877  -4.250  26.888  0.00  0.00    +0.000 C 
ATOM     34  C   UNL     1       5.206  -4.287  27.603  0.00  0.00    +0.000 C 
BRANCH  33  35
ATOM     35  C   UNL     1       3.281  -2.847  26.883  0.00  0.00    +0.000 A 
ATOM     36  C   UNL     1       4.495  -1.920  26.628  0.00  0.00    +0.000 A 
ATOM     37  C   UNL     1       5.165  -1.019  27.610  0.00  0.00    +0.000 A 
ATOM     38  C   UNL     1       4.260  -0.965  28.788  0.00  0.00    +0.000 A 
ATOM     39  C   UNL     1       2.960  -1.410  29.138  0.00  0.00    +0.000 A 
ATOM     40  C   UNL     1       2.460  -2.262  27.961  0.00  0.00    +0.000 A 
ENDBRANCH  33  35
ENDBRANCH  22  23
ENDBRANCH  21  22
ENDBRANCH   5  21
TORSDOF 7
ENDMDL
MODEL 5
REMARK VINA RESULT:      -7.8      1.861      8.102
REMARK  Name = 
REMARK  7 active torsions:
REMARK  status: ('A' for Active; 'I' for Inactive)
REMARK    1  A    between atoms: O_2  and  C_3
REMARK    2  A    between atoms: C_12  and  N_13
REMARK    3  A    between atoms: C_15  and  C_17
REMARK    4  A    between atoms: C_26  and  C_28
REMARK    5  A    between atoms: C_28  and  C_31
REMARK    6  A    between atoms: C_31  and  C_34
REMARK    7  A    between atoms: C_50  and  C_52
REMARK                            x       y       z     vdW  Elec       q    Type
REMARK                         _______ _______ _______ _____ _____    ______ ____
ROOT
ATOM      1  C   UNL     1       8.606   1.827  23.419  0.00  0.00    +0.000 C 
ATOM      2  C   UNL     1       7.329   1.214  23.857  0.00  0.00    +0.000 C 
ATOM      3  C   UNL     1       7.369  -0.065  24.603  0.00  0.00    +0.000 C 
ATOM      4  N   UNL     1       8.650  -0.543  25.083  0.00  0.00    +0.000 N 
ATOM      5  C   UNL     1       8.653  -1.344  26.222  0.00  0.00    +0.000 C 
ATOM      6  O   UNL     1       8.790  -0.567  27.257  0.00  0.00    +0.000 OA
ATOM      7  C   UNL     1       9.869   0.167  24.793  0.00  0.00    +0.000 C 
ATOM      8  C   UNL     1       9.639   1.642  24.518  0.00  0.00    +0.000 C 
ENDROOT
BRANCH   1  11
ATOM      9  N   UNL     1       8.679   0.590  21.283  0.00  0.00    +0.000 N 
ATOM     10  H   UNL     1       9.032   0.659  20.388  0.00  0.00    +0.000 HD
ATOM     11  C   UNL     1       9.123   1.524  22.090  0.00  0.00    +0.000 C 
ATOM     12  O   UNL     1      10.412   1.658  21.893  0.00  0.00    +0.000 OA
BRANCH   9  18
ATOM     13  C   UNL     1       6.900  -0.861  20.820  0.00  0.00    +0.000 A 
ATOM     14  C   UNL     1       6.093  -0.933  19.540  0.00  0.00    +0.000 A 
ATOM     15  C   UNL     1       5.354   0.171  18.847  0.00  0.00    +0.000 A 
ATOM     16  C   UNL     1       5.771   1.418  19.544  0.00  0.00    +0.000 A 
ATOM     17  C   UNL     1       6.719   1.810  20.494  0.00  0.00    +0.000 A 
ATOM     18  C   UNL     1       7.310   0.549  21.128  0.00  0.00    +0.000 A 
BRANCH  13  20
ATOM     19  H   UNL     1       5.170  -1.121  21.545  0.00  0.00    +0.000 HD
ATOM     20  O   UNL     1       5.966  -1.633  21.564  0.00  0.00    +0.000 OA
ENDBRANCH  13  20
ENDBRANCH   9  18
ENDBRANCH   1  11
BRANCH   5  21
ATOM     21  C   UNL     1       8.014  -2.621  26.373  0.00  0.00    +0.000 C 
BRANCH  21  22
ATOM     22  C   UNL     1       6.669  -2.885  26.717  0.00  0.00    +0.000 C 
BRANCH  22  23
ATOM     23  C   UNL     1       5.919  -4.074  27.007  0.00  0.00    +0.000 C 
ATOM     24  O   UNL     1       5.266  -3.976  28.151  0.00  0.00    +0.000 OA
ATOM     25  N   UNL     1       6.006  -5.367  26.689  0.00  0.00    +0.000 N 
ATOM     26  C   UNL     1       7.090  -5.714  25.633  0.00  0.00    +0.000 C 
ATOM     27  C   UNL     1       6.635  -5.199  24.527  0.00  0.00    +0.000 A 
ATOM     28  C   UNL     1       7.542  -5.314  23.342  0.00  0.00    +0.000 A 
ATOM     29  C   UNL     1       7.166  -5.266  21.934  0.00  0.00    +0.000 A 
ATOM     30  C   UNL     1       5.646  -5.225  21.895  0.00  0.00    +0.000 A 
ATOM     31  C   UNL     1       4.606  -5.214  22.835  0.00  0.00    +0.000 A 
ATOM     32  C   UNL     1       5.180  -5.399  24.190  0.00  0.00    +0.000 A 
ATOM     33  C   UNL     1       4.591  -6.536  25.035  0.00  0.00    +0.000 C 
ATOM     34  C   UNL     1       4.762  -6.141  26.482  0.00  0.00    +0.000 C 
BRANCH  33  35
ATOM     35  C   UNL     1       3.121  -6.657  24.656  0.00  0.00    +0.000 A 
ATOM     36  C   UNL     1       2.362  -6.193  25.923  0.00  0.00    +0.000 A 
ATOM     37  C   UNL     1       1.600  -7.044  26.882  0.00  0.00    +0.000 A 
ATOM     38  C   UNL     1       1.466  -8.370  26.223  0.00  0.00    +0.000 A 
ATOM     39  C   UNL     1       1.740  -8.949  24.958  0.00  0.00    +0.000 A 
ATOM     40  C   UNL     1       2.469  -7.876  24.136  0.00  0.00    +0.000 A 
ENDBRANCH  33  35
ENDBRANCH  22  23
ENDBRANCH  21  22
ENDBRANCH   5  21
TORSDOF 7
ENDMDL
MODEL 6
REMARK VINA RESULT:      -7.6      2.439      4.619
REMARK  Name = 
REMARK  7 active torsions:
REMARK  status: ('A' for Active; 'I' for Inactive)
REMARK    1  A    between atoms: O_2  and  C_3
REMARK    2  A    between atoms: C_12  and  N_13
REMARK    3  A    between atoms: C_15  and  C_17
REMARK    4  A    between atoms: C_26  and  C_28
REMARK    5  A    between atoms: C_28  and  C_31
REMARK    6  A    between atoms: C_31  and  C_34
REMARK    7  A    between atoms: C_50  and  C_52
REMARK                            x       y       z     vdW  Elec       q    Type
REMARK                         _______ _______ _______ _____ _____    ______ ____
ROOT
ATOM      1  C   UNL     1       5.606  -4.693  25.341  0.00  0.00    +0.000 C 
ATOM      2  C   UNL     1       5.185  -3.285  25.140  0.00  0.00    +0.000 C 
ATOM      3  C   UNL     1       5.738  -2.532  23.991  0.00  0.00    +0.000 C 
ATOM      4  N   UNL     1       6.473  -3.261  22.978  0.00  0.00    +0.000 N 
ATOM      5  C   UNL     1       6.472  -2.745  21.684  0.00  0.00    +0.000 C 
ATOM      6  O   UNL     1       5.471  -3.276  21.043  0.00  0.00    +0.000 OA
ATOM      7  C   UNL     1       6.722  -4.673  23.106  0.00  0.00    +0.000 C 
ATOM      8  C   UNL     1       5.700  -5.373  23.985  0.00  0.00    +0.000 C 
ENDROOT
BRANCH   1  11
ATOM      9  N   UNL     1       6.803  -4.763  27.499  0.00  0.00    +0.000 N 
ATOM     10  H   UNL     1       7.566  -5.177  27.920  0.00  0.00    +0.000 HD
ATOM     11  C   UNL     1       6.742  -4.981  26.206  0.00  0.00    +0.000 C 
ATOM     12  O   UNL     1       7.944  -4.823  25.707  0.00  0.00    +0.000 OA
BRANCH   9  18
ATOM     13  C   UNL     1       5.346  -6.578  27.756  0.00  0.00    +0.000 A 
ATOM     14  C   UNL     1       3.894  -6.647  27.330  0.00  0.00    +0.000 A 
ATOM     15  C   UNL     1       2.776  -5.717  27.691  0.00  0.00    +0.000 A 
ATOM     16  C   UNL     1       3.431  -4.564  28.367  0.00  0.00    +0.000 A 
ATOM     17  C   UNL     1       4.727  -4.088  28.588  0.00  0.00    +0.000 A 
ATOM     18  C   UNL     1       5.713  -5.199  28.220  0.00  0.00    +0.000 A 
BRANCH  13  20
ATOM     19  H   UNL     1       6.022  -8.243  28.352  0.00  0.00    +0.000 HD
ATOM     20  O   UNL     1       5.259  -7.732  28.581  0.00  0.00    +0.000 OA
ENDBRANCH  13  20
ENDBRANCH   9  18
ENDBRANCH   1  11
BRANCH   5  21
ATOM     21  C   UNL     1       6.983  -1.468  21.271  0.00  0.00    +0.000 C 
BRANCH  21  22
ATOM     22  C   UNL     1       8.264  -0.924  21.514  0.00  0.00    +0.000 C 
BRANCH  22  23
ATOM     23  C   UNL     1       8.753   0.376  21.874  0.00  0.00    +0.000 C 
ATOM     24  O   UNL     1       8.811   1.185  20.832  0.00  0.00    +0.000 OA
ATOM     25  N   UNL     1       9.536   0.878  22.832  0.00  0.00    +0.000 N 
ATOM     26  C   UNL     1       9.939  -0.125  23.946  0.00  0.00    +0.000 C 
ATOM     27  C   UNL     1       8.831  -0.344  24.595  0.00  0.00    +0.000 A 
ATOM     28  C   UNL     1       8.917  -1.362  25.689  0.00  0.00    +0.000 A 
ATOM     29  C   UNL     1       8.037  -1.492  26.845  0.00  0.00    +0.000 A 
ATOM     30  C   UNL     1       7.096  -0.297  26.807  0.00  0.00    +0.000 A 
ATOM     31  C   UNL     1       6.894   0.809  25.971  0.00  0.00    +0.000 A 
ATOM     32  C   UNL     1       7.959   0.835  24.939  0.00  0.00    +0.000 A 
ATOM     33  C   UNL     1       8.755   2.140  24.807  0.00  0.00    +0.000 C 
ATOM     34  C   UNL     1       9.232   2.220  23.377  0.00  0.00    +0.000 C 
BRANCH  33  35
ATOM     35  C   UNL     1       7.801   3.279  25.145  0.00  0.00    +0.000 A 
ATOM     36  C   UNL     1       7.128   3.625  23.795  0.00  0.00    +0.000 A 
ATOM     37  C   UNL     1       7.366   4.830  22.949  0.00  0.00    +0.000 A 
ATOM     38  C   UNL     1       8.149   5.767  23.797  0.00  0.00    +0.000 A 
ATOM     39  C   UNL     1       8.579   5.857  25.145  0.00  0.00    +0.000 A 
ATOM     40  C   UNL     1       8.177   4.537  25.820  0.00  0.00    +0.000 A 
ENDBRANCH  33  35
ENDBRANCH  22  23
ENDBRANCH  21  22
ENDBRANCH   5  21
TORSDOF 7
ENDMDL
MODEL 7
REMARK VINA RESULT:      -7.5      2.376      5.140
REMARK  Name = 
REMARK  7 active torsions:
REMARK  status: ('A' for Active; 'I' for Inactive)
REMARK    1  A    between atoms: O_2  and  C_3
REMARK    2  A    between atoms: C_12  and  N_13
REMARK    3  A    between atoms: C_15  and  C_17
REMARK    4  A    between atoms: C_26  and  C_28
REMARK    5  A    between atoms: C_28  and  C_31
REMARK    6  A    between atoms: C_31  and  C_34
REMARK    7  A    between atoms: C_50  and  C_52
REMARK                            x       y       z     vdW  Elec       q    Type
REMARK                         _______ _______ _______ _____ _____    ______ ____
ROOT
ATOM      1  C   UNL     1       5.791  -5.206  25.288  0.00  0.00    +0.000 C 
ATOM      2  C   UNL     1       4.651  -4.414  24.766  0.00  0.00    +0.000 C 
ATOM      3  C   UNL     1       4.872  -3.530  23.598  0.00  0.00    +0.000 C 
ATOM      4  N   UNL     1       6.117  -3.653  22.866  0.00  0.00    +0.000 N 
ATOM      5  C   UNL     1       6.106  -3.314  21.515  0.00  0.00    +0.000 C 
ATOM      6  O   UNL     1       5.842  -4.392  20.835  0.00  0.00    +0.000 OA
ATOM      7  C   UNL     1       7.148  -4.563  23.293  0.00  0.00    +0.000 C 
ATOM      8  C   UNL     1       6.608  -5.719  24.115  0.00  0.00    +0.000 C 
ENDROOT
BRANCH   1  11
ATOM      9  N   UNL     1       6.484  -3.463  26.893  0.00  0.00    +0.000 N 
ATOM     10  H   UNL     1       7.002  -3.350  27.700  0.00  0.00    +0.000 HD
ATOM     11  C   UNL     1       6.610  -4.655  26.360  0.00  0.00    +0.000 C 
ATOM     12  O   UNL     1       7.879  -4.985  26.387  0.00  0.00    +0.000 OA
BRANCH   9  18
ATOM     13  C   UNL     1       5.016  -1.641  26.971  0.00  0.00    +0.000 A 
ATOM     14  C   UNL     1       4.534  -0.912  28.207  0.00  0.00    +0.000 A 
ATOM     15  C   UNL     1       3.863  -1.485  29.419  0.00  0.00    +0.000 A 
ATOM     16  C   UNL     1       3.981  -2.961  29.268  0.00  0.00    +0.000 A 
ATOM     17  C   UNL     1       4.642  -3.872  28.440  0.00  0.00    +0.000 A 
ATOM     18  C   UNL     1       5.199  -3.106  27.237  0.00  0.00    +0.000 A 
BRANCH  13  20
ATOM     19  H   UNL     1       3.397  -0.686  26.730  0.00  0.00    +0.000 HD
ATOM     20  O   UNL     1       4.021  -1.071  26.130  0.00  0.00    +0.000 OA
ENDBRANCH  13  20
ENDBRANCH   9  18
ENDBRANCH   1  11
BRANCH   5  21
ATOM     21  C   UNL     1       5.795  -2.028  20.957  0.00  0.00    +0.000 C 
BRANCH  21  22
ATOM     22  C   UNL     1       6.633  -1.188  20.188  0.00  0.00    +0.000 C 
BRANCH  22  23
ATOM     23  C   UNL     1       7.157   0.137  20.358  0.00  0.00    +0.000 C 
ATOM     24  O   UNL     1       6.595   0.998  19.529  0.00  0.00    +0.000 OA
ATOM     25  N   UNL     1       8.299   0.670  20.798  0.00  0.00    +0.000 N 
ATOM     26  C   UNL     1       9.299  -0.339  21.424  0.00  0.00    +0.000 C 
ATOM     27  C   UNL     1       8.730  -0.703  22.537  0.00  0.00    +0.000 A 
ATOM     28  C   UNL     1       9.454  -1.758  23.314  0.00  0.00    +0.000 A 
ATOM     29  C   UNL     1       9.343  -2.036  24.741  0.00  0.00    +0.000 A 
ATOM     30  C   UNL     1       8.458  -0.945  25.326  0.00  0.00    +0.000 A 
ATOM     31  C   UNL     1       7.769   0.174  24.836  0.00  0.00    +0.000 A 
ATOM     32  C   UNL     1       8.109   0.360  23.405  0.00  0.00    +0.000 A 
ATOM     33  C   UNL     1       8.626   1.746  22.997  0.00  0.00    +0.000 C 
ATOM     34  C   UNL     1       8.254   1.945  21.548  0.00  0.00    +0.000 C 
BRANCH  33  35
ATOM     35  C   UNL     1       7.935   2.762  23.899  0.00  0.00    +0.000 A 
ATOM     36  C   UNL     1       7.114   3.639  22.924  0.00  0.00    +0.000 A 
ATOM     37  C   UNL     1       7.400   5.045  22.513  0.00  0.00    +0.000 A 
ATOM     38  C   UNL     1       8.451   5.529  23.446  0.00  0.00    +0.000 A 
ATOM     39  C   UNL     1       9.106   5.078  24.620  0.00  0.00    +0.000 A 
ATOM     40  C   UNL     1       8.613   3.644  24.870  0.00  0.00    +0.000 A 
ENDBRANCH  33  35
ENDBRANCH  22  23
ENDBRANCH  21  22
ENDBRANCH   5  21
TORSDOF 7
ENDMDL
MODEL 8
REMARK VINA RESULT:      -7.4      2.502      4.971
REMARK  Name = 
REMARK  7 active torsions:
REMARK  status: ('A' for Active; 'I' for Inactive)
REMARK    1  A    between atoms: O_2  and  C_3
REMARK    2  A    between atoms: C_12  and  N_13
REMARK    3  A    between atoms: C_15  and  C_17
REMARK    4  A    between atoms: C_26  and  C_28
REMARK    5  A    between atoms: C_28  and  C_31
REMARK    6  A    between atoms: C_31  and  C_34
REMARK    7  A    between atoms: C_50  and  C_52
REMARK                            x       y       z     vdW  Elec       q    Type
REMARK                         _______ _______ _______ _____ _____    ______ ____
ROOT
ATOM      1  C   UNL     1       3.195  -5.745  24.952  0.00  0.00    +0.000 C 
ATOM      2  C   UNL     1       4.054  -4.589  25.308  0.00  0.00    +0.000 C 
ATOM      3  C   UNL     1       5.304  -4.368  24.547  0.00  0.00    +0.000 C 
ATOM      4  N   UNL     1       5.520  -5.135  23.337  0.00  0.00    +0.000 N 
ATOM      5  C   UNL     1       6.313  -4.565  22.344  0.00  0.00    +0.000 C 
ATOM      6  O   UNL     1       5.532  -3.907  21.538  0.00  0.00    +0.000 OA
ATOM      7  C   UNL     1       4.580  -6.139  22.911  0.00  0.00    +0.000 C 
ATOM      8  C   UNL     1       3.178  -5.893  23.440  0.00  0.00    +0.000 C 
ENDROOT
BRANCH   1  11
ATOM      9  N   UNL     1       4.258  -7.253  26.593  0.00  0.00    +0.000 N 
ATOM     10  H   UNL     1       4.109  -8.090  27.048  0.00  0.00    +0.000 HD
ATOM     11  C   UNL     1       3.378  -7.011  25.650  0.00  0.00    +0.000 C 
ATOM     12  O   UNL     1       3.196  -8.115  24.966  0.00  0.00    +0.000 OA
BRANCH   9  18
ATOM     13  C   UNL     1       5.749  -6.168  28.036  0.00  0.00    +0.000 A 
ATOM     14  C   UNL     1       5.883  -6.376  29.530  0.00  0.00    +0.000 A 
ATOM     15  C   UNL     1       4.819  -6.277  30.580  0.00  0.00    +0.000 A 
ATOM     16  C   UNL     1       3.539  -6.167  29.828  0.00  0.00    +0.000 A 
ATOM     17  C   UNL     1       3.096  -6.285  28.507  0.00  0.00    +0.000 A 
ATOM     18  C   UNL     1       4.322  -6.306  27.592  0.00  0.00    +0.000 A 
BRANCH  13  20
ATOM     19  H   UNL     1       6.903  -4.937  28.897  0.00  0.00    +0.000 HD
ATOM     20  O   UNL     1       6.501  -4.962  28.040  0.00  0.00    +0.000 OA
ENDBRANCH  13  20
ENDBRANCH   9  18
ENDBRANCH   1  11
BRANCH   5  21
ATOM     21  C   UNL     1       7.693  -4.186  22.463  0.00  0.00    +0.000 C 
BRANCH  21  22
ATOM     22  C   UNL     1       8.355  -3.654  23.593  0.00  0.00    +0.000 C 
BRANCH  22  23
ATOM     23  C   UNL     1       9.206  -2.521  23.820  0.00  0.00    +0.000 C 
ATOM     24  O   UNL     1      10.249  -2.520  23.009  0.00  0.00    +0.000 OA
ATOM     25  N   UNL     1       9.479  -1.714  24.848  0.00  0.00    +0.000 N 
ATOM     26  C   UNL     1       8.582  -1.915  26.099  0.00  0.00    +0.000 C 
ATOM     27  C   UNL     1       7.412  -1.484  25.726  0.00  0.00    +0.000 A 
ATOM     28  C   UNL     1       6.316  -1.646  26.733  0.00  0.00    +0.000 A 
ATOM     29  C   UNL     1       5.072  -0.890  26.813  0.00  0.00    +0.000 A 
ATOM     30  C   UNL     1       5.164   0.205  25.761  0.00  0.00    +0.000 A 
ATOM     31  C   UNL     1       6.100   0.612  24.799  0.00  0.00    +0.000 A 
ATOM     32  C   UNL     1       7.337  -0.189  24.961  0.00  0.00    +0.000 A 
ATOM     33  C   UNL     1       8.646   0.596  25.117  0.00  0.00    +0.000 C 
ATOM     34  C   UNL     1       9.751  -0.284  24.584  0.00  0.00    +0.000 C 
BRANCH  33  35
ATOM     35  C   UNL     1       8.501   1.872  24.299  0.00  0.00    +0.000 A 
ATOM     36  C   UNL     1       8.445   1.379  22.832  0.00  0.00    +0.000 A 
ATOM     37  C   UNL     1       9.509   1.509  21.795  0.00  0.00    +0.000 A 
ATOM     38  C   UNL     1      10.504   2.459  22.357  0.00  0.00    +0.000 A 
ATOM     39  C   UNL     1      10.626   3.312  23.484  0.00  0.00    +0.000 A 
ATOM     40  C   UNL     1       9.400   3.041  24.369  0.00  0.00    +0.000 A 
ENDBRANCH  33  35
ENDBRANCH  22  23
ENDBRANCH  21  22
ENDBRANCH   5  21
TORSDOF 7
ENDMDL
MODEL 9
REMARK VINA RESULT:      -7.4      2.329      7.852
REMARK  Name = 
REMARK  7 active torsions:
REMARK  status: ('A' for Active; 'I' for Inactive)
REMARK    1  A    between atoms: O_2  and  C_3
REMARK    2  A    between atoms: C_12  and  N_13
REMARK    3  A    between atoms: C_15  and  C_17
REMARK    4  A    between atoms: C_26  and  C_28
REMARK    5  A    between atoms: C_28  and  C_31
REMARK    6  A    between atoms: C_31  and  C_34
REMARK    7  A    between atoms: C_50  and  C_52
REMARK                            x       y       z     vdW  Elec       q    Type
REMARK                         _______ _______ _______ _____ _____    ______ ____
ROOT
ATOM      1  C   UNL     1       7.090   2.286  23.744  0.00  0.00    +0.000 C 
ATOM      2  C   UNL     1       6.549   0.912  23.604  0.00  0.00    +0.000 C 
ATOM      3  C   UNL     1       7.482  -0.235  23.686  0.00  0.00    +0.000 C 
ATOM      4  N   UNL     1       8.837   0.010  24.137  0.00  0.00    +0.000 N 
ATOM      5  C   UNL     1       9.505  -1.036  24.770  0.00  0.00    +0.000 C 
ATOM      6  O   UNL     1       9.284  -0.935  26.048  0.00  0.00    +0.000 OA
ATOM      7  C   UNL     1       9.296   1.341  24.438  0.00  0.00    +0.000 C 
ATOM      8  C   UNL     1       8.165   2.280  24.818  0.00  0.00    +0.000 C 
ENDROOT
BRANCH   1  11
ATOM      9  N   UNL     1       7.841   2.501  21.402  0.00  0.00    +0.000 N 
ATOM     10  H   UNL     1       7.891   3.147  20.687  0.00  0.00    +0.000 HD
ATOM     11  C   UNL     1       7.478   3.024  22.549  0.00  0.00    +0.000 C 
ATOM     12  O   UNL     1       8.133   4.147  22.714  0.00  0.00    +0.000 OA
BRANCH   9  18
ATOM     13  C   UNL     1       7.868   0.463  20.249  0.00  0.00    +0.000 A 
ATOM     14  C   UNL     1       7.402   0.214  18.830  0.00  0.00    +0.000 A 
ATOM     15  C   UNL     1       6.067   0.522  18.224  0.00  0.00    +0.000 A 
ATOM     16  C   UNL     1       5.359   1.348  19.241  0.00  0.00    +0.000 A 
ATOM     17  C   UNL     1       5.655   1.993  20.445  0.00  0.00    +0.000 A 
ATOM     18  C   UNL     1       7.021   1.500  20.927  0.00  0.00    +0.000 A 
BRANCH  13  20
ATOM     19  H   UNL     1       7.768  -1.363  19.756  0.00  0.00    +0.000 HD
ATOM     20  O   UNL     1       7.906  -0.919  20.581  0.00  0.00    +0.000 OA
ENDBRANCH  13  20
ENDBRANCH   9  18
ENDBRANCH   1  11
BRANCH   5  21
ATOM     21  C   UNL     1       9.824  -2.316  24.203  0.00  0.00    +0.000 C 
BRANCH  21  22
ATOM     22  C   UNL     1       9.936  -3.558  24.868  0.00  0.00    +0.000 C 
BRANCH  22  23
ATOM     23  C   UNL     1       9.049  -4.355  25.667  0.00  0.00    +0.000 C 
ATOM     24  O   UNL     1       9.452  -4.427  26.923  0.00  0.00    +0.000 OA
ATOM     25  N   UNL     1       8.195  -5.356  25.448  0.00  0.00    +0.000 N 
ATOM     26  C   UNL     1       7.952  -5.700  23.953  0.00  0.00    +0.000 C 
ATOM     27  C   UNL     1       7.289  -4.679  23.494  0.00  0.00    +0.000 A 
ATOM     28  C   UNL     1       6.994  -4.709  22.027  0.00  0.00    +0.000 A 
ATOM     29  C   UNL     1       5.930  -4.001  21.324  0.00  0.00    +0.000 A 
ATOM     30  C   UNL     1       5.077  -3.334  22.393  0.00  0.00    +0.000 A 
ATOM     31  C   UNL     1       5.089  -3.247  23.792  0.00  0.00    +0.000 A 
ATOM     32  C   UNL     1       6.155  -4.131  24.322  0.00  0.00    +0.000 A 
ATOM     33  C   UNL     1       5.734  -5.153  25.386  0.00  0.00    +0.000 C 
ATOM     34  C   UNL     1       6.947  -5.422  26.241  0.00  0.00    +0.000 C 
BRANCH  33  35
ATOM     35  C   UNL     1       4.607  -4.518  26.191  0.00  0.00    +0.000 A 
ATOM     36  C   UNL     1       5.257  -4.190  27.559  0.00  0.00    +0.000 A 
ATOM     37  C   UNL     1       5.029  -4.888  28.857  0.00  0.00    +0.000 A 
ATOM     38  C   UNL     1       3.844  -5.760  28.642  0.00  0.00    +0.000 A 
ATOM     39  C   UNL     1       2.868  -5.981  27.637  0.00  0.00    +0.000 A 
ATOM     40  C   UNL     1       3.282  -5.121  26.432  0.00  0.00    +0.000 A 
ENDBRANCH  33  35
ENDBRANCH  22  23
ENDBRANCH  21  22
ENDBRANCH   5  21
TORSDOF 7
ENDMDL
