MODEL 1
REMARK VINA RESULT:      -8.7      0.000      0.000
REMARK  Name = 
REMARK  5 active torsions:
REMARK  status: ('A' for Active; 'I' for Inactive)
REMARK    1  A    between atoms: C_5  and  C_6
REMARK    2  A    between atoms: C_14  and  C_15
REMARK    3  A    between atoms: C_25  and  C_27
REMARK    4  A    between atoms: C_32  and  S_33
REMARK    5  A    between atoms: S_33  and  N_36
REMARK                            x       y       z     vdW  Elec       q    Type
REMARK                         _______ _______ _______ _____ _____    ______ ____
ROOT
ATOM      1  C   UNL     1       6.807  -4.730  25.881  0.00  0.00    +0.000 C 
ATOM      2  O   UNL     1       7.453  -5.743  26.095  0.00  0.00    +0.000 OA
ATOM      3  N   UNL     1       7.500  -3.644  25.387  0.00  0.00    +0.000 N 
ATOM      4  C   UNL     1       7.759  -2.571  26.347  0.00  0.00    +0.000 C 
ATOM      5  C   UNL     1       8.266  -1.346  25.603  0.00  0.00    +0.000 C 
ATOM      6  N   UNL     1       8.099  -1.557  24.177  0.00  0.00    +0.000 N 
ATOM      7  C   UNL     1       7.258  -0.765  23.464  0.00  0.00    +0.000 C 
ATOM      8  O   UNL     1       6.236  -0.360  23.901  0.00  0.00    +0.000 OA
ATOM      9  C   UNL     1       8.770  -2.678  23.554  0.00  0.00    +0.000 C 
ATOM     10  C   UNL     1       8.513  -3.933  24.377  0.00  0.00    +0.000 C 
ENDROOT
BRANCH   1  17
ATOM     11  C   UNL     1       5.413  -3.676  24.114  0.00  0.00    +0.000 A 
ATOM     12  C   UNL     1       5.436  -4.291  22.715  0.00  0.00    +0.000 A 
ATOM     13  C   UNL     1       5.498  -5.736  22.356  0.00  0.00    +0.000 A 
ATOM     14  C   UNL     1       6.857  -6.032  21.861  0.00  0.00    +0.000 C 
ATOM     15  C   UNL     1       5.266  -6.445  23.641  0.00  0.00    +0.000 A 
ATOM     16  C   UNL     1       5.118  -6.190  25.019  0.00  0.00    +0.000 A 
ATOM     17  C   UNL     1       5.553  -4.698  25.162  0.00  0.00    +0.000 A 
ENDBRANCH   1  17
BRANCH   7  18
ATOM     18  C   UNL     1       8.153   0.109  22.716  0.00  0.00    +0.000 A 
ATOM     19  C   UNL     1       7.178   1.164  22.309  0.00  0.00    +0.000 A 
ATOM     20  C   UNL     1       6.699   1.424  20.931  0.00  0.00    +0.000 A 
ATOM     21  C   UNL     1       7.347   0.506  19.913  0.00  0.00    +0.000 A 
ATOM     22  C   UNL     1       8.539  -0.323  20.130  0.00  0.00    +0.000 A 
ATOM     23  C   UNL     1       8.967  -0.427  21.634  0.00  0.00    +0.000 A 
BRANCH  21  24
ATOM     24  S   UNL     1       5.916  -0.428  19.230  0.00  0.00    +0.000 S 
ATOM     25  O   UNL     1       6.194  -0.664  17.837  0.00  0.00    +0.000 OA
ATOM     26  O   UNL     1       5.711  -1.578  20.045  0.00  0.00    +0.000 OA
BRANCH  24  27
ATOM     27  N   UNL     1       4.609   0.561  19.322  0.00  0.00    +0.000 NA
ATOM     28  H   UNL     1       4.900   1.469  19.673  0.00  0.00    +0.000 HD
ATOM     29  H   UNL     1       4.000   0.203  20.068  0.00  0.00    +0.000 HD
ENDBRANCH  24  27
ENDBRANCH  21  24
ENDBRANCH   7  18
TORSDOF 4
ENDMDL
MODEL 2
REMARK VINA RESULT:      -8.4      1.323      2.128
REMARK  Name = 
REMARK  5 active torsions:
REMARK  status: ('A' for Active; 'I' for Inactive)
REMARK    1  A    between atoms: C_5  and  C_6
REMARK    2  A    between atoms: C_14  and  C_15
REMARK    3  A    between atoms: C_25  and  C_27
REMARK    4  A    between atoms: C_32  and  S_33
REMARK    5  A    between atoms: S_33  and  N_36
REMARK                            x       y       z     vdW  Elec       q    Type
REMARK                         _______ _______ _______ _____ _____    ______ ____
ROOT
ATOM      1  C   UNL     1       7.241  -3.841  26.662  0.00  0.00    +0.000 C 
ATOM      2  O   UNL     1       7.990  -4.655  27.177  0.00  0.00    +0.000 OA
ATOM      3  N   UNL     1       7.833  -2.796  25.985  0.00  0.00    +0.000 N 
ATOM      4  C   UNL     1       7.809  -1.505  26.672  0.00  0.00    +0.000 C 
ATOM      5  C   UNL     1       8.231  -0.413  25.701  0.00  0.00    +0.000 C 
ATOM      6  N   UNL     1       8.284  -0.968  24.361  0.00  0.00    +0.000 N 
ATOM      7  C   UNL     1       7.441  -0.512  23.400  0.00  0.00    +0.000 C 
ATOM      8  O   UNL     1       6.323  -0.197  23.626  0.00  0.00    +0.000 OA
ATOM      9  C   UNL     1       9.183  -2.071  24.098  0.00  0.00    +0.000 C 
ATOM     10  C   UNL     1       9.000  -3.131  25.176  0.00  0.00    +0.000 C 
ENDROOT
BRANCH   1  17
ATOM     11  C   UNL     1       6.145  -5.485  25.155  0.00  0.00    +0.000 A 
ATOM     12  C   UNL     1       5.166  -6.486  25.769  0.00  0.00    +0.000 A 
ATOM     13  C   UNL     1       4.187  -6.246  26.866  0.00  0.00    +0.000 A 
ATOM     14  C   UNL     1       4.695  -6.897  28.091  0.00  0.00    +0.000 C 
ATOM     15  C   UNL     1       4.188  -4.770  27.045  0.00  0.00    +0.000 A 
ATOM     16  C   UNL     1       4.859  -3.616  26.597  0.00  0.00    +0.000 A 
ATOM     17  C   UNL     1       6.101  -4.186  25.842  0.00  0.00    +0.000 A 
ENDBRANCH   1  17
BRANCH   7  18
ATOM     18  C   UNL     1       8.293   0.308  22.548  0.00  0.00    +0.000 A 
ATOM     19  C   UNL     1       7.294   1.329  22.116  0.00  0.00    +0.000 A 
ATOM     20  C   UNL     1       6.746   1.489  20.748  0.00  0.00    +0.000 A 
ATOM     21  C   UNL     1       7.348   0.502  19.767  0.00  0.00    +0.000 A 
ATOM     22  C   UNL     1       8.553  -0.308  19.983  0.00  0.00    +0.000 A 
ATOM     23  C   UNL     1       9.055  -0.304  21.468  0.00  0.00    +0.000 A 
BRANCH  21  24
ATOM     24  S   UNL     1       5.890  -0.481  19.225  0.00  0.00    +0.000 S 
ATOM     25  O   UNL     1       6.087  -0.794  17.834  0.00  0.00    +0.000 OA
ATOM     26  O   UNL     1       5.745  -1.584  20.115  0.00  0.00    +0.000 OA
BRANCH  24  27
ATOM     27  N   UNL     1       4.579   0.502  19.337  0.00  0.00    +0.000 NA
ATOM     28  H   UNL     1       3.800   0.081  18.839  0.00  0.00    +0.000 HD
ATOM     29  H   UNL     1       4.778   1.349  18.791  0.00  0.00    +0.000 HD
ENDBRANCH  24  27
ENDBRANCH  21  24
ENDBRANCH   7  18
TORSDOF 4
ENDMDL
MODEL 3
REMARK VINA RESULT:      -8.1      3.287      6.695
REMARK  Name = 
REMARK  5 active torsions:
REMARK  status: ('A' for Active; 'I' for Inactive)
REMARK    1  A    between atoms: C_5  and  C_6
REMARK    2  A    between atoms: C_14  and  C_15
REMARK    3  A    between atoms: C_25  and  C_27
REMARK    4  A    between atoms: C_32  and  S_33
REMARK    5  A    between atoms: S_33  and  N_36
REMARK                            x       y       z     vdW  Elec       q    Type
REMARK                         _______ _______ _______ _____ _____    ______ ____
ROOT
ATOM      1  C   UNL     1       9.342  -1.500  24.346  0.00  0.00    +0.000 C 
ATOM      2  O   UNL     1       9.997  -0.665  24.948  0.00  0.00    +0.000 OA
ATOM      3  N   UNL     1       8.630  -2.399  25.111  0.00  0.00    +0.000 N 
ATOM      4  C   UNL     1       9.190  -3.748  25.185  0.00  0.00    +0.000 C 
ATOM      5  C   UNL     1       8.166  -4.682  25.812  0.00  0.00    +0.000 C 
ATOM      6  N   UNL     1       6.894  -3.991  25.907  0.00  0.00    +0.000 N 
ATOM      7  C   UNL     1       5.821  -4.437  25.205  0.00  0.00    +0.000 C 
ATOM      8  O   UNL     1       5.913  -4.896  24.118  0.00  0.00    +0.000 OA
ATOM      9  C   UNL     1       6.817  -2.774  26.687  0.00  0.00    +0.000 C 
ATOM     10  C   UNL     1       7.966  -1.856  26.291  0.00  0.00    +0.000 C 
ENDROOT
BRANCH   1  17
ATOM     11  C   UNL     1       7.548  -0.057  23.410  0.00  0.00    +0.000 A 
ATOM     12  C   UNL     1       7.956   1.125  22.532  0.00  0.00    +0.000 A 
ATOM     13  C   UNL     1       9.063   1.180  21.536  0.00  0.00    +0.000 A 
ATOM     14  C   UNL     1      10.159   1.990  22.105  0.00  0.00    +0.000 C 
ATOM     15  C   UNL     1       9.503  -0.233  21.396  0.00  0.00    +0.000 A 
ATOM     16  C   UNL     1       9.281  -1.507  21.953  0.00  0.00    +0.000 A 
ATOM     17  C   UNL     1       8.455  -1.202  23.242  0.00  0.00    +0.000 A 
ENDBRANCH   1  17
BRANCH   7  18
ATOM     18  C   UNL     1       4.980  -5.066  26.215  0.00  0.00    +0.000 A 
ATOM     19  C   UNL     1       5.048  -6.481  25.742  0.00  0.00    +0.000 A 
ATOM     20  C   UNL     1       3.933  -7.257  25.151  0.00  0.00    +0.000 A 
ATOM     21  C   UNL     1       2.641  -6.464  25.102  0.00  0.00    +0.000 A 
ATOM     22  C   UNL     1       2.363  -5.217  25.825  0.00  0.00    +0.000 A 
ATOM     23  C   UNL     1       3.635  -4.565  26.466  0.00  0.00    +0.000 A 
BRANCH  21  24
ATOM     24  S   UNL     1       2.287  -6.365  23.299  0.00  0.00    +0.000 S 
ATOM     25  O   UNL     1       1.728  -7.633  22.910  0.00  0.00    +0.000 OA
ATOM     26  O   UNL     1       1.479  -5.213  23.072  0.00  0.00    +0.000 OA
BRANCH  24  27
ATOM     27  N   UNL     1       3.729  -6.194  22.535  0.00  0.00    +0.000 NA
ATOM     28  H   UNL     1       4.393  -5.752  23.166  0.00  0.00    +0.000 HD
ATOM     29  H   UNL     1       3.607  -5.493  21.794  0.00  0.00    +0.000 HD
ENDBRANCH  24  27
ENDBRANCH  21  24
ENDBRANCH   7  18
TORSDOF 4
ENDMDL
MODEL 4
REMARK VINA RESULT:      -8.1      2.412      2.700
REMARK  Name = 
REMARK  5 active torsions:
REMARK  status: ('A' for Active; 'I' for Inactive)
REMARK    1  A    between atoms: C_5  and  C_6
REMARK    2  A    between atoms: C_14  and  C_15
REMARK    3  A    between atoms: C_25  and  C_27
REMARK    4  A    between atoms: C_32  and  S_33
REMARK    5  A    between atoms: S_33  and  N_36
REMARK                            x       y       z     vdW  Elec       q    Type
REMARK                         _______ _______ _______ _____ _____    ______ ____
ROOT
ATOM      1  C   UNL     1       6.049  -4.993  25.677  0.00  0.00    +0.000 C 
ATOM      2  O   UNL     1       6.297  -6.159  25.939  0.00  0.00    +0.000 OA
ATOM      3  N   UNL     1       7.125  -4.135  25.588  0.00  0.00    +0.000 N 
ATOM      4  C   UNL     1       7.306  -3.228  26.721  0.00  0.00    +0.000 C 
ATOM      5  C   UNL     1       8.336  -2.171  26.357  0.00  0.00    +0.000 C 
ATOM      6  N   UNL     1       8.621  -2.258  24.937  0.00  0.00    +0.000 N 
ATOM      7  C   UNL     1       8.311  -1.225  24.114  0.00  0.00    +0.000 C 
ATOM      8  O   UNL     1       7.343  -0.560  24.258  0.00  0.00    +0.000 OA
ATOM      9  C   UNL     1       9.152  -3.496  24.407  0.00  0.00    +0.000 C 
ATOM     10  C   UNL     1       8.312  -4.658  24.920  0.00  0.00    +0.000 C 
ENDROOT
BRANCH   1  17
ATOM     11  C   UNL     1       5.635  -3.443  23.779  0.00  0.00    +0.000 A 
ATOM     12  C   UNL     1       6.029  -3.901  22.375  0.00  0.00    +0.000 A 
ATOM     13  C   UNL     1       5.912  -5.269  21.797  0.00  0.00    +0.000 A 
ATOM     14  C   UNL     1       7.264  -5.858  21.723  0.00  0.00    +0.000 C 
ATOM     15  C   UNL     1       5.091  -6.018  22.785  0.00  0.00    +0.000 A 
ATOM     16  C   UNL     1       4.516  -5.871  24.063  0.00  0.00    +0.000 A 
ATOM     17  C   UNL     1       5.173  -4.565  24.610  0.00  0.00    +0.000 A 
ENDBRANCH   1  17
BRANCH   7  18
ATOM     18  C   UNL     1       9.602  -0.614  23.820  0.00  0.00    +0.000 A 
ATOM     19  C   UNL     1       9.550   0.536  24.771  0.00  0.00    +0.000 A 
ATOM     20  C   UNL     1       9.433   1.967  24.402  0.00  0.00    +0.000 A 
ATOM     21  C   UNL     1       9.409   2.176  22.901  0.00  0.00    +0.000 A 
ATOM     22  C   UNL     1       9.783   1.186  21.883  0.00  0.00    +0.000 A 
ATOM     23  C   UNL     1       9.953  -0.265  22.450  0.00  0.00    +0.000 A 
BRANCH  21  24
ATOM     24  S   UNL     1       7.757   2.934  22.617  0.00  0.00    +0.000 S 
ATOM     25  O   UNL     1       7.157   2.234  21.511  0.00  0.00    +0.000 OA
ATOM     26  O   UNL     1       7.044   2.913  23.850  0.00  0.00    +0.000 OA
BRANCH  24  27
ATOM     27  N   UNL     1       8.015   4.486  22.148  0.00  0.00    +0.000 NA
ATOM     28  H   UNL     1       7.508   4.665  21.286  0.00  0.00    +0.000 HD
ATOM     29  H   UNL     1       8.999   4.566  21.865  0.00  0.00    +0.000 HD
ENDBRANCH  24  27
ENDBRANCH  21  24
ENDBRANCH   7  18
TORSDOF 4
ENDMDL
MODEL 5
REMARK VINA RESULT:      -8.1      3.073      7.123
REMARK  Name = 
REMARK  5 active torsions:
REMARK  status: ('A' for Active; 'I' for Inactive)
REMARK    1  A    between atoms: C_5  and  C_6
REMARK    2  A    between atoms: C_14  and  C_15
REMARK    3  A    between atoms: C_25  and  C_27
REMARK    4  A    between atoms: C_32  and  S_33
REMARK    5  A    between atoms: S_33  and  N_36
REMARK                            x       y       z     vdW  Elec       q    Type
REMARK                         _______ _______ _______ _____ _____    ______ ____
ROOT
ATOM      1  C   UNL     1       9.403   1.782  22.365  0.00  0.00    +0.000 C 
ATOM      2  O   UNL     1      10.478   2.358  22.327  0.00  0.00    +0.000 OA
ATOM      3  N   UNL     1       9.439   0.408  22.477  0.00  0.00    +0.000 N 
ATOM      4  C   UNL     1       9.127  -0.333  21.255  0.00  0.00    +0.000 C 
ATOM      5  C   UNL     1       8.927  -1.801  21.596  0.00  0.00    +0.000 C 
ATOM      6  N   UNL     1       8.872  -1.947  23.039  0.00  0.00    +0.000 N 
ATOM      7  C   UNL     1       7.736  -2.385  23.637  0.00  0.00    +0.000 C 
ATOM      8  O   UNL     1       6.656  -2.092  23.253  0.00  0.00    +0.000 OA
ATOM      9  C   UNL     1      10.013  -1.530  23.826  0.00  0.00    +0.000 C 
ATOM     10  C   UNL     1      10.443  -0.139  23.383  0.00  0.00    +0.000 C 
ENDROOT
BRANCH   1  17
ATOM     11  C   UNL     1       8.621   2.527  24.604  0.00  0.00    +0.000 A 
ATOM     12  C   UNL     1       8.475   4.028  24.854  0.00  0.00    +0.000 A 
ATOM     13  C   UNL     1       7.989   5.067  23.903  0.00  0.00    +0.000 A 
ATOM     14  C   UNL     1       9.150   5.859  23.449  0.00  0.00    +0.000 C 
ATOM     15  C   UNL     1       7.434   4.291  22.763  0.00  0.00    +0.000 A 
ATOM     16  C   UNL     1       7.326   2.969  22.290  0.00  0.00    +0.000 A 
ATOM     17  C   UNL     1       8.298   2.171  23.214  0.00  0.00    +0.000 A 
ENDBRANCH   1  17
BRANCH   7  18
ATOM     18  C   UNL     1       8.049  -3.757  24.019  0.00  0.00    +0.000 A 
ATOM     19  C   UNL     1       7.422  -4.478  22.871  0.00  0.00    +0.000 A 
ATOM     20  C   UNL     1       6.217  -5.339  22.936  0.00  0.00    +0.000 A 
ATOM     21  C   UNL     1       5.673  -5.464  24.345  0.00  0.00    +0.000 A 
ATOM     22  C   UNL     1       6.374  -5.092  25.581  0.00  0.00    +0.000 A 
ATOM     23  C   UNL     1       7.676  -4.255  25.336  0.00  0.00    +0.000 A 
BRANCH  21  24
ATOM     24  S   UNL     1       3.992  -4.731  24.204  0.00  0.00    +0.000 S 
ATOM     25  O   UNL     1       3.620  -4.794  22.815  0.00  0.00    +0.000 OA
ATOM     26  O   UNL     1       3.139  -5.404  25.126  0.00  0.00    +0.000 OA
BRANCH  24  27
ATOM     27  N   UNL     1       4.122  -3.148  24.619  0.00  0.00    +0.000 NA
ATOM     28  H   UNL     1       3.193  -2.761  24.763  0.00  0.00    +0.000 HD
ATOM     29  H   UNL     1       4.464  -2.638  23.795  0.00  0.00    +0.000 HD
ENDBRANCH  24  27
ENDBRANCH  21  24
ENDBRANCH   7  18
TORSDOF 4
ENDMDL
MODEL 6
REMARK VINA RESULT:      -8.0      1.685      2.451
REMARK  Name = 
REMARK  5 active torsions:
REMARK  status: ('A' for Active; 'I' for Inactive)
REMARK    1  A    between atoms: C_5  and  C_6
REMARK    2  A    between atoms: C_14  and  C_15
REMARK    3  A    between atoms: C_25  and  C_27
REMARK    4  A    between atoms: C_32  and  S_33
REMARK    5  A    between atoms: S_33  and  N_36
REMARK                            x       y       z     vdW  Elec       q    Type
REMARK                         _______ _______ _______ _____ _____    ______ ____
ROOT
ATOM      1  C   UNL     1       5.807  -5.421  26.150  0.00  0.00    +0.000 C 
ATOM      2  O   UNL     1       6.251  -6.370  26.775  0.00  0.00    +0.000 OA
ATOM      3  N   UNL     1       6.662  -4.358  25.946  0.00  0.00    +0.000 N 
ATOM      4  C   UNL     1       6.409  -3.178  26.772  0.00  0.00    +0.000 C 
ATOM      5  C   UNL     1       7.230  -2.012  26.243  0.00  0.00    +0.000 C 
ATOM      6  N   UNL     1       7.802  -2.380  24.962  0.00  0.00    +0.000 N 
ATOM      7  C   UNL     1       7.440  -1.714  23.836  0.00  0.00    +0.000 C 
ATOM      8  O   UNL     1       6.339  -1.320  23.652  0.00  0.00    +0.000 OA
ATOM      9  C   UNL     1       8.688  -3.523  24.896  0.00  0.00    +0.000 C 
ATOM     10  C   UNL     1       8.043  -4.696  25.620  0.00  0.00    +0.000 C 
ENDROOT
BRANCH   1  17
ATOM     11  C   UNL     1       4.827  -6.891  24.402  0.00  0.00    +0.000 A 
ATOM     12  C   UNL     1       3.350  -7.268  24.521  0.00  0.00    +0.000 A 
ATOM     13  C   UNL     1       2.226  -6.409  24.987  0.00  0.00    +0.000 A 
ATOM     14  C   UNL     1       1.834  -6.851  26.340  0.00  0.00    +0.000 C 
ATOM     15  C   UNL     1       2.809  -5.043  25.054  0.00  0.00    +0.000 A 
ATOM     16  C   UNL     1       4.041  -4.373  24.921  0.00  0.00    +0.000 A 
ATOM     17  C   UNL     1       5.086  -5.532  24.901  0.00  0.00    +0.000 A 
ENDBRANCH   1  17
BRANCH   7  18
ATOM     18  C   UNL     1       8.595  -0.876  23.540  0.00  0.00    +0.000 A 
ATOM     19  C   UNL     1       7.916   0.451  23.446  0.00  0.00    +0.000 A 
ATOM     20  C   UNL     1       7.735   1.253  22.213  0.00  0.00    +0.000 A 
ATOM     21  C   UNL     1       8.367   0.596  21.001  0.00  0.00    +0.000 A 
ATOM     22  C   UNL     1       9.331  -0.512  21.019  0.00  0.00    +0.000 A 
ATOM     23  C   UNL     1       9.468  -1.201  22.420  0.00  0.00    +0.000 A 
BRANCH  21  24
ATOM     24  S   UNL     1       6.926   0.299  19.896  0.00  0.00    +0.000 S 
ATOM     25  O   UNL     1       6.031   1.414  20.063  0.00  0.00    +0.000 OA
ATOM     26  O   UNL     1       7.421   0.066  18.580  0.00  0.00    +0.000 OA
BRANCH  24  27
ATOM     27  N   UNL     1       6.164  -1.045  20.451  0.00  0.00    +0.000 NA
ATOM     28  H   UNL     1       5.761  -1.550  19.667  0.00  0.00    +0.000 HD
ATOM     29  H   UNL     1       5.341  -0.738  20.983  0.00  0.00    +0.000 HD
ENDBRANCH  24  27
ENDBRANCH  21  24
ENDBRANCH   7  18
TORSDOF 4
ENDMDL
MODEL 7
REMARK VINA RESULT:      -7.8      2.824      4.463
REMARK  Name = 
REMARK  5 active torsions:
REMARK  status: ('A' for Active; 'I' for Inactive)
REMARK    1  A    between atoms: C_5  and  C_6
REMARK    2  A    between atoms: C_14  and  C_15
REMARK    3  A    between atoms: C_25  and  C_27
REMARK    4  A    between atoms: C_32  and  S_33
REMARK    5  A    between atoms: S_33  and  N_36
REMARK                            x       y       z     vdW  Elec       q    Type
REMARK                         _______ _______ _______ _____ _____    ______ ____
ROOT
ATOM      1  C   UNL     1       5.638  -5.550  25.142  0.00  0.00    +0.000 C 
ATOM      2  O   UNL     1       4.639  -6.239  25.011  0.00  0.00    +0.000 OA
ATOM      3  N   UNL     1       6.022  -4.800  24.050  0.00  0.00    +0.000 N 
ATOM      4  C   UNL     1       7.183  -5.305  23.316  0.00  0.00    +0.000 C 
ATOM      5  C   UNL     1       7.654  -4.243  22.334  0.00  0.00    +0.000 C 
ATOM      6  N   UNL     1       6.959  -3.000  22.614  0.00  0.00    +0.000 N 
ATOM      7  C   UNL     1       7.651  -1.910  23.031  0.00  0.00    +0.000 C 
ATOM      8  O   UNL     1       8.586  -1.983  23.753  0.00  0.00    +0.000 OA
ATOM      9  C   UNL     1       5.514  -2.974  22.529  0.00  0.00    +0.000 C 
ATOM     10  C   UNL     1       4.949  -4.160  23.298  0.00  0.00    +0.000 C 
ENDROOT
BRANCH   1  17
ATOM     11  C   UNL     1       4.714  -4.017  26.867  0.00  0.00    +0.000 A 
ATOM     12  C   UNL     1       4.377  -4.596  28.240  0.00  0.00    +0.000 A 
ATOM     13  C   UNL     1       5.129  -5.634  29.000  0.00  0.00    +0.000 A 
ATOM     14  C   UNL     1       4.364  -6.896  28.940  0.00  0.00    +0.000 C 
ATOM     15  C   UNL     1       6.406  -5.785  28.255  0.00  0.00    +0.000 A 
ATOM     16  C   UNL     1       7.039  -5.352  27.073  0.00  0.00    +0.000 A 
ATOM     17  C   UNL     1       5.884  -4.676  26.268  0.00  0.00    +0.000 A 
ENDBRANCH   1  17
BRANCH   7  18
ATOM     18  C   UNL     1       7.676  -1.043  21.859  0.00  0.00    +0.000 A 
ATOM     19  C   UNL     1       9.151  -0.986  21.629  0.00  0.00    +0.000 A 
ATOM     20  C   UNL     1      10.017   0.201  21.819  0.00  0.00    +0.000 A 
ATOM     21  C   UNL     1       9.232   1.425  22.247  0.00  0.00    +0.000 A 
ATOM     22  C   UNL     1       7.774   1.586  22.182  0.00  0.00    +0.000 A 
ATOM     23  C   UNL     1       7.008   0.250  21.889  0.00  0.00    +0.000 A 
BRANCH  21  24
ATOM     24  S   UNL     1       9.941   1.810  23.901  0.00  0.00    +0.000 S 
ATOM     25  O   UNL     1      11.034   2.722  23.688  0.00  0.00    +0.000 OA
ATOM     26  O   UNL     1       8.882   2.266  24.739  0.00  0.00    +0.000 OA
BRANCH  24  27
ATOM     27  N   UNL     1      10.561   0.411  24.496  0.00  0.00    +0.000 NA
ATOM     28  H   UNL     1      10.318   0.329  25.479  0.00  0.00    +0.000 HD
ATOM     29  H   UNL     1      11.583   0.507  24.512  0.00  0.00    +0.000 HD
ENDBRANCH  24  27
ENDBRANCH  21  24
ENDBRANCH   7  18
TORSDOF 4
ENDMDL
MODEL 8
REMARK VINA RESULT:      -7.7      2.777      3.510
REMARK  Name = 
REMARK  5 active torsions:
REMARK  status: ('A' for Active; 'I' for Inactive)
REMARK    1  A    between atoms: C_5  and  C_6
REMARK    2  A    between atoms: C_14  and  C_15
REMARK    3  A    between atoms: C_25  and  C_27
REMARK    4  A    between atoms: C_32  and  S_33
REMARK    5  A    between atoms: S_33  and  N_36
REMARK                            x       y       z     vdW  Elec       q    Type
REMARK                         _______ _______ _______ _____ _____    ______ ____
ROOT
ATOM      1  C   UNL     1       5.575  -4.825  25.443  0.00  0.00    +0.000 C 
ATOM      2  O   UNL     1       5.634  -6.042  25.522  0.00  0.00    +0.000 OA
ATOM      3  N   UNL     1       6.773  -4.153  25.323  0.00  0.00    +0.000 N 
ATOM      4  C   UNL     1       7.234  -3.465  26.529  0.00  0.00    +0.000 C 
ATOM      5  C   UNL     1       8.395  -2.550  26.171  0.00  0.00    +0.000 C 
ATOM      6  N   UNL     1       8.508  -2.474  24.726  0.00  0.00    +0.000 N 
ATOM      7  C   UNL     1       8.305  -1.295  24.087  0.00  0.00    +0.000 C 
ATOM      8  O   UNL     1       7.494  -0.507  24.437  0.00  0.00    +0.000 OA
ATOM      9  C   UNL     1       8.746  -3.692  23.981  0.00  0.00    +0.000 C 
ATOM     10  C   UNL     1       7.769  -4.762  24.448  0.00  0.00    +0.000 C 
ENDROOT
BRANCH   1  17
ATOM     11  C   UNL     1       4.201  -4.827  23.372  0.00  0.00    +0.000 A 
ATOM     12  C   UNL     1       2.721  -5.188  23.490  0.00  0.00    +0.000 A 
ATOM     13  C   UNL     1       1.778  -4.825  24.586  0.00  0.00    +0.000 A 
ATOM     14  C   UNL     1       1.525  -6.032  25.398  0.00  0.00    +0.000 C 
ATOM     15  C   UNL     1       2.522  -3.823  25.393  0.00  0.00    +0.000 A 
ATOM     16  C   UNL     1       3.794  -3.227  25.495  0.00  0.00    +0.000 A 
ATOM     17  C   UNL     1       4.683  -4.107  24.560  0.00  0.00    +0.000 A 
ENDBRANCH   1  17
BRANCH   7  18
ATOM     18  C   UNL     1       9.647  -0.869  23.707  0.00  0.00    +0.000 A 
ATOM     19  C   UNL     1       9.869   0.187  24.739  0.00  0.00    +0.000 A 
ATOM     20  C   UNL     1       9.954   1.646  24.489  0.00  0.00    +0.000 A 
ATOM     21  C   UNL     1       9.831   1.986  23.017  0.00  0.00    +0.000 A 
ATOM     22  C   UNL     1       9.947   1.043  21.897  0.00  0.00    +0.000 A 
ATOM     23  C   UNL     1       9.926  -0.460  22.337  0.00  0.00    +0.000 A 
BRANCH  21  24
ATOM     24  S   UNL     1       8.306   3.014  22.958  0.00  0.00    +0.000 S 
ATOM     25  O   UNL     1       7.594   2.642  21.764  0.00  0.00    +0.000 OA
ATOM     26  O   UNL     1       7.616   2.849  24.193  0.00  0.00    +0.000 OA
BRANCH  24  27
ATOM     27  N   UNL     1       8.786   4.576  22.791  0.00  0.00    +0.000 NA
ATOM     28  H   UNL     1       8.152   5.056  22.159  0.00  0.00    +0.000 HD
ATOM     29  H   UNL     1       9.676   4.574  22.278  0.00  0.00    +0.000 HD
ENDBRANCH  24  27
ENDBRANCH  21  24
ENDBRANCH   7  18
TORSDOF 4
ENDMDL
MODEL 9
REMARK VINA RESULT:      -7.7      3.073      7.501
REMARK  Name = 
REMARK  5 active torsions:
REMARK  status: ('A' for Active; 'I' for Inactive)
REMARK    1  A    between atoms: C_5  and  C_6
REMARK    2  A    between atoms: C_14  and  C_15
REMARK    3  A    between atoms: C_25  and  C_27
REMARK    4  A    between atoms: C_32  and  S_33
REMARK    5  A    between atoms: S_33  and  N_36
REMARK                            x       y       z     vdW  Elec       q    Type
REMARK                         _______ _______ _______ _____ _____    ______ ____
ROOT
ATOM      1  C   UNL     1       8.767   1.311  22.236  0.00  0.00    +0.000 C 
ATOM      2  O   UNL     1       9.671   1.818  21.592  0.00  0.00    +0.000 OA
ATOM      3  N   UNL     1       8.761  -0.066  22.320  0.00  0.00    +0.000 N 
ATOM      4  C   UNL     1       7.763  -0.744  21.494  0.00  0.00    +0.000 C 
ATOM      5  C   UNL     1       7.686  -2.207  21.902  0.00  0.00    +0.000 C 
ATOM      6  N   UNL     1       8.443  -2.397  23.125  0.00  0.00    +0.000 N 
ATOM      7  C   UNL     1       7.814  -2.780  24.264  0.00  0.00    +0.000 C 
ATOM      8  O   UNL     1       6.729  -2.406  24.554  0.00  0.00    +0.000 OA
ATOM      9  C   UNL     1       9.856  -2.080  23.127  0.00  0.00    +0.000 C 
ATOM     10  C   UNL     1      10.059  -0.705  22.506  0.00  0.00    +0.000 C 
ENDROOT
BRANCH   1  17
ATOM     11  C   UNL     1       9.323   2.565  24.308  0.00  0.00    +0.000 A 
ATOM     12  C   UNL     1       8.860   4.017  24.418  0.00  0.00    +0.000 A 
ATOM     13  C   UNL     1       7.578   4.604  23.937  0.00  0.00    +0.000 A 
ATOM     14  C   UNL     1       7.859   5.409  22.732  0.00  0.00    +0.000 C 
ATOM     15  C   UNL     1       6.748   3.426  23.572  0.00  0.00    +0.000 A 
ATOM     16  C   UNL     1       6.833   2.025  23.452  0.00  0.00    +0.000 A 
ATOM     17  C   UNL     1       8.364   1.742  23.557  0.00  0.00    +0.000 A 
ENDBRANCH   1  17
BRANCH   7  18
ATOM     18  C   UNL     1       8.188  -4.181  24.415  0.00  0.00    +0.000 A 
ATOM     19  C   UNL     1       6.859  -4.816  24.171  0.00  0.00    +0.000 A 
ATOM     20  C   UNL     1       6.031  -5.521  25.178  0.00  0.00    +0.000 A 
ATOM     21  C   UNL     1       6.703  -5.581  26.536  0.00  0.00    +0.000 A 
ATOM     22  C   UNL     1       8.117  -5.301  26.816  0.00  0.00    +0.000 A 
ATOM     23  C   UNL     1       8.874  -4.632  25.618  0.00  0.00    +0.000 A 
BRANCH  21  24
ATOM     24  S   UNL     1       5.541  -4.644  27.611  0.00  0.00    +0.000 S 
ATOM     25  O   UNL     1       4.208  -5.007  27.208  0.00  0.00    +0.000 OA
ATOM     26  O   UNL     1       5.891  -4.901  28.968  0.00  0.00    +0.000 OA
BRANCH  24  27
ATOM     27  N   UNL     1       5.752  -3.051  27.273  0.00  0.00    +0.000 NA
ATOM     28  H   UNL     1       6.594  -2.719  27.734  0.00  0.00    +0.000 HD
ATOM     29  H   UNL     1       5.003  -2.531  27.746  0.00  0.00    +0.000 HD
ENDBRANCH  24  27
ENDBRANCH  21  24
ENDBRANCH   7  18
TORSDOF 4
ENDMDL
