MODEL 1
REMARK VINA RESULT:      -8.9      0.000      0.000
REMARK  Name = 
REMARK  4 active torsions:
REMARK  status: ('A' for Active; 'I' for Inactive)
REMARK    1  A    between atoms: C_7  and  C_8
REMARK    2  A    between atoms: N_23  and  N_24
REMARK    3  A    between atoms: N_31  and  S_32
REMARK    4  A    between atoms: S_32  and  C_35
REMARK                            x       y       z     vdW  Elec       q    Type
REMARK                         _______ _______ _______ _____ _____    ______ ____
ROOT
ATOM      1  C   UNL     1       8.441  -0.155  21.584  0.00  0.00    +0.000 C 
ATOM      2  C   UNL     1       8.739   1.057  22.294  0.00  0.00    +0.000 A 
ATOM      3  C   UNL     1       7.915   1.741  22.944  0.00  0.00    +0.000 A 
ATOM      4  C   UNL     1       8.112   3.101  23.562  0.00  0.00    +0.000 A 
ATOM      5  C   UNL     1       9.559   2.937  24.023  0.00  0.00    +0.000 A 
ATOM      6  C   UNL     1      10.647   2.080  23.716  0.00  0.00    +0.000 A 
ATOM      7  C   UNL     1       9.997   0.742  23.198  0.00  0.00    +0.000 A 
ATOM      8  C   UNL     1      10.274  -0.381  23.891  0.00  0.00    +0.000 C 
ATOM      9  N   UNL     1       9.561  -1.449  23.433  0.00  0.00    +0.000 N 
ATOM     10  C   UNL     1       9.193  -1.299  22.188  0.00  0.00    +0.000 C 
ENDROOT
BRANCH   1  14
ATOM     11  C   UNL     1       6.205  -0.827  18.343  0.00  0.00    +0.000 A 
ATOM     12  C   UNL     1       6.849   0.487  18.686  0.00  0.00    +0.000 A 
ATOM     13  C   UNL     1       7.152   1.027  19.993  0.00  0.00    +0.000 A 
ATOM     14  C   UNL     1       7.170  -0.214  21.059  0.00  0.00    +0.000 A 
ATOM     15  C   UNL     1       6.206  -1.299  20.955  0.00  0.00    +0.000 A 
ATOM     16  C   UNL     1       5.748  -1.601  19.516  0.00  0.00    +0.000 A 
ENDBRANCH   1  14
BRANCH   9  17
ATOM     17  N   UNL     1       8.695  -2.072  23.977  0.00  0.00    +0.000 N 
ATOM     18  C   UNL     1       8.773  -1.952  25.375  0.00  0.00    +0.000 C 
ATOM     19  C   UNL     1       7.373  -2.527  25.921  0.00  0.00    +0.000 C 
ATOM     20  N   UNL     1       7.269  -3.797  25.545  0.00  0.00    +0.000 NA
ATOM     21  C   UNL     1       7.997  -4.359  24.513  0.00  0.00    +0.000 C 
ATOM     22  C   UNL     1       8.376  -3.376  23.413  0.00  0.00    +0.000 C 
BRANCH  20  23
ATOM     23  S   UNL     1       6.649  -4.891  26.576  0.00  0.00    +0.000 S 
ATOM     24  O   UNL     1       7.455  -6.073  26.546  0.00  0.00    +0.000 OA
ATOM     25  O   UNL     1       6.573  -4.270  27.899  0.00  0.00    +0.000 OA
BRANCH  23  26
ATOM     26  C   UNL     1       4.988  -5.293  26.092  0.00  0.00    +0.000 A 
ATOM     27  C   UNL     1       4.608  -4.149  25.204  0.00  0.00    +0.000 A 
ATOM     28  C   UNL     1       4.425  -4.202  23.738  0.00  0.00    +0.000 A 
ATOM     29  C   UNL     1       4.469  -5.613  23.201  0.00  0.00    +0.000 A 
ATOM     30 CL   UNL     1       5.763  -5.545  21.940  0.00  0.00    +0.000 Cl
ATOM     31  C   UNL     1       4.529  -6.859  23.994  0.00  0.00    +0.000 A 
ATOM     32  C   UNL     1       4.763  -6.612  25.520  0.00  0.00    +0.000 A 
ENDBRANCH  23  26
ENDBRANCH  20  23
ENDBRANCH   9  17
TORSDOF 4
ENDMDL
MODEL 2
REMARK VINA RESULT:      -8.5      1.709      2.215
REMARK  Name = 
REMARK  4 active torsions:
REMARK  status: ('A' for Active; 'I' for Inactive)
REMARK    1  A    between atoms: C_7  and  C_8
REMARK    2  A    between atoms: N_23  and  N_24
REMARK    3  A    between atoms: N_31  and  S_32
REMARK    4  A    between atoms: S_32  and  C_35
REMARK                            x       y       z     vdW  Elec       q    Type
REMARK                         _______ _______ _______ _____ _____    ______ ____
ROOT
ATOM      1  C   UNL     1       7.975   1.186  21.294  0.00  0.00    +0.000 C 
ATOM      2  C   UNL     1       7.796   2.308  22.172  0.00  0.00    +0.000 A 
ATOM      3  C   UNL     1       6.847   2.457  22.977  0.00  0.00    +0.000 A 
ATOM      4  C   UNL     1       6.501   3.674  23.796  0.00  0.00    +0.000 A 
ATOM      5  C   UNL     1       7.917   4.138  24.130  0.00  0.00    +0.000 A 
ATOM      6  C   UNL     1       9.221   3.915  23.618  0.00  0.00    +0.000 A 
ATOM      7  C   UNL     1       9.170   2.499  22.931  0.00  0.00    +0.000 A 
ATOM      8  C   UNL     1      10.003   1.555  23.411  0.00  0.00    +0.000 C 
ATOM      9  N   UNL     1       9.784   0.341  22.831  0.00  0.00    +0.000 N 
ATOM     10  C   UNL     1       9.228   0.451  21.653  0.00  0.00    +0.000 C 
ENDROOT
BRANCH   1  14
ATOM     11  C   UNL     1       5.963  -0.276  18.169  0.00  0.00    +0.000 A 
ATOM     12  C   UNL     1       6.028   1.178  18.546  0.00  0.00    +0.000 A 
ATOM     13  C   UNL     1       6.186   1.760  19.860  0.00  0.00    +0.000 A 
ATOM     14  C   UNL     1       6.805   0.614  20.849  0.00  0.00    +0.000 A 
ATOM     15  C   UNL     1       6.374  -0.772  20.743  0.00  0.00    +0.000 A 
ATOM     16  C   UNL     1       5.967  -1.200  19.321  0.00  0.00    +0.000 A 
ENDBRANCH   1  14
BRANCH   9  17
ATOM     17  N   UNL     1       9.363  -0.668  23.319  0.00  0.00    +0.000 N 
ATOM     18  C   UNL     1       9.468  -0.645  24.720  0.00  0.00    +0.000 C 
ATOM     19  C   UNL     1       8.557  -1.872  25.226  0.00  0.00    +0.000 C 
ATOM     20  N   UNL     1       9.052  -2.996  24.717  0.00  0.00    +0.000 NA
ATOM     21  C   UNL     1       9.890  -3.043  23.619  0.00  0.00    +0.000 C 
ATOM     22  C   UNL     1       9.674  -1.909  22.624  0.00  0.00    +0.000 C 
BRANCH  20  23
ATOM     23  S   UNL     1       9.106  -4.336  25.635  0.00  0.00    +0.000 S 
ATOM     24  O   UNL     1      10.270  -5.094  25.290  0.00  0.00    +0.000 OA
ATOM     25  O   UNL     1       9.074  -3.923  27.039  0.00  0.00    +0.000 OA
BRANCH  23  26
ATOM     26  C   UNL     1       7.653  -5.316  25.346  0.00  0.00    +0.000 A 
ATOM     27  C   UNL     1       6.799  -5.014  26.539  0.00  0.00    +0.000 A 
ATOM     28  C   UNL     1       5.551  -4.221  26.542  0.00  0.00    +0.000 A 
ATOM     29  C   UNL     1       5.079  -3.880  25.150  0.00  0.00    +0.000 A 
ATOM     30 CL   UNL     1       4.936  -2.078  25.181  0.00  0.00    +0.000 Cl
ATOM     31  C   UNL     1       5.651  -4.371  23.877  0.00  0.00    +0.000 A 
ATOM     32  C   UNL     1       6.988  -5.158  24.062  0.00  0.00    +0.000 A 
ENDBRANCH  23  26
ENDBRANCH  20  23
ENDBRANCH   9  17
TORSDOF 4
ENDMDL
MODEL 3
REMARK VINA RESULT:      -8.5      1.625      2.443
REMARK  Name = 
REMARK  4 active torsions:
REMARK  status: ('A' for Active; 'I' for Inactive)
REMARK    1  A    between atoms: C_7  and  C_8
REMARK    2  A    between atoms: N_23  and  N_24
REMARK    3  A    between atoms: N_31  and  S_32
REMARK    4  A    between atoms: S_32  and  C_35
REMARK                            x       y       z     vdW  Elec       q    Type
REMARK                         _______ _______ _______ _____ _____    ______ ____
ROOT
ATOM      1  C   UNL     1       8.353   1.451  21.762  0.00  0.00    +0.000 C 
ATOM      2  C   UNL     1       8.211   2.571  22.649  0.00  0.00    +0.000 A 
ATOM      3  C   UNL     1       7.393   2.652  23.594  0.00  0.00    +0.000 A 
ATOM      4  C   UNL     1       7.068   3.850  24.448  0.00  0.00    +0.000 A 
ATOM      5  C   UNL     1       8.470   4.448  24.549  0.00  0.00    +0.000 A 
ATOM      6  C   UNL     1       9.692   4.333  23.836  0.00  0.00    +0.000 A 
ATOM      7  C   UNL     1       9.664   2.903  23.177  0.00  0.00    +0.000 A 
ATOM      8  C   UNL     1      10.647   2.050  23.525  0.00  0.00    +0.000 C 
ATOM      9  N   UNL     1      10.453   0.808  22.996  0.00  0.00    +0.000 N 
ATOM     10  C   UNL     1       9.710   0.840  21.922  0.00  0.00    +0.000 C 
ENDROOT
BRANCH   1  14
ATOM     11  C   UNL     1       6.155  -0.516  19.069  0.00  0.00    +0.000 A 
ATOM     12  C   UNL     1       6.161   0.976  19.249  0.00  0.00    +0.000 A 
ATOM     13  C   UNL     1       6.404   1.736  20.455  0.00  0.00    +0.000 A 
ATOM     14  C   UNL     1       7.185   0.764  21.514  0.00  0.00    +0.000 A 
ATOM     15  C   UNL     1       6.837  -0.643  21.630  0.00  0.00    +0.000 A 
ATOM     16  C   UNL     1       6.327  -1.277  20.323  0.00  0.00    +0.000 A 
ENDBRANCH   1  14
BRANCH   9  17
ATOM     17  N   UNL     1      10.211  -0.223  23.554  0.00  0.00    +0.000 N 
ATOM     18  C   UNL     1      10.037  -1.276  22.639  0.00  0.00    +0.000 C 
ATOM     19  C   UNL     1      10.080  -2.615  23.531  0.00  0.00    +0.000 C 
ATOM     20  N   UNL     1       9.084  -2.561  24.410  0.00  0.00    +0.000 NA
ATOM     21  C   UNL     1       8.440  -1.395  24.778  0.00  0.00    +0.000 C 
ATOM     22  C   UNL     1       9.316  -0.151  24.700  0.00  0.00    +0.000 C 
BRANCH  20  23
ATOM     23  S   UNL     1       8.233  -3.907  24.740  0.00  0.00    +0.000 S 
ATOM     24  O   UNL     1       8.942  -5.044  24.241  0.00  0.00    +0.000 OA
ATOM     25  O   UNL     1       8.003  -3.951  26.185  0.00  0.00    +0.000 OA
BRANCH  23  26
ATOM     26  C   UNL     1       6.640  -3.812  23.961  0.00  0.00    +0.000 A 
ATOM     27  C   UNL     1       6.479  -5.171  23.354  0.00  0.00    +0.000 A 
ATOM     28  C   UNL     1       5.545  -6.225  23.805  0.00  0.00    +0.000 A 
ATOM     29  C   UNL     1       4.585  -5.733  24.862  0.00  0.00    +0.000 A 
ATOM     30 CL   UNL     1       4.830  -6.891  26.229  0.00  0.00    +0.000 Cl
ATOM     31  C   UNL     1       4.426  -4.341  25.333  0.00  0.00    +0.000 A 
ATOM     32  C   UNL     1       5.522  -3.372  24.782  0.00  0.00    +0.000 A 
ENDBRANCH  23  26
ENDBRANCH  20  23
ENDBRANCH   9  17
TORSDOF 4
ENDMDL
MODEL 4
REMARK VINA RESULT:      -8.4      1.454      1.843
REMARK  Name = 
REMARK  4 active torsions:
REMARK  status: ('A' for Active; 'I' for Inactive)
REMARK    1  A    between atoms: C_7  and  C_8
REMARK    2  A    between atoms: N_23  and  N_24
REMARK    3  A    between atoms: N_31  and  S_32
REMARK    4  A    between atoms: S_32  and  C_35
REMARK                            x       y       z     vdW  Elec       q    Type
REMARK                         _______ _______ _______ _____ _____    ______ ____
ROOT
ATOM      1  C   UNL     1       8.454  -0.046  21.437  0.00  0.00    +0.000 C 
ATOM      2  C   UNL     1       8.755   1.159  22.157  0.00  0.00    +0.000 A 
ATOM      3  C   UNL     1       7.940   1.820  22.843  0.00  0.00    +0.000 A 
ATOM      4  C   UNL     1       8.135   3.172  23.477  0.00  0.00    +0.000 A 
ATOM      5  C   UNL     1       9.597   3.025  23.892  0.00  0.00    +0.000 A 
ATOM      6  C   UNL     1      10.688   2.190  23.538  0.00  0.00    +0.000 A 
ATOM      7  C   UNL     1      10.044   0.850  23.018  0.00  0.00    +0.000 A 
ATOM      8  C   UNL     1      10.359  -0.279  23.684  0.00  0.00    +0.000 C 
ATOM      9  N   UNL     1       9.649  -1.351  23.230  0.00  0.00    +0.000 N 
ATOM     10  C   UNL     1       9.242  -1.188  22.000  0.00  0.00    +0.000 C 
ENDROOT
BRANCH   1  14
ATOM     11  C   UNL     1       6.131  -0.735  18.262  0.00  0.00    +0.000 A 
ATOM     12  C   UNL     1       6.770   0.585  18.589  0.00  0.00    +0.000 A 
ATOM     13  C   UNL     1       7.107   1.125  19.887  0.00  0.00    +0.000 A 
ATOM     14  C   UNL     1       7.168  -0.117  20.950  0.00  0.00    +0.000 A 
ATOM     15  C   UNL     1       6.213  -1.212  20.872  0.00  0.00    +0.000 A 
ATOM     16  C   UNL     1       5.716  -1.516  19.446  0.00  0.00    +0.000 A 
ENDBRANCH   1  14
BRANCH   9  17
ATOM     17  N   UNL     1       8.810  -1.996  23.790  0.00  0.00    +0.000 N 
ATOM     18  C   UNL     1       8.966  -1.946  25.186  0.00  0.00    +0.000 C 
ATOM     19  C   UNL     1       7.593  -2.541  25.779  0.00  0.00    +0.000 C 
ATOM     20  N   UNL     1       7.459  -3.791  25.347  0.00  0.00    +0.000 NA
ATOM     21  C   UNL     1       8.126  -4.304  24.250  0.00  0.00    +0.000 C 
ATOM     22  C   UNL     1       8.451  -3.269  23.181  0.00  0.00    +0.000 C 
BRANCH  20  23
ATOM     23  S   UNL     1       6.889  -4.932  26.355  0.00  0.00    +0.000 S 
ATOM     24  O   UNL     1       7.935  -5.864  26.646  0.00  0.00    +0.000 OA
ATOM     25  O   UNL     1       6.359  -4.260  27.543  0.00  0.00    +0.000 OA
BRANCH  23  26
ATOM     26  C   UNL     1       5.532  -5.783  25.587  0.00  0.00    +0.000 A 
ATOM     27  C   UNL     1       5.015  -6.656  26.688  0.00  0.00    +0.000 A 
ATOM     28  C   UNL     1       3.736  -6.486  27.411  0.00  0.00    +0.000 A 
ATOM     29  C   UNL     1       2.861  -5.421  26.796  0.00  0.00    +0.000 A 
ATOM     30 CL   UNL     1       2.531  -4.297  28.173  0.00  0.00    +0.000 Cl
ATOM     31  C   UNL     1       3.108  -4.695  25.531  0.00  0.00    +0.000 A 
ATOM     32  C   UNL     1       4.524  -4.967  24.927  0.00  0.00    +0.000 A 
ENDBRANCH  23  26
ENDBRANCH  20  23
ENDBRANCH   9  17
TORSDOF 4
ENDMDL
MODEL 5
REMARK VINA RESULT:      -8.1      2.047      2.946
REMARK  Name = 
REMARK  4 active torsions:
REMARK  status: ('A' for Active; 'I' for Inactive)
REMARK    1  A    between atoms: C_7  and  C_8
REMARK    2  A    between atoms: N_23  and  N_24
REMARK    3  A    between atoms: N_31  and  S_32
REMARK    4  A    between atoms: S_32  and  C_35
REMARK                            x       y       z     vdW  Elec       q    Type
REMARK                         _______ _______ _______ _____ _____    ______ ____
ROOT
ATOM      1  C   UNL     1       9.458   0.952  22.203  0.00  0.00    +0.000 C 
ATOM      2  C   UNL     1       8.882   2.263  22.312  0.00  0.00    +0.000 A 
ATOM      3  C   UNL     1       7.698   2.563  22.032  0.00  0.00    +0.000 A 
ATOM      4  C   UNL     1       7.077   3.933  21.955  0.00  0.00    +0.000 A 
ATOM      5  C   UNL     1       7.817   4.589  23.119  0.00  0.00    +0.000 A 
ATOM      6  C   UNL     1       8.997   4.334  23.863  0.00  0.00    +0.000 A 
ATOM      7  C   UNL     1       9.232   2.779  23.765  0.00  0.00    +0.000 A 
ATOM      8  C   UNL     1       9.243   2.088  24.922  0.00  0.00    +0.000 C 
ATOM      9  N   UNL     1       9.325   0.744  24.710  0.00  0.00    +0.000 N 
ATOM     10  C   UNL     1       9.866   0.459  23.556  0.00  0.00    +0.000 C 
ENDROOT
BRANCH   1  14
ATOM     11  C   UNL     1       6.628  -1.645  21.108  0.00  0.00    +0.000 A 
ATOM     12  C   UNL     1       7.916  -2.014  21.790  0.00  0.00    +0.000 A 
ATOM     13  C   UNL     1       9.196  -1.346  21.715  0.00  0.00    +0.000 A 
ATOM     14  C   UNL     1       8.939   0.180  21.187  0.00  0.00    +0.000 A 
ATOM     15  C   UNL     1       7.944   0.456  20.162  0.00  0.00    +0.000 A 
ATOM     16  C   UNL     1       6.743  -0.507  20.173  0.00  0.00    +0.000 A 
ENDBRANCH   1  14
BRANCH   9  17
ATOM     17  N   UNL     1       8.514  -0.109  24.932  0.00  0.00    +0.000 N 
ATOM     18  C   UNL     1       7.203   0.371  24.770  0.00  0.00    +0.000 C 
ATOM     19  C   UNL     1       6.277  -0.945  24.748  0.00  0.00    +0.000 C 
ATOM     20  N   UNL     1       6.426  -1.578  25.908  0.00  0.00    +0.000 NA
ATOM     21  C   UNL     1       7.498  -1.388  26.759  0.00  0.00    +0.000 C 
ATOM     22  C   UNL     1       8.790  -0.996  26.053  0.00  0.00    +0.000 C 
BRANCH  20  23
ATOM     23  S   UNL     1       5.131  -2.244  26.630  0.00  0.00    +0.000 S 
ATOM     24  O   UNL     1       5.034  -1.747  27.969  0.00  0.00    +0.000 OA
ATOM     25  O   UNL     1       3.955  -1.946  25.810  0.00  0.00    +0.000 OA
BRANCH  23  26
ATOM     26  C   UNL     1       5.309  -4.011  26.664  0.00  0.00    +0.000 A 
ATOM     27  C   UNL     1       5.317  -4.378  25.212  0.00  0.00    +0.000 A 
ATOM     28  C   UNL     1       6.482  -4.861  24.439  0.00  0.00    +0.000 A 
ATOM     29  C   UNL     1       7.677  -5.150  25.315  0.00  0.00    +0.000 A 
ATOM     30 CL   UNL     1       8.990  -4.146  24.583  0.00  0.00    +0.000 Cl
ATOM     31  C   UNL     1       7.717  -5.128  26.793  0.00  0.00    +0.000 A 
ATOM     32  C   UNL     1       6.414  -4.553  27.439  0.00  0.00    +0.000 A 
ENDBRANCH  23  26
ENDBRANCH  20  23
ENDBRANCH   9  17
TORSDOF 4
ENDMDL
MODEL 6
REMARK VINA RESULT:      -8.0      2.716      7.315
REMARK  Name = 
REMARK  4 active torsions:
REMARK  status: ('A' for Active; 'I' for Inactive)
REMARK    1  A    between atoms: C_7  and  C_8
REMARK    2  A    between atoms: N_23  and  N_24
REMARK    3  A    between atoms: N_31  and  S_32
REMARK    4  A    between atoms: S_32  and  C_35
REMARK                            x       y       z     vdW  Elec       q    Type
REMARK                         _______ _______ _______ _____ _____    ______ ____
ROOT
ATOM      1  C   UNL     1       5.870  -5.332  25.045  0.00  0.00    +0.000 C 
ATOM      2  C   UNL     1       4.461  -5.371  24.770  0.00  0.00    +0.000 A 
ATOM      3  C   UNL     1       3.649  -4.444  24.998  0.00  0.00    +0.000 A 
ATOM      4  C   UNL     1       2.146  -4.475  24.900  0.00  0.00    +0.000 A 
ATOM      5  C   UNL     1       2.013  -5.374  23.672  0.00  0.00    +0.000 A 
ATOM      6  C   UNL     1       2.837  -6.297  22.978  0.00  0.00    +0.000 A 
ATOM      7  C   UNL     1       4.317  -5.845  23.268  0.00  0.00    +0.000 A 
ATOM      8  C   UNL     1       5.073  -5.508  22.205  0.00  0.00    +0.000 C 
ATOM      9  N   UNL     1       6.287  -5.014  22.581  0.00  0.00    +0.000 N 
ATOM     10  C   UNL     1       6.643  -5.430  23.767  0.00  0.00    +0.000 C 
ENDROOT
BRANCH   1  14
ATOM     11  C   UNL     1       8.482  -2.750  26.614  0.00  0.00    +0.000 A 
ATOM     12  C   UNL     1       8.648  -4.244  26.608  0.00  0.00    +0.000 A 
ATOM     13  C   UNL     1       7.622  -5.263  26.631  0.00  0.00    +0.000 A 
ATOM     14  C   UNL     1       6.219  -4.577  26.142  0.00  0.00    +0.000 A 
ATOM     15  C   UNL     1       5.872  -3.224  26.547  0.00  0.00    +0.000 A 
ATOM     16  C   UNL     1       7.083  -2.297  26.759  0.00  0.00    +0.000 A 
ENDBRANCH   1  14
BRANCH   9  17
ATOM     17  N   UNL     1       6.726  -3.906  22.457  0.00  0.00    +0.000 N 
ATOM     18  C   UNL     1       7.962  -3.765  23.109  0.00  0.00    +0.000 C 
ATOM     19  C   UNL     1       8.568  -2.379  22.558  0.00  0.00    +0.000 C 
ATOM     20  N   UNL     1       7.729  -1.400  22.882  0.00  0.00    +0.000 NA
ATOM     21  C   UNL     1       6.403  -1.598  23.215  0.00  0.00    +0.000 C 
ATOM     22  C   UNL     1       5.769  -2.812  22.547  0.00  0.00    +0.000 C 
BRANCH  20  23
ATOM     23  S   UNL     1       8.321   0.028  23.385  0.00  0.00    +0.000 S 
ATOM     24  O   UNL     1       7.525   0.508  24.474  0.00  0.00    +0.000 OA
ATOM     25  O   UNL     1       9.730  -0.165  23.733  0.00  0.00    +0.000 OA
BRANCH  23  26
ATOM     26  C   UNL     1       8.268   1.199  22.051  0.00  0.00    +0.000 A 
ATOM     27  C   UNL     1       8.860   0.435  20.907  0.00  0.00    +0.000 A 
ATOM     28  C   UNL     1       8.134  -0.066  19.720  0.00  0.00    +0.000 A 
ATOM     29  C   UNL     1       6.713   0.441  19.656  0.00  0.00    +0.000 A 
ATOM     30 CL   UNL     1       5.729  -1.071  19.541  0.00  0.00    +0.000 Cl
ATOM     31  C   UNL     1       6.091   1.444  20.547  0.00  0.00    +0.000 A 
ATOM     32  C   UNL     1       6.988   1.829  21.768  0.00  0.00    +0.000 A 
ENDBRANCH  23  26
ENDBRANCH  20  23
ENDBRANCH   9  17
TORSDOF 4
ENDMDL
MODEL 7
REMARK VINA RESULT:      -8.0      2.403      3.651
REMARK  Name = 
REMARK  4 active torsions:
REMARK  status: ('A' for Active; 'I' for Inactive)
REMARK    1  A    between atoms: C_7  and  C_8
REMARK    2  A    between atoms: N_23  and  N_24
REMARK    3  A    between atoms: N_31  and  S_32
REMARK    4  A    between atoms: S_32  and  C_35
REMARK                            x       y       z     vdW  Elec       q    Type
REMARK                         _______ _______ _______ _____ _____    ______ ____
ROOT
ATOM      1  C   UNL     1       9.594   0.256  24.652  0.00  0.00    +0.000 C 
ATOM      2  C   UNL     1       8.502   0.938  25.288  0.00  0.00    +0.000 A 
ATOM      3  C   UNL     1       7.493   1.399  24.705  0.00  0.00    +0.000 A 
ATOM      4  C   UNL     1       6.404   2.271  25.274  0.00  0.00    +0.000 A 
ATOM      5  C   UNL     1       6.312   1.646  26.665  0.00  0.00    +0.000 A 
ATOM      6  C   UNL     1       7.133   0.830  27.483  0.00  0.00    +0.000 A 
ATOM      7  C   UNL     1       8.046   0.018  26.490  0.00  0.00    +0.000 A 
ATOM      8  C   UNL     1       7.950  -1.326  26.530  0.00  0.00    +0.000 C 
ATOM      9  N   UNL     1       8.685  -1.917  25.545  0.00  0.00    +0.000 N 
ATOM     10  C   UNL     1       9.667  -1.157  25.139  0.00  0.00    +0.000 C 
ENDROOT
BRANCH   1  14
ATOM     11  C   UNL     1       8.470   0.213  20.819  0.00  0.00    +0.000 A 
ATOM     12  C   UNL     1       9.300  -0.849  21.483  0.00  0.00    +0.000 A 
ATOM     13  C   UNL     1      10.222  -0.711  22.588  0.00  0.00    +0.000 A 
ATOM     14  C   UNL     1       9.867   0.681  23.370  0.00  0.00    +0.000 A 
ATOM     15  C   UNL     1       9.474   1.871  22.632  0.00  0.00    +0.000 A 
ATOM     16  C   UNL     1       8.726   1.580  21.318  0.00  0.00    +0.000 A 
ENDBRANCH   1  14
BRANCH   9  17
ATOM     17  N   UNL     1       8.314  -2.541  24.593  0.00  0.00    +0.000 N 
ATOM     18  C   UNL     1       6.949  -2.326  24.335  0.00  0.00    +0.000 C 
ATOM     19  C   UNL     1       6.704  -2.927  22.862  0.00  0.00    +0.000 C 
ATOM     20  N   UNL     1       6.999  -4.223  22.887  0.00  0.00    +0.000 NA
ATOM     21  C   UNL     1       7.786  -4.818  23.854  0.00  0.00    +0.000 C 
ATOM     22  C   UNL     1       8.838  -3.893  24.454  0.00  0.00    +0.000 C 
BRANCH  20  23
ATOM     23  S   UNL     1       6.063  -5.273  22.072  0.00  0.00    +0.000 S 
ATOM     24  O   UNL     1       5.811  -4.758  20.761  0.00  0.00    +0.000 OA
ATOM     25  O   UNL     1       6.739  -6.572  22.070  0.00  0.00    +0.000 OA
BRANCH  23  26
ATOM     26  C   UNL     1       4.522  -5.489  22.930  0.00  0.00    +0.000 A 
ATOM     27  C   UNL     1       4.805  -6.639  23.847  0.00  0.00    +0.000 A 
ATOM     28  C   UNL     1       4.942  -6.572  25.318  0.00  0.00    +0.000 A 
ATOM     29  C   UNL     1       4.571  -5.217  25.872  0.00  0.00    +0.000 A 
ATOM     30 CL   UNL     1       6.039  -4.726  26.805  0.00  0.00    +0.000 Cl
ATOM     31  C   UNL     1       3.983  -4.086  25.122  0.00  0.00    +0.000 A 
ATOM     32  C   UNL     1       3.951  -4.318  23.576  0.00  0.00    +0.000 A 
ENDBRANCH  23  26
ENDBRANCH  20  23
ENDBRANCH   9  17
TORSDOF 4
ENDMDL
MODEL 8
REMARK VINA RESULT:      -7.9      2.867      6.963
REMARK  Name = 
REMARK  4 active torsions:
REMARK  status: ('A' for Active; 'I' for Inactive)
REMARK    1  A    between atoms: C_7  and  C_8
REMARK    2  A    between atoms: N_23  and  N_24
REMARK    3  A    between atoms: N_31  and  S_32
REMARK    4  A    between atoms: S_32  and  C_35
REMARK                            x       y       z     vdW  Elec       q    Type
REMARK                         _______ _______ _______ _____ _____    ______ ____
ROOT
ATOM      1  C   UNL     1       5.225  -4.709  25.023  0.00  0.00    +0.000 C 
ATOM      2  C   UNL     1       5.378  -5.033  26.413  0.00  0.00    +0.000 A 
ATOM      3  C   UNL     1       6.443  -5.393  26.964  0.00  0.00    +0.000 A 
ATOM      4  C   UNL     1       6.641  -5.913  28.364  0.00  0.00    +0.000 A 
ATOM      5  C   UNL     1       5.627  -5.027  29.084  0.00  0.00    +0.000 A 
ATOM      6  C   UNL     1       4.503  -4.242  28.719  0.00  0.00    +0.000 A 
ATOM      7  C   UNL     1       4.746  -3.827  27.219  0.00  0.00    +0.000 A 
ATOM      8  C   UNL     1       4.819  -2.509  26.953  0.00  0.00    +0.000 C 
ATOM      9  N   UNL     1       5.157  -2.271  25.653  0.00  0.00    +0.000 N 
ATOM     10  C   UNL     1       4.844  -3.269  24.872  0.00  0.00    +0.000 C 
ENDROOT
BRANCH   1  14
ATOM     11  C   UNL     1       6.219  -5.497  21.235  0.00  0.00    +0.000 A 
ATOM     12  C   UNL     1       5.108  -6.171  21.991  0.00  0.00    +0.000 A 
ATOM     13  C   UNL     1       5.011  -6.425  23.411  0.00  0.00    +0.000 A 
ATOM     14  C   UNL     1       6.048  -5.417  24.175  0.00  0.00    +0.000 A 
ATOM     15  C   UNL     1       7.352  -5.118  23.605  0.00  0.00    +0.000 A 
ATOM     16  C   UNL     1       7.389  -5.147  22.066  0.00  0.00    +0.000 A 
ENDBRANCH   1  14
BRANCH   9  17
ATOM     17  N   UNL     1       6.155  -1.782  25.207  0.00  0.00    +0.000 N 
ATOM     18  C   UNL     1       7.137  -1.619  26.199  0.00  0.00    +0.000 C 
ATOM     19  C   UNL     1       8.494  -1.302  25.393  0.00  0.00    +0.000 C 
ATOM     20  N   UNL     1       8.313  -0.185  24.696  0.00  0.00    +0.000 NA
ATOM     21  C   UNL     1       7.072   0.333  24.375  0.00  0.00    +0.000 C 
ATOM     22  C   UNL     1       5.979  -0.718  24.229  0.00  0.00    +0.000 C 
BRANCH  20  23
ATOM     23  S   UNL     1       9.518   0.902  24.595  0.00  0.00    +0.000 S 
ATOM     24  O   UNL     1       9.039   2.175  25.039  0.00  0.00    +0.000 OA
ATOM     25  O   UNL     1      10.647   0.397  25.379  0.00  0.00    +0.000 OA
BRANCH  23  26
ATOM     26  C   UNL     1      10.068   1.029  22.911  0.00  0.00    +0.000 A 
ATOM     27  C   UNL     1      10.381  -0.390  22.549  0.00  0.00    +0.000 A 
ATOM     28  C   UNL     1       9.613  -1.245  21.619  0.00  0.00    +0.000 A 
ATOM     29  C   UNL     1       8.542  -0.479  20.880  0.00  0.00    +0.000 A 
ATOM     30 CL   UNL     1       7.032  -1.403  21.247  0.00  0.00    +0.000 Cl
ATOM     31  C   UNL     1       8.322   0.982  20.908  0.00  0.00    +0.000 A 
ATOM     32  C   UNL     1       9.193   1.720  21.976  0.00  0.00    +0.000 A 
ENDBRANCH  23  26
ENDBRANCH  20  23
ENDBRANCH   9  17
TORSDOF 4
ENDMDL
MODEL 9
REMARK VINA RESULT:      -7.9      2.978      7.185
REMARK  Name = 
REMARK  4 active torsions:
REMARK  status: ('A' for Active; 'I' for Inactive)
REMARK    1  A    between atoms: C_7  and  C_8
REMARK    2  A    between atoms: N_23  and  N_24
REMARK    3  A    between atoms: N_31  and  S_32
REMARK    4  A    between atoms: S_32  and  C_35
REMARK                            x       y       z     vdW  Elec       q    Type
REMARK                         _______ _______ _______ _____ _____    ______ ____
ROOT
ATOM      1  C   UNL     1       4.867  -4.871  25.387  0.00  0.00    +0.000 C 
ATOM      2  C   UNL     1       5.022  -5.136  26.790  0.00  0.00    +0.000 A 
ATOM      3  C   UNL     1       6.081  -5.507  27.348  0.00  0.00    +0.000 A 
ATOM      4  C   UNL     1       6.274  -5.968  28.769  0.00  0.00    +0.000 A 
ATOM      5  C   UNL     1       5.297  -5.016  29.456  0.00  0.00    +0.000 A 
ATOM      6  C   UNL     1       4.196  -4.212  29.063  0.00  0.00    +0.000 A 
ATOM      7  C   UNL     1       4.438  -3.875  27.544  0.00  0.00    +0.000 A 
ATOM      8  C   UNL     1       4.553  -2.573  27.217  0.00  0.00    +0.000 C 
ATOM      9  N   UNL     1       4.886  -2.406  25.905  0.00  0.00    +0.000 N 
ATOM     10  C   UNL     1       4.532  -3.428  25.173  0.00  0.00    +0.000 C 
ENDROOT
BRANCH   1  14
ATOM     11  C   UNL     1       6.446  -5.323  21.746  0.00  0.00    +0.000 A 
ATOM     12  C   UNL     1       5.067  -5.766  22.146  0.00  0.00    +0.000 A 
ATOM     13  C   UNL     1       4.601  -6.194  23.446  0.00  0.00    +0.000 A 
ATOM     14  C   UNL     1       5.658  -5.645  24.567  0.00  0.00    +0.000 A 
ATOM     15  C   UNL     1       7.088  -5.640  24.302  0.00  0.00    +0.000 A 
ATOM     16  C   UNL     1       7.455  -5.445  22.819  0.00  0.00    +0.000 A 
ENDBRANCH   1  14
BRANCH   9  17
ATOM     17  N   UNL     1       5.895  -1.972  25.429  0.00  0.00    +0.000 N 
ATOM     18  C   UNL     1       5.908  -2.112  24.031  0.00  0.00    +0.000 C 
ATOM     19  C   UNL     1       7.124  -1.184  23.530  0.00  0.00    +0.000 C 
ATOM     20  N   UNL     1       8.247  -1.638  24.077  0.00  0.00    +0.000 NA
ATOM     21  C   UNL     1       8.289  -2.446  25.197  0.00  0.00    +0.000 C 
ATOM     22  C   UNL     1       7.127  -2.235  26.160  0.00  0.00    +0.000 C 
BRANCH  20  23
ATOM     23  S   UNL     1       9.610  -1.681  23.192  0.00  0.00    +0.000 S 
ATOM     24  O   UNL     1      10.455  -2.726  23.683  0.00  0.00    +0.000 OA
ATOM     25  O   UNL     1       9.230  -1.849  21.788  0.00  0.00    +0.000 OA
BRANCH  23  26
ATOM     26  C   UNL     1      10.455  -0.124  23.321  0.00  0.00    +0.000 A 
ATOM     27  C   UNL     1      10.080   0.570  22.048  0.00  0.00    +0.000 A 
ATOM     28  C   UNL     1       9.179   1.735  21.920  0.00  0.00    +0.000 A 
ATOM     29  C   UNL     1       8.793   2.318  23.259  0.00  0.00    +0.000 A 
ATOM     30 CL   UNL     1       6.986   2.295  23.225  0.00  0.00    +0.000 Cl
ATOM     31  C   UNL     1       9.330   1.928  24.580  0.00  0.00    +0.000 A 
ATOM     32  C   UNL     1      10.235   0.654  24.530  0.00  0.00    +0.000 A 
ENDBRANCH  23  26
ENDBRANCH  20  23
ENDBRANCH   9  17
TORSDOF 4
ENDMDL
