MODEL 1
REMARK VINA RESULT:      -8.7      0.000      0.000
REMARK  Name = 
REMARK  4 active torsions:
REMARK  status: ('A' for Active; 'I' for Inactive)
REMARK    1  A    between atoms: C_5  and  S_6
REMARK    2  A    between atoms: S_6  and  N_9
REMARK    3  A    between atoms: N_25  and  N_26
REMARK    4  A    between atoms: C_37  and  C_39
REMARK                            x       y       z     vdW  Elec       q    Type
REMARK                         _______ _______ _______ _____ _____    ______ ____
ROOT
ATOM      1  C   UNL     1       7.037   2.652  21.670  0.00  0.00    +0.000 A 
ATOM      2  C   UNL     1       6.244   1.473  21.079  0.00  0.00    +0.000 A 
ATOM      3  C   UNL     1       6.843   0.182  20.604  0.00  0.00    +0.000 A 
ATOM      4  C   UNL     1       8.300   0.314  20.721  0.00  0.00    +0.000 A 
ATOM      5  C   UNL     1       9.136   1.017  21.537  0.00  0.00    +0.000 A 
ATOM      6  C   UNL     1       8.389   2.228  22.144  0.00  0.00    +0.000 A 
ATOM      7  C   UNL     1       8.540   2.417  23.663  0.00  0.00    +0.000 C 
ATOM      8  C   UNL     1       9.736   1.789  24.264  0.00  0.00    +0.000 C 
ATOM      9  C   UNL     1      10.563   0.892  23.376  0.00  0.00    +0.000 C 
ATOM     10  N   UNL     1       9.651   0.162  22.476  0.00  0.00    +0.000 N 
ENDROOT
BRANCH  10  11
ATOM     11  N   UNL     1       8.810  -0.540  23.170  0.00  0.00    +0.000 N 
ATOM     12  H   UNL     1       8.606   0.003  23.997  0.00  0.00    +0.000 HD
ATOM     13  C   UNL     1       9.079  -1.741  23.616  0.00  0.00    +0.000 C 
ATOM     14  O   UNL     1       9.993  -1.879  24.444  0.00  0.00    +0.000 OA
ATOM     15  N   UNL     1       8.033  -2.602  23.617  0.00  0.00    +0.000 N 
ATOM     16  C   UNL     1       8.338  -3.979  24.064  0.00  0.00    +0.000 C 
ATOM     17  C   UNL     1       7.408  -4.963  23.419  0.00  0.00    +0.000 C 
ATOM     18  C   UNL     1       6.072  -4.414  23.040  0.00  0.00    +0.000 C 
ATOM     19  C   UNL     1       5.650  -3.163  23.683  0.00  0.00    +0.000 C 
ATOM     20  C   UNL     1       6.708  -2.143  24.011  0.00  0.00    +0.000 C 
BRANCH  18  21
ATOM     21  C   UNL     1       5.943  -4.430  21.553  0.00  0.00    +0.000 C 
ATOM     22  O   UNL     1       5.651  -3.383  20.962  0.00  0.00    +0.000 OA
ATOM     23  N   UNL     1       6.190  -5.529  20.822  0.00  0.00    +0.000 N 
ATOM     24  H   UNL     1       5.522  -5.537  20.089  0.00  0.00    +0.000 HD
ATOM     25  H   UNL     1       7.102  -5.450  20.459  0.00  0.00    +0.000 HD
ENDBRANCH  18  21
ENDBRANCH  10  11
BRANCH   3  26
ATOM     26  S   UNL     1       6.531   0.206  18.929  0.00  0.00    +0.000 S 
ATOM     27  O   UNL     1       5.710   1.277  18.494  0.00  0.00    +0.000 OA
ATOM     28  O   UNL     1       7.794   0.008  18.243  0.00  0.00    +0.000 OA
BRANCH  26  29
ATOM     29  N   UNL     1       5.677  -1.224  18.611  0.00  0.00    +0.000 NA
ATOM     30  H   UNL     1       5.926  -1.872  19.344  0.00  0.00    +0.000 HD
ATOM     31  H   UNL     1       4.699  -1.039  18.717  0.00  0.00    +0.000 HD
ENDBRANCH  26  29
ENDBRANCH   3  26
TORSDOF 4
ENDMDL
MODEL 2
REMARK VINA RESULT:      -7.9      2.325      5.520
REMARK  Name = 
REMARK  4 active torsions:
REMARK  status: ('A' for Active; 'I' for Inactive)
REMARK    1  A    between atoms: C_5  and  S_6
REMARK    2  A    between atoms: S_6  and  N_9
REMARK    3  A    between atoms: N_25  and  N_26
REMARK    4  A    between atoms: C_37  and  C_39
REMARK                            x       y       z     vdW  Elec       q    Type
REMARK                         _______ _______ _______ _____ _____    ______ ____
ROOT
ATOM      1  C   UNL     1       8.162  -4.811  24.583  0.00  0.00    +0.000 A 
ATOM      2  C   UNL     1       7.843  -4.731  23.080  0.00  0.00    +0.000 A 
ATOM      3  C   UNL     1       6.683  -3.990  22.482  0.00  0.00    +0.000 A 
ATOM      4  C   UNL     1       5.889  -3.462  23.597  0.00  0.00    +0.000 A 
ATOM      5  C   UNL     1       6.170  -3.067  24.872  0.00  0.00    +0.000 A 
ATOM      6  C   UNL     1       7.486  -3.723  25.351  0.00  0.00    +0.000 A 
ATOM      7  C   UNL     1       8.506  -2.778  26.010  0.00  0.00    +0.000 C 
ATOM      8  C   UNL     1       7.944  -1.530  26.570  0.00  0.00    +0.000 C 
ATOM      9  C   UNL     1       6.493  -1.236  26.277  0.00  0.00    +0.000 C 
ATOM     10  N   UNL     1       6.193  -1.696  24.910  0.00  0.00    +0.000 N 
ENDROOT
BRANCH  10  11
ATOM     11  N   UNL     1       6.958  -1.088  24.057  0.00  0.00    +0.000 N 
ATOM     12  H   UNL     1       7.857  -0.990  24.507  0.00  0.00    +0.000 HD
ATOM     13  C   UNL     1       6.691   0.100  23.580  0.00  0.00    +0.000 C 
ATOM     14  O   UNL     1       6.666   1.066  24.361  0.00  0.00    +0.000 OA
ATOM     15  N   UNL     1       7.037   0.291  22.284  0.00  0.00    +0.000 N 
ATOM     16  C   UNL     1       6.688   1.613  21.716  0.00  0.00    +0.000 C 
ATOM     17  C   UNL     1       6.463   1.509  20.237  0.00  0.00    +0.000 C 
ATOM     18  C   UNL     1       7.207   0.407  19.560  0.00  0.00    +0.000 C 
ATOM     19  C   UNL     1       8.355  -0.168  20.272  0.00  0.00    +0.000 C 
ATOM     20  C   UNL     1       8.291  -0.247  21.774  0.00  0.00    +0.000 C 
BRANCH  18  21
ATOM     21  C   UNL     1       6.228  -0.593  19.038  0.00  0.00    +0.000 C 
ATOM     22  O   UNL     1       6.056  -0.686  17.816  0.00  0.00    +0.000 OA
ATOM     23  N   UNL     1       5.567  -1.439  19.844  0.00  0.00    +0.000 N 
ATOM     24  H   UNL     1       4.651  -1.526  19.472  0.00  0.00    +0.000 HD
ATOM     25  H   UNL     1       6.035  -2.306  19.819  0.00  0.00    +0.000 HD
ENDBRANCH  18  21
ENDBRANCH  10  11
BRANCH   3  26
ATOM     26  S   UNL     1       5.733  -5.236  21.815  0.00  0.00    +0.000 S 
ATOM     27  O   UNL     1       4.442  -5.369  22.385  0.00  0.00    +0.000 OA
ATOM     28  O   UNL     1       5.819  -5.130  20.370  0.00  0.00    +0.000 OA
BRANCH  26  29
ATOM     29  N   UNL     1       6.569  -6.671  22.158  0.00  0.00    +0.000 NA
ATOM     30  H   UNL     1       6.351  -6.903  23.116  0.00  0.00    +0.000 HD
ATOM     31  H   UNL     1       6.184  -7.405  21.595  0.00  0.00    +0.000 HD
ENDBRANCH  26  29
ENDBRANCH   3  26
TORSDOF 4
ENDMDL
MODEL 3
REMARK VINA RESULT:      -7.8      2.603      5.004
REMARK  Name = 
REMARK  4 active torsions:
REMARK  status: ('A' for Active; 'I' for Inactive)
REMARK    1  A    between atoms: C_5  and  S_6
REMARK    2  A    between atoms: S_6  and  N_9
REMARK    3  A    between atoms: N_25  and  N_26
REMARK    4  A    between atoms: C_37  and  C_39
REMARK                            x       y       z     vdW  Elec       q    Type
REMARK                         _______ _______ _______ _____ _____    ______ ____
ROOT
ATOM      1  C   UNL     1      10.237  -1.115  24.371  0.00  0.00    +0.000 A 
ATOM      2  C   UNL     1       9.394  -1.979  23.416  0.00  0.00    +0.000 A 
ATOM      3  C   UNL     1       7.917  -1.830  23.194  0.00  0.00    +0.000 A 
ATOM      4  C   UNL     1       7.445  -0.796  24.121  0.00  0.00    +0.000 A 
ATOM      5  C   UNL     1       8.008   0.306  24.696  0.00  0.00    +0.000 A 
ATOM      6  C   UNL     1       9.548   0.165  24.714  0.00  0.00    +0.000 A 
ATOM      7  C   UNL     1      10.338   1.385  24.211  0.00  0.00    +0.000 C 
ATOM      8  C   UNL     1       9.618   2.675  24.269  0.00  0.00    +0.000 C 
ATOM      9  C   UNL     1       8.155   2.631  24.632  0.00  0.00    +0.000 C 
ATOM     10  N   UNL     1       7.564   1.420  24.032  0.00  0.00    +0.000 N 
ENDROOT
BRANCH  10  11
ATOM     11  N   UNL     1       7.711   1.445  22.744  0.00  0.00    +0.000 N 
ATOM     12  H   UNL     1       8.516   2.028  22.564  0.00  0.00    +0.000 HD
ATOM     13  C   UNL     1       6.788   1.889  21.930  0.00  0.00    +0.000 C 
ATOM     14  O   UNL     1       6.462   3.086  21.991  0.00  0.00    +0.000 OA
ATOM     15  N   UNL     1       6.691   1.225  20.753  0.00  0.00    +0.000 N 
ATOM     16  C   UNL     1       5.613   1.680  19.847  0.00  0.00    +0.000 C 
ATOM     17  C   UNL     1       5.143   0.554  18.976  0.00  0.00    +0.000 C 
ATOM     18  C   UNL     1       6.163  -0.501  18.702  0.00  0.00    +0.000 C 
ATOM     19  C   UNL     1       7.571  -0.152  18.928  0.00  0.00    +0.000 C 
ATOM     20  C   UNL     1       7.894   0.796  20.053  0.00  0.00    +0.000 C 
BRANCH  18  21
ATOM     21  C   UNL     1       5.724  -1.779  19.335  0.00  0.00    +0.000 C 
ATOM     22  O   UNL     1       5.431  -2.741  18.612  0.00  0.00    +0.000 OA
ATOM     23  N   UNL     1       5.690  -1.947  20.667  0.00  0.00    +0.000 N 
ATOM     24  H   UNL     1       4.886  -2.494  20.862  0.00  0.00    +0.000 HD
ATOM     25  H   UNL     1       6.509  -2.428  20.930  0.00  0.00    +0.000 HD
ENDBRANCH  18  21
ENDBRANCH  10  11
BRANCH   3  26
ATOM     26  S   UNL     1       7.288  -3.291  23.806  0.00  0.00    +0.000 S 
ATOM     27  O   UNL     1       6.731  -3.199  25.106  0.00  0.00    +0.000 OA
ATOM     28  O   UNL     1       6.470  -3.887  22.767  0.00  0.00    +0.000 OA
BRANCH  26  29
ATOM     29  N   UNL     1       8.616  -4.340  23.917  0.00  0.00    +0.000 NA
ATOM     30  H   UNL     1       9.135  -4.055  24.735  0.00  0.00    +0.000 HD
ATOM     31  H   UNL     1       8.276  -5.263  24.105  0.00  0.00    +0.000 HD
ENDBRANCH  26  29
ENDBRANCH   3  26
TORSDOF 4
ENDMDL
MODEL 4
REMARK VINA RESULT:      -7.5      2.954      5.039
REMARK  Name = 
REMARK  4 active torsions:
REMARK  status: ('A' for Active; 'I' for Inactive)
REMARK    1  A    between atoms: C_5  and  S_6
REMARK    2  A    between atoms: S_6  and  N_9
REMARK    3  A    between atoms: N_25  and  N_26
REMARK    4  A    between atoms: C_37  and  C_39
REMARK                            x       y       z     vdW  Elec       q    Type
REMARK                         _______ _______ _______ _____ _____    ______ ____
ROOT
ATOM      1  C   UNL     1       9.802   0.683  24.036  0.00  0.00    +0.000 A 
ATOM      2  C   UNL     1       9.270  -0.206  25.174  0.00  0.00    +0.000 A 
ATOM      3  C   UNL     1       7.839  -0.624  25.346  0.00  0.00    +0.000 A 
ATOM      4  C   UNL     1       7.065   0.051  24.298  0.00  0.00    +0.000 A 
ATOM      5  C   UNL     1       7.340   0.495  23.038  0.00  0.00    +0.000 A 
ATOM      6  C   UNL     1       8.862   0.719  22.877  0.00  0.00    +0.000 A 
ATOM      7  C   UNL     1       9.498   0.116  21.613  0.00  0.00    +0.000 C 
ATOM      8  C   UNL     1       8.567  -0.131  20.490  0.00  0.00    +0.000 C 
ATOM      9  C   UNL     1       7.095   0.056  20.762  0.00  0.00    +0.000 C 
ATOM     10  N   UNL     1       6.816  -0.396  22.137  0.00  0.00    +0.000 N 
ENDROOT
BRANCH  10  11
ATOM     11  N   UNL     1       7.145  -1.644  22.271  0.00  0.00    +0.000 N 
ATOM     12  H   UNL     1       7.740  -1.863  21.484  0.00  0.00    +0.000 HD
ATOM     13  C   UNL     1       6.268  -2.613  22.307  0.00  0.00    +0.000 C 
ATOM     14  O   UNL     1       5.571  -2.826  21.302  0.00  0.00    +0.000 OA
ATOM     15  N   UNL     1       6.573  -3.634  23.144  0.00  0.00    +0.000 N 
ATOM     16  C   UNL     1       5.561  -4.709  23.238  0.00  0.00    +0.000 C 
ATOM     17  C   UNL     1       5.617  -5.373  24.582  0.00  0.00    +0.000 C 
ATOM     18  C   UNL     1       6.951  -5.331  25.252  0.00  0.00    +0.000 C 
ATOM     19  C   UNL     1       8.120  -5.050  24.409  0.00  0.00    +0.000 C 
ATOM     20  C   UNL     1       7.944  -4.117  23.240  0.00  0.00    +0.000 C 
BRANCH  18  21
ATOM     21  C   UNL     1       6.851  -4.494  26.484  0.00  0.00    +0.000 C 
ATOM     22  O   UNL     1       7.702  -4.626  27.373  0.00  0.00    +0.000 OA
ATOM     23  N   UNL     1       5.901  -3.558  26.642  0.00  0.00    +0.000 N 
ATOM     24  H   UNL     1       5.629  -3.589  27.595  0.00  0.00    +0.000 HD
ATOM     25  H   UNL     1       6.300  -2.685  26.423  0.00  0.00    +0.000 HD
ENDBRANCH  18  21
ENDBRANCH  10  11
BRANCH   3  26
ATOM     26  S   UNL     1       7.385   0.146  26.796  0.00  0.00    +0.000 S 
ATOM     27  O   UNL     1       7.235   1.552  26.700  0.00  0.00    +0.000 OA
ATOM     28  O   UNL     1       6.286  -0.608  27.369  0.00  0.00    +0.000 OA
BRANCH  26  29
ATOM     29  N   UNL     1       8.664  -0.136  27.873  0.00  0.00    +0.000 NA
ATOM     30  H   UNL     1       9.296   0.645  27.773  0.00  0.00    +0.000 HD
ATOM     31  H   UNL     1       8.307  -0.092  28.808  0.00  0.00    +0.000 HD
ENDBRANCH  26  29
ENDBRANCH   3  26
TORSDOF 4
ENDMDL
MODEL 5
REMARK VINA RESULT:      -7.4      2.475      4.982
REMARK  Name = 
REMARK  4 active torsions:
REMARK  status: ('A' for Active; 'I' for Inactive)
REMARK    1  A    between atoms: C_5  and  S_6
REMARK    2  A    between atoms: S_6  and  N_9
REMARK    3  A    between atoms: N_25  and  N_26
REMARK    4  A    between atoms: C_37  and  C_39
REMARK                            x       y       z     vdW  Elec       q    Type
REMARK                         _______ _______ _______ _____ _____    ______ ____
ROOT
ATOM      1  C   UNL     1       9.668  -0.918  21.231  0.00  0.00    +0.000 A 
ATOM      2  C   UNL     1       8.699   0.250  20.969  0.00  0.00    +0.000 A 
ATOM      3  C   UNL     1       7.219   0.214  21.214  0.00  0.00    +0.000 A 
ATOM      4  C   UNL     1       6.885  -1.149  21.641  0.00  0.00    +0.000 A 
ATOM      5  C   UNL     1       7.555  -2.138  22.300  0.00  0.00    +0.000 A 
ATOM      6  C   UNL     1       9.081  -1.924  22.165  0.00  0.00    +0.000 A 
ATOM      7  C   UNL     1       9.890  -2.024  23.470  0.00  0.00    +0.000 C 
ATOM      8  C   UNL     1       9.249  -2.795  24.556  0.00  0.00    +0.000 C 
ATOM      9  C   UNL     1       7.822  -3.234  24.340  0.00  0.00    +0.000 C 
ATOM     10  N   UNL     1       7.117  -2.172  23.599  0.00  0.00    +0.000 N 
ENDROOT
BRANCH  10  11
ATOM     11  N   UNL     1       7.152  -1.063  24.270  0.00  0.00    +0.000 N 
ATOM     12  H   UNL     1       7.675  -1.260  25.111  0.00  0.00    +0.000 HD
ATOM     13  C   UNL     1       6.076  -0.444  24.682  0.00  0.00    +0.000 C 
ATOM     14  O   UNL     1       5.342  -1.009  25.509  0.00  0.00    +0.000 OA
ATOM     15  N   UNL     1       6.144   0.909  24.656  0.00  0.00    +0.000 N 
ATOM     16  C   UNL     1       4.913   1.620  25.065  0.00  0.00    +0.000 C 
ATOM     17  C   UNL     1       4.825   2.957  24.390  0.00  0.00    +0.000 C 
ATOM     18  C   UNL     1       6.137   3.567  24.023  0.00  0.00    +0.000 C 
ATOM     19  C   UNL     1       7.333   3.050  24.699  0.00  0.00    +0.000 C 
ATOM     20  C   UNL     1       7.368   1.588  25.060  0.00  0.00    +0.000 C 
BRANCH  18  21
ATOM     21  C   UNL     1       6.240   3.641  22.535  0.00  0.00    +0.000 C 
ATOM     22  O   UNL     1       7.322   3.950  22.021  0.00  0.00    +0.000 OA
ATOM     23  N   UNL     1       5.214   3.328  21.728  0.00  0.00    +0.000 N 
ATOM     24  H   UNL     1       5.245   3.969  20.971  0.00  0.00    +0.000 HD
ATOM     25  H   UNL     1       5.353   2.407  21.408  0.00  0.00    +0.000 HD
ENDBRANCH  18  21
ENDBRANCH  10  11
BRANCH   3  26
ATOM     26  S   UNL     1       6.567   0.357  19.646  0.00  0.00    +0.000 S 
ATOM     27  O   UNL     1       5.756   1.502  19.443  0.00  0.00    +0.000 OA
ATOM     28  O   UNL     1       7.640   0.119  18.700  0.00  0.00    +0.000 OA
BRANCH  26  29
ATOM     29  N   UNL     1       5.560  -0.994  19.454  0.00  0.00    +0.000 NA
ATOM     30  H   UNL     1       5.039  -0.840  18.604  0.00  0.00    +0.000 HD
ATOM     31  H   UNL     1       6.136  -1.797  19.292  0.00  0.00    +0.000 HD
ENDBRANCH  26  29
ENDBRANCH   3  26
TORSDOF 4
ENDMDL
MODEL 6
REMARK VINA RESULT:      -6.9      2.889      6.201
REMARK  Name = 
REMARK  4 active torsions:
REMARK  status: ('A' for Active; 'I' for Inactive)
REMARK    1  A    between atoms: C_5  and  S_6
REMARK    2  A    between atoms: S_6  and  N_9
REMARK    3  A    between atoms: N_25  and  N_26
REMARK    4  A    between atoms: C_37  and  C_39
REMARK                            x       y       z     vdW  Elec       q    Type
REMARK                         _______ _______ _______ _____ _____    ______ ____
ROOT
ATOM      1  C   UNL     1       5.061  -2.265  25.270  0.00  0.00    +0.000 A 
ATOM      2  C   UNL     1       5.617  -0.832  25.184  0.00  0.00    +0.000 A 
ATOM      3  C   UNL     1       7.063  -0.458  25.326  0.00  0.00    +0.000 A 
ATOM      4  C   UNL     1       7.796  -1.686  25.656  0.00  0.00    +0.000 A 
ATOM      5  C   UNL     1       7.616  -3.011  25.386  0.00  0.00    +0.000 A 
ATOM      6  C   UNL     1       6.130  -3.287  25.058  0.00  0.00    +0.000 A 
ATOM      7  C   UNL     1       5.867  -4.127  23.797  0.00  0.00    +0.000 C 
ATOM      8  C   UNL     1       6.991  -4.982  23.359  0.00  0.00    +0.000 C 
ATOM      9  C   UNL     1       8.309  -4.804  24.070  0.00  0.00    +0.000 C 
ATOM     10  N   UNL     1       8.478  -3.374  24.384  0.00  0.00    +0.000 N 
ENDROOT
BRANCH  10  11
ATOM     11  N   UNL     1       8.454  -2.673  23.293  0.00  0.00    +0.000 N 
ATOM     12  H   UNL     1       8.384  -3.336  22.535  0.00  0.00    +0.000 HD
ATOM     13  C   UNL     1       9.422  -1.865  22.943  0.00  0.00    +0.000 C 
ATOM     14  O   UNL     1      10.541  -2.344  22.700  0.00  0.00    +0.000 OA
ATOM     15  N   UNL     1       9.026  -0.729  22.320  0.00  0.00    +0.000 N 
ATOM     16  C   UNL     1      10.107   0.220  21.971  0.00  0.00    +0.000 C 
ATOM     17  C   UNL     1       9.588   1.626  21.946  0.00  0.00    +0.000 C 
ATOM     18  C   UNL     1       8.136   1.759  21.626  0.00  0.00    +0.000 C 
ATOM     19  C   UNL     1       7.482   0.616  20.976  0.00  0.00    +0.000 C 
ATOM     20  C   UNL     1       7.949  -0.769  21.340  0.00  0.00    +0.000 C 
BRANCH  18  21
ATOM     21  C   UNL     1       7.420   2.295  22.821  0.00  0.00    +0.000 C 
ATOM     22  O   UNL     1       6.203   2.099  22.934  0.00  0.00    +0.000 OA
ATOM     23  N   UNL     1       8.060   2.934  23.814  0.00  0.00    +0.000 N 
ATOM     24  H   UNL     1       7.460   3.666  24.111  0.00  0.00    +0.000 HD
ATOM     25  H   UNL     1       8.205   2.288  24.543  0.00  0.00    +0.000 HD
ENDBRANCH  18  21
ENDBRANCH  10  11
BRANCH   3  26
ATOM     26  S   UNL     1       7.082   0.464  26.759  0.00  0.00    +0.000 S 
ATOM     27  O   UNL     1       7.230   1.861  26.564  0.00  0.00    +0.000 OA
ATOM     28  O   UNL     1       5.976   0.017  27.585  0.00  0.00    +0.000 OA
BRANCH  26  29
ATOM     29  N   UNL     1       8.452  -0.058  27.611  0.00  0.00    +0.000 NA
ATOM     30  H   UNL     1       9.239   0.078  26.993  0.00  0.00    +0.000 HD
ATOM     31  H   UNL     1       8.594   0.556  28.389  0.00  0.00    +0.000 HD
ENDBRANCH  26  29
ENDBRANCH   3  26
TORSDOF 4
ENDMDL
MODEL 7
REMARK VINA RESULT:      -6.8      2.620      5.752
REMARK  Name = 
REMARK  4 active torsions:
REMARK  status: ('A' for Active; 'I' for Inactive)
REMARK    1  A    between atoms: C_5  and  S_6
REMARK    2  A    between atoms: S_6  and  N_9
REMARK    3  A    between atoms: N_25  and  N_26
REMARK    4  A    between atoms: C_37  and  C_39
REMARK                            x       y       z     vdW  Elec       q    Type
REMARK                         _______ _______ _______ _____ _____    ______ ____
ROOT
ATOM      1  C   UNL     1       9.191  -1.770  21.627  0.00  0.00    +0.000 A 
ATOM      2  C   UNL     1       8.800  -0.407  21.030  0.00  0.00    +0.000 A 
ATOM      3  C   UNL     1       7.612   0.409  21.448  0.00  0.00    +0.000 A 
ATOM      4  C   UNL     1       6.870  -0.384  22.435  0.00  0.00    +0.000 A 
ATOM      5  C   UNL     1       7.212  -1.332  23.355  0.00  0.00    +0.000 A 
ATOM      6  C   UNL     1       8.550  -1.997  22.956  0.00  0.00    +0.000 A 
ATOM      7  C   UNL     1       9.598  -2.117  24.076  0.00  0.00    +0.000 C 
ATOM      8  C   UNL     1       9.062  -2.081  25.454  0.00  0.00    +0.000 C 
ATOM      9  C   UNL     1       7.598  -1.751  25.614  0.00  0.00    +0.000 C 
ATOM     10  N   UNL     1       7.234  -0.750  24.595  0.00  0.00    +0.000 N 
ENDROOT
BRANCH  10  11
ATOM     11  N   UNL     1       7.956   0.317  24.742  0.00  0.00    +0.000 N 
ATOM     12  H   UNL     1       8.833   0.011  25.140  0.00  0.00    +0.000 HD
ATOM     13  C   UNL     1       7.589   1.332  25.482  0.00  0.00    +0.000 C 
ATOM     14  O   UNL     1       7.457   1.162  26.705  0.00  0.00    +0.000 OA
ATOM     15  N   UNL     1       7.943   2.549  25.005  0.00  0.00    +0.000 N 
ATOM     16  C   UNL     1       7.483   3.708  25.804  0.00  0.00    +0.000 C 
ATOM     17  C   UNL     1       7.300   4.913  24.930  0.00  0.00    +0.000 C 
ATOM     18  C   UNL     1       8.159   4.945  23.709  0.00  0.00    +0.000 C 
ATOM     19  C   UNL     1       9.341   4.074  23.694  0.00  0.00    +0.000 C 
ATOM     20  C   UNL     1       9.252   2.746  24.398  0.00  0.00    +0.000 C 
BRANCH  18  21
ATOM     21  C   UNL     1       7.289   4.845  22.500  0.00  0.00    +0.000 C 
ATOM     22  O   UNL     1       6.485   3.908  22.412  0.00  0.00    +0.000 OA
ATOM     23  N   UNL     1       7.305   5.768  21.525  0.00  0.00    +0.000 N 
ATOM     24  H   UNL     1       7.199   5.277  20.669  0.00  0.00    +0.000 HD
ATOM     25  H   UNL     1       6.544   6.375  21.674  0.00  0.00    +0.000 HD
ENDBRANCH  18  21
ENDBRANCH  10  11
BRANCH   3  26
ATOM     26  S   UNL     1       6.633   0.404  20.054  0.00  0.00    +0.000 S 
ATOM     27  O   UNL     1       5.837  -0.757  19.891  0.00  0.00    +0.000 OA
ATOM     28  O   UNL     1       5.965   1.690  19.980  0.00  0.00    +0.000 OA
BRANCH  26  29
ATOM     29  N   UNL     1       7.713   0.443  18.747  0.00  0.00    +0.000 NA
ATOM     30  H   UNL     1       7.186   0.775  17.953  0.00  0.00    +0.000 HD
ATOM     31  H   UNL     1       8.411   1.137  18.933  0.00  0.00    +0.000 HD
ENDBRANCH  26  29
ENDBRANCH   3  26
TORSDOF 4
ENDMDL
MODEL 8
REMARK VINA RESULT:      -6.7      2.309      5.454
REMARK  Name = 
REMARK  4 active torsions:
REMARK  status: ('A' for Active; 'I' for Inactive)
REMARK    1  A    between atoms: C_5  and  S_6
REMARK    2  A    between atoms: S_6  and  N_9
REMARK    3  A    between atoms: N_25  and  N_26
REMARK    4  A    between atoms: C_37  and  C_39
REMARK                            x       y       z     vdW  Elec       q    Type
REMARK                         _______ _______ _______ _____ _____    ______ ____
ROOT
ATOM      1  C   UNL     1       7.773  -3.720  22.361  0.00  0.00    +0.000 A 
ATOM      2  C   UNL     1       8.177  -2.330  21.840  0.00  0.00    +0.000 A 
ATOM      3  C   UNL     1       7.417  -1.060  22.090  0.00  0.00    +0.000 A 
ATOM      4  C   UNL     1       6.198  -1.425  22.820  0.00  0.00    +0.000 A 
ATOM      5  C   UNL     1       5.863  -2.423  23.688  0.00  0.00    +0.000 A 
ATOM      6  C   UNL     1       6.816  -3.627  23.504  0.00  0.00    +0.000 A 
ATOM      7  C   UNL     1       7.416  -4.210  24.794  0.00  0.00    +0.000 C 
ATOM      8  C   UNL     1       6.655  -3.930  26.031  0.00  0.00    +0.000 C 
ATOM      9  C   UNL     1       5.499  -2.968  25.924  0.00  0.00    +0.000 C 
ATOM     10  N   UNL     1       5.860  -1.912  24.961  0.00  0.00    +0.000 N 
ENDROOT
BRANCH  10  11
ATOM     11  N   UNL     1       6.928  -1.293  25.358  0.00  0.00    +0.000 N 
ATOM     12  H   UNL     1       7.181  -1.710  26.243  0.00  0.00    +0.000 HD
ATOM     13  C   UNL     1       6.968  -0.003  25.572  0.00  0.00    +0.000 C 
ATOM     14  O   UNL     1       6.263   0.474  26.476  0.00  0.00    +0.000 OA
ATOM     15  N   UNL     1       8.133   0.600  25.236  0.00  0.00    +0.000 N 
ATOM     16  C   UNL     1       8.170   2.068  25.419  0.00  0.00    +0.000 C 
ATOM     17  C   UNL     1       9.126   2.698  24.450  0.00  0.00    +0.000 C 
ATOM     18  C   UNL     1      10.247   1.818  24.006  0.00  0.00    +0.000 C 
ATOM     19  C   UNL     1      10.548   0.642  24.832  0.00  0.00    +0.000 C 
ATOM     20  C   UNL     1       9.404  -0.052  25.522  0.00  0.00    +0.000 C 
BRANCH  18  21
ATOM     21  C   UNL     1      10.098   1.538  22.547  0.00  0.00    +0.000 C 
ATOM     22  O   UNL     1      10.404   0.421  22.113  0.00  0.00    +0.000 OA
ATOM     23  N   UNL     1       9.587   2.438  21.692  0.00  0.00    +0.000 N 
ATOM     24  H   UNL     1      10.103   2.352  20.849  0.00  0.00    +0.000 HD
ATOM     25  H   UNL     1       8.640   2.208  21.543  0.00  0.00    +0.000 HD
ENDBRANCH  18  21
ENDBRANCH  10  11
BRANCH   3  26
ATOM     26  S   UNL     1       6.883  -0.620  20.533  0.00  0.00    +0.000 S 
ATOM     27  O   UNL     1       7.920  -0.354  19.603  0.00  0.00    +0.000 OA
ATOM     28  O   UNL     1       5.853  -1.562  20.138  0.00  0.00    +0.000 OA
BRANCH  26  29
ATOM     29  N   UNL     1       6.033   0.833  20.745  0.00  0.00    +0.000 NA
ATOM     30  H   UNL     1       5.986   0.991  21.740  0.00  0.00    +0.000 HD
ATOM     31  H   UNL     1       6.583   1.579  20.365  0.00  0.00    +0.000 HD
ENDBRANCH  26  29
ENDBRANCH   3  26
TORSDOF 4
ENDMDL
MODEL 9
REMARK VINA RESULT:      -6.5      3.430      4.778
REMARK  Name = 
REMARK  4 active torsions:
REMARK  status: ('A' for Active; 'I' for Inactive)
REMARK    1  A    between atoms: C_5  and  S_6
REMARK    2  A    between atoms: S_6  and  N_9
REMARK    3  A    between atoms: N_25  and  N_26
REMARK    4  A    between atoms: C_37  and  C_39
REMARK                            x       y       z     vdW  Elec       q    Type
REMARK                         _______ _______ _______ _____ _____    ______ ____
ROOT
ATOM      1  C   UNL     1       6.330  -1.957  21.890  0.00  0.00    +0.000 A 
ATOM      2  C   UNL     1       5.481  -3.106  22.462  0.00  0.00    +0.000 A 
ATOM      3  C   UNL     1       6.029  -4.365  23.067  0.00  0.00    +0.000 A 
ATOM      4  C   UNL     1       7.487  -4.320  22.910  0.00  0.00    +0.000 A 
ATOM      5  C   UNL     1       8.413  -3.320  22.838  0.00  0.00    +0.000 A 
ATOM      6  C   UNL     1       7.735  -2.003  22.394  0.00  0.00    +0.000 A 
ATOM      7  C   UNL     1       8.077  -0.758  23.231  0.00  0.00    +0.000 C 
ATOM      8  C   UNL     1       9.347  -0.830  23.986  0.00  0.00    +0.000 C 
ATOM      9  C   UNL     1      10.063  -2.158  24.002  0.00  0.00    +0.000 C 
ATOM     10  N   UNL     1       9.052  -3.230  24.047  0.00  0.00    +0.000 N 
ENDROOT
BRANCH  10  11
ATOM     11  N   UNL     1       8.314  -3.101  25.106  0.00  0.00    +0.000 N 
ATOM     12  H   UNL     1       8.666  -2.293  25.597  0.00  0.00    +0.000 HD
ATOM     13  C   UNL     1       8.210  -4.031  26.020  0.00  0.00    +0.000 C 
ATOM     14  O   UNL     1       9.220  -4.344  26.671  0.00  0.00    +0.000 OA
ATOM     15  N   UNL     1       6.983  -4.151  26.582  0.00  0.00    +0.000 N 
ATOM     16  C   UNL     1       6.837  -5.236  27.577  0.00  0.00    +0.000 C 
ATOM     17  C   UNL     1       5.422  -5.729  27.618  0.00  0.00    +0.000 C 
ATOM     18  C   UNL     1       4.390  -4.724  27.226  0.00  0.00    +0.000 C 
ATOM     19  C   UNL     1       4.783  -3.310  27.255  0.00  0.00    +0.000 C 
ATOM     20  C   UNL     1       6.205  -2.961  26.903  0.00  0.00    +0.000 C 
BRANCH  18  21
ATOM     21  C   UNL     1       3.734  -5.167  25.960  0.00  0.00    +0.000 C 
ATOM     22  O   UNL     1       3.824  -6.353  25.618  0.00  0.00    +0.000 OA
ATOM     23  N   UNL     1       2.998  -4.337  25.204  0.00  0.00    +0.000 N 
ATOM     24  H   UNL     1       3.187  -4.574  24.259  0.00  0.00    +0.000 HD
ATOM     25  H   UNL     1       2.050  -4.497  25.418  0.00  0.00    +0.000 HD
ENDBRANCH  18  21
ENDBRANCH  10  11
BRANCH   3  26
ATOM     26  S   UNL     1       5.506  -5.571  21.982  0.00  0.00    +0.000 S 
ATOM     27  O   UNL     1       4.183  -6.032  22.201  0.00  0.00    +0.000 OA
ATOM     28  O   UNL     1       5.851  -5.137  20.642  0.00  0.00    +0.000 OA
BRANCH  26  29
ATOM     29  N   UNL     1       6.535  -6.892  22.250  0.00  0.00    +0.000 NA
ATOM     30  H   UNL     1       7.467  -6.575  22.026  0.00  0.00    +0.000 HD
ATOM     31  H   UNL     1       6.535  -7.100  23.229  0.00  0.00    +0.000 HD
ENDBRANCH  26  29
ENDBRANCH   3  26
TORSDOF 4
ENDMDL
