MODEL 1
REMARK VINA RESULT:      -9.0      0.000      0.000
REMARK  Name = 
REMARK  5 active torsions:
REMARK  status: ('A' for Active; 'I' for Inactive)
REMARK    1  A    between atoms: C_11  and  C_12
REMARK    2  A    between atoms: N_27  and  C_28
REMARK    3  A    between atoms: C_28  and  C_31
REMARK    4  A    between atoms: N_40  and  S_41
REMARK    5  A    between atoms: S_41  and  C_44
REMARK                            x       y       z     vdW  Elec       q    Type
REMARK                         _______ _______ _______ _____ _____    ______ ____
ROOT
ATOM      1  C   UNL     1       9.584  -0.808  24.145  0.00  0.00    +0.000 C 
ATOM      2  O   UNL     1       9.649  -0.636  25.417  0.00  0.00    +0.000 OA
ATOM      3  N   UNL     1       8.733  -1.802  23.782  0.00  0.00    +0.000 N 
ATOM      4  C   UNL     1       7.306  -1.562  24.126  0.00  0.00    +0.000 C 
ATOM      5  C   UNL     1       6.415  -2.696  23.705  0.00  0.00    +0.000 C 
ATOM      6  N   UNL     1       7.000  -3.825  23.100  0.00  0.00    +0.000 NA
ATOM      7  C   UNL     1       8.137  -4.242  23.725  0.00  0.00    +0.000 C 
ATOM      8  C   UNL     1       9.088  -3.188  24.209  0.00  0.00    +0.000 C 
ENDROOT
BRANCH   6   9
ATOM      9  S   UNL     1       6.009  -4.782  22.358  0.00  0.00    +0.000 S 
ATOM     10  O   UNL     1       5.460  -3.877  21.185  0.00  0.00    +0.000 OA
ATOM     11  O   UNL     1       6.849  -5.789  21.640  0.00  0.00    +0.000 OA
BRANCH   9  12
ATOM     12  C   UNL     1       4.595  -5.460  22.961  0.00  0.00    +0.000 A 
ATOM     13  C   UNL     1       5.069  -6.559  23.913  0.00  0.00    +0.000 A 
ATOM     14  C   UNL     1       4.800  -6.647  25.330  0.00  0.00    +0.000 A 
ATOM     15  C   UNL     1       3.697  -5.671  25.768  0.00  0.00    +0.000 A 
ATOM     16 CL   UNL     1       2.542  -6.802  26.497  0.00  0.00    +0.000 Cl
ATOM     17  C   UNL     1       3.072  -4.621  24.985  0.00  0.00    +0.000 A 
ATOM     18  C   UNL     1       3.502  -4.680  23.434  0.00  0.00    +0.000 A 
ENDBRANCH   9  12
ENDBRANCH   6   9
BRANCH   1  19
ATOM     19  C   UNL     1      10.602   0.130  23.438  0.00  0.00    +0.000 C 
BRANCH  19  28
ATOM     20  C   UNL     1       8.275   2.290  21.765  0.00  0.00    +0.000 C 
ATOM     21  C   UNL     1       7.554   2.459  22.871  0.00  0.00    +0.000 A 
ATOM     22  C   UNL     1       6.888   3.727  23.157  0.00  0.00    +0.000 A 
ATOM     23  C   UNL     1       5.922   3.993  24.305  0.00  0.00    +0.000 A 
ATOM     24  C   UNL     1       6.386   2.940  25.341  0.00  0.00    +0.000 A 
ATOM     25  C   UNL     1       7.373   1.887  25.424  0.00  0.00    +0.000 A 
ATOM     26  C   UNL     1       8.277   2.369  24.308  0.00  0.00    +0.000 A 
ATOM     27  C   UNL     1       9.713   2.108  24.352  0.00  0.00    +0.000 C 
ATOM     28  N   UNL     1      10.128   1.398  23.289  0.00  0.00    +0.000 N 
ATOM     29  C   UNL     1       9.613   1.788  22.133  0.00  0.00    +0.000 C 
BRANCH  20  34
ATOM     30  C   UNL     1       7.794  -0.127  19.096  0.00  0.00    +0.000 C 
ATOM     31  C   UNL     1       6.466  -0.205  18.957  0.00  0.00    +0.000 C 
ATOM     32  C   UNL     1       5.461   1.031  19.394  0.00  0.00    +0.000 C 
ATOM     33  C   UNL     1       6.228   1.680  20.463  0.00  0.00    +0.000 C 
ATOM     34  C   UNL     1       7.467   1.271  21.066  0.00  0.00    +0.000 C 
ATOM     35  C   UNL     1       8.312   0.095  20.600  0.00  0.00    +0.000 C 
ENDBRANCH  20  34
ENDBRANCH  19  28
ENDBRANCH   1  19
TORSDOF 5
ENDMDL
MODEL 2
REMARK VINA RESULT:      -9.0      2.332      4.192
REMARK  Name = 
REMARK  5 active torsions:
REMARK  status: ('A' for Active; 'I' for Inactive)
REMARK    1  A    between atoms: C_11  and  C_12
REMARK    2  A    between atoms: N_27  and  C_28
REMARK    3  A    between atoms: C_28  and  C_31
REMARK    4  A    between atoms: N_40  and  S_41
REMARK    5  A    between atoms: S_41  and  C_44
REMARK                            x       y       z     vdW  Elec       q    Type
REMARK                         _______ _______ _______ _____ _____    ______ ____
ROOT
ATOM      1  C   UNL     1       9.234  -2.627  23.724  0.00  0.00    +0.000 C 
ATOM      2  O   UNL     1      10.451  -2.991  23.912  0.00  0.00    +0.000 OA
ATOM      3  N   UNL     1       8.342  -3.334  24.466  0.00  0.00    +0.000 N 
ATOM      4  C   UNL     1       8.480  -3.168  25.938  0.00  0.00    +0.000 C 
ATOM      5  C   UNL     1       7.473  -3.976  26.704  0.00  0.00    +0.000 C 
ATOM      6  N   UNL     1       6.579  -4.795  25.988  0.00  0.00    +0.000 NA
ATOM      7  C   UNL     1       7.178  -5.499  24.986  0.00  0.00    +0.000 C 
ATOM      8  C   UNL     1       8.221  -4.793  24.171  0.00  0.00    +0.000 C 
ENDROOT
BRANCH   6   9
ATOM      9  S   UNL     1       5.338  -5.306  26.794  0.00  0.00    +0.000 S 
ATOM     10  O   UNL     1       5.824  -6.709  27.333  0.00  0.00    +0.000 OA
ATOM     11  O   UNL     1       5.267  -4.476  28.035  0.00  0.00    +0.000 OA
BRANCH   9  12
ATOM     12  C   UNL     1       3.811  -5.675  26.199  0.00  0.00    +0.000 A 
ATOM     13  C   UNL     1       3.580  -4.666  25.074  0.00  0.00    +0.000 A 
ATOM     14  C   UNL     1       3.348  -4.966  23.680  0.00  0.00    +0.000 A 
ATOM     15  C   UNL     1       3.034  -6.455  23.457  0.00  0.00    +0.000 A 
ATOM     16 CL   UNL     1       1.457  -6.330  22.657  0.00  0.00    +0.000 Cl
ATOM     17  C   UNL     1       3.119  -7.538  24.418  0.00  0.00    +0.000 A 
ATOM     18  C   UNL     1       3.393  -7.006  25.913  0.00  0.00    +0.000 A 
ENDBRANCH   9  12
ENDBRANCH   6   9
BRANCH   1  19
ATOM     19  C   UNL     1       9.178  -1.547  22.608  0.00  0.00    +0.000 C 
BRANCH  19  28
ATOM     20  C   UNL     1       6.917   1.235  22.442  0.00  0.00    +0.000 C 
ATOM     21  C   UNL     1       6.854   1.173  21.114  0.00  0.00    +0.000 A 
ATOM     22  C   UNL     1       5.624   1.501  20.396  0.00  0.00    +0.000 A 
ATOM     23  C   UNL     1       5.472   1.610  18.884  0.00  0.00    +0.000 A 
ATOM     24  C   UNL     1       6.602   0.672  18.397  0.00  0.00    +0.000 A 
ATOM     25  C   UNL     1       7.644  -0.140  18.986  0.00  0.00    +0.000 A 
ATOM     26  C   UNL     1       7.056  -0.246  20.377  0.00  0.00    +0.000 A 
ATOM     27  C   UNL     1       7.298  -1.429  21.198  0.00  0.00    +0.000 C 
ATOM     28  N   UNL     1       7.909  -1.123  22.354  0.00  0.00    +0.000 N 
ATOM     29  C   UNL     1       7.429  -0.048  22.961  0.00  0.00    +0.000 C 
BRANCH  20  34
ATOM     30  C   UNL     1      10.291   2.467  22.984  0.00  0.00    +0.000 C 
ATOM     31  C   UNL     1      10.117   3.664  23.557  0.00  0.00    +0.000 C 
ATOM     32  C   UNL     1       8.754   4.042  24.410  0.00  0.00    +0.000 C 
ATOM     33  C   UNL     1       7.750   3.184  23.770  0.00  0.00    +0.000 C 
ATOM     34  C   UNL     1       7.884   2.336  22.617  0.00  0.00    +0.000 C 
ATOM     35  C   UNL     1       9.191   2.069  21.884  0.00  0.00    +0.000 C 
ENDBRANCH  20  34
ENDBRANCH  19  28
ENDBRANCH   1  19
TORSDOF 5
ENDMDL
MODEL 3
REMARK VINA RESULT:      -8.9      2.397      4.102
REMARK  Name = 
REMARK  5 active torsions:
REMARK  status: ('A' for Active; 'I' for Inactive)
REMARK    1  A    between atoms: C_11  and  C_12
REMARK    2  A    between atoms: N_27  and  C_28
REMARK    3  A    between atoms: C_28  and  C_31
REMARK    4  A    between atoms: N_40  and  S_41
REMARK    5  A    between atoms: S_41  and  C_44
REMARK                            x       y       z     vdW  Elec       q    Type
REMARK                         _______ _______ _______ _____ _____    ______ ____
ROOT
ATOM      1  C   UNL     1       8.555   1.524  24.968  0.00  0.00    +0.000 C 
ATOM      2  O   UNL     1       8.022   2.674  25.176  0.00  0.00    +0.000 OA
ATOM      3  N   UNL     1       7.779   0.490  25.384  0.00  0.00    +0.000 N 
ATOM      4  C   UNL     1       6.482   0.353  24.670  0.00  0.00    +0.000 C 
ATOM      5  C   UNL     1       5.666  -0.802  25.175  0.00  0.00    +0.000 C 
ATOM      6  N   UNL     1       6.170  -1.567  26.245  0.00  0.00    +0.000 NA
ATOM      7  C   UNL     1       6.701  -0.809  27.246  0.00  0.00    +0.000 C 
ATOM      8  C   UNL     1       7.516   0.387  26.850  0.00  0.00    +0.000 C 
ENDROOT
BRANCH   6   9
ATOM      9  S   UNL     1       5.474  -2.950  26.472  0.00  0.00    +0.000 S 
ATOM     10  O   UNL     1       6.596  -3.792  27.201  0.00  0.00    +0.000 OA
ATOM     11  O   UNL     1       4.458  -2.742  27.548  0.00  0.00    +0.000 OA
BRANCH   9  12
ATOM     12  C   UNL     1       4.938  -4.032  25.304  0.00  0.00    +0.000 A 
ATOM     13  C   UNL     1       5.323  -5.408  25.846  0.00  0.00    +0.000 A 
ATOM     14  C   UNL     1       4.423  -6.495  26.158  0.00  0.00    +0.000 A 
ATOM     15  C   UNL     1       3.015  -6.257  25.589  0.00  0.00    +0.000 A 
ATOM     16 CL   UNL     1       2.823  -7.712  24.594  0.00  0.00    +0.000 Cl
ATOM     17  C   UNL     1       2.495  -5.052  24.970  0.00  0.00    +0.000 A 
ATOM     18  C   UNL     1       3.645  -3.955  24.713  0.00  0.00    +0.000 A 
ENDBRANCH   9  12
ENDBRANCH   6   9
BRANCH   1  19
ATOM     19  C   UNL     1       9.987   1.708  24.393  0.00  0.00    +0.000 C 
BRANCH  19  28
ATOM     20  C   UNL     1       9.515  -0.934  22.010  0.00  0.00    +0.000 C 
ATOM     21  C   UNL     1       8.481  -0.314  21.447  0.00  0.00    +0.000 A 
ATOM     22  C   UNL     1       8.223  -0.417  20.013  0.00  0.00    +0.000 A 
ATOM     23  C   UNL     1       6.998   0.120  19.282  0.00  0.00    +0.000 A 
ATOM     24  C   UNL     1       6.573   1.280  20.215  0.00  0.00    +0.000 A 
ATOM     25  C   UNL     1       7.007   1.855  21.469  0.00  0.00    +0.000 A 
ATOM     26  C   UNL     1       8.414   1.296  21.472  0.00  0.00    +0.000 A 
ATOM     27  C   UNL     1       9.502   2.029  22.113  0.00  0.00    +0.000 C 
ATOM     28  N   UNL     1      10.082   1.316  23.092  0.00  0.00    +0.000 N 
ATOM     29  C   UNL     1      10.297   0.044  22.791  0.00  0.00    +0.000 C 
BRANCH  20  34
ATOM     30  C   UNL     1       9.516  -3.700  24.365  0.00  0.00    +0.000 C 
ATOM     31  C   UNL     1       8.327  -4.287  24.186  0.00  0.00    +0.000 C 
ATOM     32  C   UNL     1       7.495  -4.171  22.763  0.00  0.00    +0.000 C 
ATOM     33  C   UNL     1       7.960  -2.879  22.245  0.00  0.00    +0.000 C 
ATOM     34  C   UNL     1       8.813  -1.906  22.871  0.00  0.00    +0.000 C 
ATOM     35  C   UNL     1       9.521  -2.102  24.204  0.00  0.00    +0.000 C 
ENDBRANCH  20  34
ENDBRANCH  19  28
ENDBRANCH   1  19
TORSDOF 5
ENDMDL
MODEL 4
REMARK VINA RESULT:      -8.7      2.504      4.271
REMARK  Name = 
REMARK  5 active torsions:
REMARK  status: ('A' for Active; 'I' for Inactive)
REMARK    1  A    between atoms: C_11  and  C_12
REMARK    2  A    between atoms: N_27  and  C_28
REMARK    3  A    between atoms: C_28  and  C_31
REMARK    4  A    between atoms: N_40  and  S_41
REMARK    5  A    between atoms: S_41  and  C_44
REMARK                            x       y       z     vdW  Elec       q    Type
REMARK                         _______ _______ _______ _____ _____    ______ ____
ROOT
ATOM      1  C   UNL     1       9.273  -2.604  24.178  0.00  0.00    +0.000 C 
ATOM      2  O   UNL     1      10.363  -3.186  23.823  0.00  0.00    +0.000 OA
ATOM      3  N   UNL     1       8.363  -3.455  24.718  0.00  0.00    +0.000 N 
ATOM      4  C   UNL     1       8.786  -4.101  25.990  0.00  0.00    +0.000 C 
ATOM      5  C   UNL     1       7.743  -5.033  26.536  0.00  0.00    +0.000 C 
ATOM      6  N   UNL     1       6.554  -5.220  25.803  0.00  0.00    +0.000 NA
ATOM      7  C   UNL     1       6.767  -5.379  24.466  0.00  0.00    +0.000 C 
ATOM      8  C   UNL     1       7.808  -4.512  23.822  0.00  0.00    +0.000 C 
ENDROOT
BRANCH   6   9
ATOM      9  S   UNL     1       5.377  -5.888  26.586  0.00  0.00    +0.000 S 
ATOM     10  O   UNL     1       4.790  -6.910  25.533  0.00  0.00    +0.000 OA
ATOM     11  O   UNL     1       6.000  -6.782  27.609  0.00  0.00    +0.000 OA
BRANCH   9  12
ATOM     12  C   UNL     1       3.982  -5.152  27.165  0.00  0.00    +0.000 A 
ATOM     13  C   UNL     1       4.486  -4.019  28.060  0.00  0.00    +0.000 A 
ATOM     14  C   UNL     1       4.234  -2.607  27.888  0.00  0.00    +0.000 A 
ATOM     15  C   UNL     1       3.116  -2.343  26.866  0.00  0.00    +0.000 A 
ATOM     16 CL   UNL     1       1.991  -1.401  27.862  0.00  0.00    +0.000 Cl
ATOM     17  C   UNL     1       2.463  -3.298  25.991  0.00  0.00    +0.000 A 
ATOM     18  C   UNL     1       2.879  -4.816  26.329  0.00  0.00    +0.000 A 
ENDBRANCH   9  12
ENDBRANCH   6   9
BRANCH   1  19
ATOM     19  C   UNL     1       9.322  -1.107  23.765  0.00  0.00    +0.000 C 
BRANCH  19  28
ATOM     20  C   UNL     1       7.361   1.753  22.836  0.00  0.00    +0.000 C 
ATOM     21  C   UNL     1       7.342   1.390  21.556  0.00  0.00    +0.000 A 
ATOM     22  C   UNL     1       6.180   1.652  20.709  0.00  0.00    +0.000 A 
ATOM     23  C   UNL     1       6.096   1.421  19.206  0.00  0.00    +0.000 A 
ATOM     24  C   UNL     1       7.144   0.297  19.013  0.00  0.00    +0.000 A 
ATOM     25  C   UNL     1       8.076  -0.446  19.832  0.00  0.00    +0.000 A 
ATOM     26  C   UNL     1       7.428  -0.173  21.174  0.00  0.00    +0.000 A 
ATOM     27  C   UNL     1       7.518  -1.151  22.254  0.00  0.00    +0.000 C 
ATOM     28  N   UNL     1       8.113  -0.641  23.346  0.00  0.00    +0.000 N 
ATOM     29  C   UNL     1       7.721   0.584  23.663  0.00  0.00    +0.000 C 
BRANCH  20  34
ATOM     30  C   UNL     1      10.787   2.806  23.428  0.00  0.00    +0.000 C 
ATOM     31  C   UNL     1      10.698   4.128  23.614  0.00  0.00    +0.000 C 
ATOM     32  C   UNL     1       9.312   4.850  24.149  0.00  0.00    +0.000 C 
ATOM     33  C   UNL     1       8.282   3.929  23.656  0.00  0.00    +0.000 C 
ATOM     34  C   UNL     1       8.428   2.773  22.814  0.00  0.00    +0.000 C 
ATOM     35  C   UNL     1       9.759   2.196  22.356  0.00  0.00    +0.000 C 
ENDBRANCH  20  34
ENDBRANCH  19  28
ENDBRANCH   1  19
TORSDOF 5
ENDMDL
MODEL 5
REMARK VINA RESULT:      -8.7      3.378      7.332
REMARK  Name = 
REMARK  5 active torsions:
REMARK  status: ('A' for Active; 'I' for Inactive)
REMARK    1  A    between atoms: C_11  and  C_12
REMARK    2  A    between atoms: N_27  and  C_28
REMARK    3  A    between atoms: C_28  and  C_31
REMARK    4  A    between atoms: N_40  and  S_41
REMARK    5  A    between atoms: S_41  and  C_44
REMARK                            x       y       z     vdW  Elec       q    Type
REMARK                         _______ _______ _______ _____ _____    ______ ____
ROOT
ATOM      1  C   UNL     1       8.809  -4.669  25.044  0.00  0.00    +0.000 C 
ATOM      2  O   UNL     1       9.345  -5.688  24.473  0.00  0.00    +0.000 OA
ATOM      3  N   UNL     1       8.756  -3.574  24.244  0.00  0.00    +0.000 N 
ATOM      4  C   UNL     1       7.904  -3.722  23.033  0.00  0.00    +0.000 C 
ATOM      5  C   UNL     1       7.888  -2.482  22.186  0.00  0.00    +0.000 C 
ATOM      6  N   UNL     1       8.674  -1.383  22.583  0.00  0.00    +0.000 NA
ATOM      7  C   UNL     1       9.926  -1.736  22.991  0.00  0.00    +0.000 C 
ATOM      8  C   UNL     1      10.059  -2.976  23.825  0.00  0.00    +0.000 C 
ENDROOT
BRANCH   6   9
ATOM      9  S   UNL     1       8.333  -0.023  21.889  0.00  0.00    +0.000 S 
ATOM     10  O   UNL     1       8.458  -0.373  20.352  0.00  0.00    +0.000 OA
ATOM     11  O   UNL     1       6.864   0.187  22.066  0.00  0.00    +0.000 OA
BRANCH   9  12
ATOM     12  C   UNL     1       9.188   1.420  21.984  0.00  0.00    +0.000 A 
ATOM     13  C   UNL     1       8.120   2.509  21.884  0.00  0.00    +0.000 A 
ATOM     14  C   UNL     1       7.821   3.517  22.875  0.00  0.00    +0.000 A 
ATOM     15  C   UNL     1       8.913   3.605  23.954  0.00  0.00    +0.000 A 
ATOM     16 CL   UNL     1       9.367   5.313  23.809  0.00  0.00    +0.000 Cl
ATOM     17  C   UNL     1      10.040   2.714  24.155  0.00  0.00    +0.000 A 
ATOM     18  C   UNL     1      10.203   1.656  22.954  0.00  0.00    +0.000 A 
ENDBRANCH   9  12
ENDBRANCH   6   9
BRANCH   1  19
ATOM     19  C   UNL     1       8.490  -5.009  26.526  0.00  0.00    +0.000 C 
BRANCH  19  28
ATOM     20  C   UNL     1       5.637  -2.834  26.637  0.00  0.00    +0.000 C 
ATOM     21  C   UNL     1       5.055  -3.457  25.615  0.00  0.00    +0.000 A 
ATOM     22  C   UNL     1       3.603  -3.605  25.543  0.00  0.00    +0.000 A 
ATOM     23  C   UNL     1       2.817  -4.162  24.362  0.00  0.00    +0.000 A 
ATOM     24  C   UNL     1       3.873  -5.083  23.703  0.00  0.00    +0.000 A 
ATOM     25  C   UNL     1       5.257  -5.446  23.917  0.00  0.00    +0.000 A 
ATOM     26  C   UNL     1       5.355  -5.021  25.368  0.00  0.00    +0.000 A 
ATOM     27  C   UNL     1       6.258  -5.712  26.284  0.00  0.00    +0.000 C 
ATOM     28  N   UNL     1       7.166  -4.879  26.818  0.00  0.00    +0.000 N 
ATOM     29  C   UNL     1       6.678  -3.711  27.208  0.00  0.00    +0.000 C 
BRANCH  20  34
ATOM     30  C   UNL     1       7.613   0.214  26.629  0.00  0.00    +0.000 C 
ATOM     31  C   UNL     1       7.111   0.930  25.616  0.00  0.00    +0.000 C 
ATOM     32  C   UNL     1       5.561   0.729  25.080  0.00  0.00    +0.000 C 
ATOM     33  C   UNL     1       5.305  -0.676  25.416  0.00  0.00    +0.000 C 
ATOM     34  C   UNL     1       6.208  -1.659  25.950  0.00  0.00    +0.000 C 
ATOM     35  C   UNL     1       7.634  -1.375  26.398  0.00  0.00    +0.000 C 
ENDBRANCH  20  34
ENDBRANCH  19  28
ENDBRANCH   1  19
TORSDOF 5
ENDMDL
MODEL 6
REMARK VINA RESULT:      -8.6      3.265      8.327
REMARK  Name = 
REMARK  5 active torsions:
REMARK  status: ('A' for Active; 'I' for Inactive)
REMARK    1  A    between atoms: C_11  and  C_12
REMARK    2  A    between atoms: N_27  and  C_28
REMARK    3  A    between atoms: C_28  and  C_31
REMARK    4  A    between atoms: N_40  and  S_41
REMARK    5  A    between atoms: S_41  and  C_44
REMARK                            x       y       z     vdW  Elec       q    Type
REMARK                         _______ _______ _______ _____ _____    ______ ____
ROOT
ATOM      1  C   UNL     1       4.722  -4.068  23.197  0.00  0.00    +0.000 C 
ATOM      2  O   UNL     1       4.486  -4.975  22.318  0.00  0.00    +0.000 OA
ATOM      3  N   UNL     1       5.849  -3.355  22.942  0.00  0.00    +0.000 N 
ATOM      4  C   UNL     1       5.816  -2.556  21.688  0.00  0.00    +0.000 C 
ATOM      5  C   UNL     1       7.089  -1.794  21.458  0.00  0.00    +0.000 C 
ATOM      6  N   UNL     1       8.141  -1.943  22.382  0.00  0.00    +0.000 NA
ATOM      7  C   UNL     1       8.352  -3.237  22.754  0.00  0.00    +0.000 C 
ATOM      8  C   UNL     1       7.145  -4.097  22.987  0.00  0.00    +0.000 C 
ENDROOT
BRANCH   6   9
ATOM      9  S   UNL     1       9.270  -0.863  22.299  0.00  0.00    +0.000 S 
ATOM     10  O   UNL     1      10.587  -1.735  22.247  0.00  0.00    +0.000 OA
ATOM     11  O   UNL     1       9.199  -0.280  20.925  0.00  0.00    +0.000 OA
BRANCH   9  12
ATOM     12  C   UNL     1       9.669   0.294  23.451  0.00  0.00    +0.000 A 
ATOM     13  C   UNL     1       9.616   1.623  22.698  0.00  0.00    +0.000 A 
ATOM     14  C   UNL     1       8.755   2.746  22.991  0.00  0.00    +0.000 A 
ATOM     15  C   UNL     1       8.084   2.612  24.368  0.00  0.00    +0.000 A 
ATOM     16 CL   UNL     1       8.630   4.115  25.136  0.00  0.00    +0.000 Cl
ATOM     17  C   UNL     1       8.092   1.465  25.256  0.00  0.00    +0.000 A 
ATOM     18  C   UNL     1       9.101   0.315  24.756  0.00  0.00    +0.000 A 
ENDBRANCH   9  12
ENDBRANCH   6   9
BRANCH   1  19
ATOM     19  C   UNL     1       3.672  -4.162  24.339  0.00  0.00    +0.000 C 
BRANCH  19  28
ATOM     20  C   UNL     1       5.673  -6.080  26.619  0.00  0.00    +0.000 C 
ATOM     21  C   UNL     1       4.823  -5.874  27.622  0.00  0.00    +0.000 A 
ATOM     22  C   UNL     1       4.589  -6.894  28.641  0.00  0.00    +0.000 A 
ATOM     23  C   UNL     1       3.760  -6.721  29.908  0.00  0.00    +0.000 A 
ATOM     24  C   UNL     1       2.779  -5.604  29.478  0.00  0.00    +0.000 A 
ATOM     25  C   UNL     1       2.540  -4.783  28.312  0.00  0.00    +0.000 A 
ATOM     26  C   UNL     1       3.259  -5.653  27.302  0.00  0.00    +0.000 A 
ATOM     27  C   UNL     1       2.820  -5.693  25.910  0.00  0.00    +0.000 C 
ATOM     28  N   UNL     1       3.791  -5.308  25.065  0.00  0.00    +0.000 N 
ATOM     29  C   UNL     1       4.987  -5.804  25.341  0.00  0.00    +0.000 C 
BRANCH  20  34
ATOM     30  C   UNL     1       7.064  -2.737  26.334  0.00  0.00    +0.000 C 
ATOM     31  C   UNL     1       8.376  -2.906  26.539  0.00  0.00    +0.000 C 
ATOM     32  C   UNL     1       9.134  -4.345  26.246  0.00  0.00    +0.000 C 
ATOM     33  C   UNL     1       8.047  -5.308  26.458  0.00  0.00    +0.000 C 
ATOM     34  C   UNL     1       6.708  -5.074  26.928  0.00  0.00    +0.000 C 
ATOM     35  C   UNL     1       6.108  -3.701  27.191  0.00  0.00    +0.000 C 
ENDBRANCH  20  34
ENDBRANCH  19  28
ENDBRANCH   1  19
TORSDOF 5
ENDMDL
MODEL 7
REMARK VINA RESULT:      -8.4      2.159      2.916
REMARK  Name = 
REMARK  5 active torsions:
REMARK  status: ('A' for Active; 'I' for Inactive)
REMARK    1  A    between atoms: C_11  and  C_12
REMARK    2  A    between atoms: N_27  and  C_28
REMARK    3  A    between atoms: C_28  and  C_31
REMARK    4  A    between atoms: N_40  and  S_41
REMARK    5  A    between atoms: S_41  and  C_44
REMARK                            x       y       z     vdW  Elec       q    Type
REMARK                         _______ _______ _______ _____ _____    ______ ____
ROOT
ATOM      1  C   UNL     1       9.441  -2.701  23.905  0.00  0.00    +0.000 C 
ATOM      2  O   UNL     1      10.346  -3.566  24.194  0.00  0.00    +0.000 OA
ATOM      3  N   UNL     1       8.219  -3.018  24.404  0.00  0.00    +0.000 N 
ATOM      4  C   UNL     1       8.137  -3.053  25.889  0.00  0.00    +0.000 C 
ATOM      5  C   UNL     1       6.765  -3.413  26.381  0.00  0.00    +0.000 C 
ATOM      6  N   UNL     1       5.764  -3.706  25.434  0.00  0.00    +0.000 NA
ATOM      7  C   UNL     1       6.198  -4.512  24.424  0.00  0.00    +0.000 C 
ATOM      8  C   UNL     1       7.570  -4.254  23.873  0.00  0.00    +0.000 C 
ENDROOT
BRANCH   6   9
ATOM      9  S   UNL     1       4.297  -3.703  25.980  0.00  0.00    +0.000 S 
ATOM     10  O   UNL     1       4.501  -3.501  27.534  0.00  0.00    +0.000 OA
ATOM     11  O   UNL     1       3.687  -2.408  25.550  0.00  0.00    +0.000 OA
BRANCH   9  12
ATOM     12  C   UNL     1       3.186  -4.963  25.940  0.00  0.00    +0.000 A 
ATOM     13  C   UNL     1       2.466  -4.800  24.601  0.00  0.00    +0.000 A 
ATOM     14  C   UNL     1       2.428  -5.759  23.521  0.00  0.00    +0.000 A 
ATOM     15  C   UNL     1       2.933  -7.143  23.962  0.00  0.00    +0.000 A 
ATOM     16 CL   UNL     1       1.523  -8.140  23.561  0.00  0.00    +0.000 Cl
ATOM     17  C   UNL     1       3.567  -7.502  25.216  0.00  0.00    +0.000 A 
ATOM     18  C   UNL     1       3.520  -6.302  26.288  0.00  0.00    +0.000 A 
ENDBRANCH   9  12
ENDBRANCH   6   9
BRANCH   1  19
ATOM     19  C   UNL     1      10.039  -1.611  22.972  0.00  0.00    +0.000 C 
BRANCH  19  28
ATOM     20  C   UNL     1       9.507   1.938  22.962  0.00  0.00    +0.000 C 
ATOM     21  C   UNL     1       8.645   1.866  23.973  0.00  0.00    +0.000 A 
ATOM     22  C   UNL     1       8.554   2.929  24.972  0.00  0.00    +0.000 A 
ATOM     23  C   UNL     1       7.514   3.029  26.081  0.00  0.00    +0.000 A 
ATOM     24  C   UNL     1       7.140   1.541  26.282  0.00  0.00    +0.000 A 
ATOM     25  C   UNL     1       7.490   0.264  25.699  0.00  0.00    +0.000 A 
ATOM     26  C   UNL     1       8.797   0.685  25.059  0.00  0.00    +0.000 A 
ATOM     27  C   UNL     1       9.888  -0.273  24.901  0.00  0.00    +0.000 C 
ATOM     28  N   UNL     1      10.239  -0.427  23.614  0.00  0.00    +0.000 N 
ATOM     29  C   UNL     1      10.313   0.702  22.926  0.00  0.00    +0.000 C 
BRANCH  20  34
ATOM     30  C   UNL     1       6.178   2.387  21.581  0.00  0.00    +0.000 C 
ATOM     31  C   UNL     1       6.226   1.767  20.396  0.00  0.00    +0.000 C 
ATOM     32  C   UNL     1       7.292   0.544  20.085  0.00  0.00    +0.000 C 
ATOM     33  C   UNL     1       8.404   0.877  20.984  0.00  0.00    +0.000 C 
ATOM     34  C   UNL     1       8.578   2.034  21.819  0.00  0.00    +0.000 C 
ATOM     35  C   UNL     1       7.535   3.123  22.023  0.00  0.00    +0.000 C 
ENDBRANCH  20  34
ENDBRANCH  19  28
ENDBRANCH   1  19
TORSDOF 5
ENDMDL
MODEL 8
REMARK VINA RESULT:      -8.4      2.044      4.047
REMARK  Name = 
REMARK  5 active torsions:
REMARK  status: ('A' for Active; 'I' for Inactive)
REMARK    1  A    between atoms: C_11  and  C_12
REMARK    2  A    between atoms: N_27  and  C_28
REMARK    3  A    between atoms: C_28  and  C_31
REMARK    4  A    between atoms: N_40  and  S_41
REMARK    5  A    between atoms: S_41  and  C_44
REMARK                            x       y       z     vdW  Elec       q    Type
REMARK                         _______ _______ _______ _____ _____    ______ ____
ROOT
ATOM      1  C   UNL     1       8.248  -3.145  23.554  0.00  0.00    +0.000 C 
ATOM      2  O   UNL     1       9.366  -3.695  23.867  0.00  0.00    +0.000 OA
ATOM      3  N   UNL     1       7.182  -3.972  23.704  0.00  0.00    +0.000 N 
ATOM      4  C   UNL     1       6.920  -4.410  25.102  0.00  0.00    +0.000 C 
ATOM      5  C   UNL     1       5.735  -5.326  25.205  0.00  0.00    +0.000 C 
ATOM      6  N   UNL     1       5.058  -5.690  24.024  0.00  0.00    +0.000 NA
ATOM      7  C   UNL     1       5.898  -6.015  23.001  0.00  0.00    +0.000 C 
ATOM      8  C   UNL     1       7.129  -5.176  22.823  0.00  0.00    +0.000 C 
ENDROOT
BRANCH   6   9
ATOM      9  S   UNL     1       3.641  -6.322  24.227  0.00  0.00    +0.000 S 
ATOM     10  O   UNL     1       2.959  -6.111  22.817  0.00  0.00    +0.000 OA
ATOM     11  O   UNL     1       3.841  -7.802  24.284  0.00  0.00    +0.000 OA
BRANCH   9  12
ATOM     12  C   UNL     1       2.431  -5.812  25.275  0.00  0.00    +0.000 A 
ATOM     13  C   UNL     1       2.550  -6.741  26.483  0.00  0.00    +0.000 A 
ATOM     14  C   UNL     1       2.827  -6.352  27.847  0.00  0.00    +0.000 A 
ATOM     15  C   UNL     1       2.683  -4.835  28.052  0.00  0.00    +0.000 A 
ATOM     16 CL   UNL     1       1.472  -4.802  29.347  0.00  0.00    +0.000 Cl
ATOM     17  C   UNL     1       2.487  -3.813  27.041  0.00  0.00    +0.000 A 
ATOM     18  C   UNL     1       2.204  -4.442  25.586  0.00  0.00    +0.000 A 
ENDBRANCH   9  12
ENDBRANCH   6   9
BRANCH   1  19
ATOM     19  C   UNL     1       8.507  -1.717  22.996  0.00  0.00    +0.000 C 
BRANCH  19  28
ATOM     20  C   UNL     1       6.834   1.389  22.340  0.00  0.00    +0.000 C 
ATOM     21  C   UNL     1       6.860   1.187  21.025  0.00  0.00    +0.000 A 
ATOM     22  C   UNL     1       5.772   1.647  20.164  0.00  0.00    +0.000 A 
ATOM     23  C   UNL     1       5.757   1.607  18.641  0.00  0.00    +0.000 A 
ATOM     24  C   UNL     1       6.722   0.429  18.359  0.00  0.00    +0.000 A 
ATOM     25  C   UNL     1       7.544  -0.484  19.123  0.00  0.00    +0.000 A 
ATOM     26  C   UNL     1       6.844  -0.321  20.456  0.00  0.00    +0.000 A 
ATOM     27  C   UNL     1       6.795  -1.426  21.409  0.00  0.00    +0.000 C 
ATOM     28  N   UNL     1       7.364  -1.103  22.582  0.00  0.00    +0.000 N 
ATOM     29  C   UNL     1       7.053   0.103  23.030  0.00  0.00    +0.000 C 
BRANCH  20  34
ATOM     30  C   UNL     1      10.355   2.035  22.954  0.00  0.00    +0.000 C 
ATOM     31  C   UNL     1      10.381   3.276  23.454  0.00  0.00    +0.000 C 
ATOM     32  C   UNL     1       9.082   3.939  24.231  0.00  0.00    +0.000 C 
ATOM     33  C   UNL     1       7.961   3.236  23.597  0.00  0.00    +0.000 C 
ATOM     34  C   UNL     1       7.977   2.310  22.496  0.00  0.00    +0.000 C 
ATOM     35  C   UNL     1       9.236   1.774  21.832  0.00  0.00    +0.000 C 
ENDBRANCH  20  34
ENDBRANCH  19  28
ENDBRANCH   1  19
TORSDOF 5
ENDMDL
MODEL 9
REMARK VINA RESULT:      -8.3      3.353      7.826
REMARK  Name = 
REMARK  5 active torsions:
REMARK  status: ('A' for Active; 'I' for Inactive)
REMARK    1  A    between atoms: C_11  and  C_12
REMARK    2  A    between atoms: N_27  and  C_28
REMARK    3  A    between atoms: C_28  and  C_31
REMARK    4  A    between atoms: N_40  and  S_41
REMARK    5  A    between atoms: S_41  and  C_44
REMARK                            x       y       z     vdW  Elec       q    Type
REMARK                         _______ _______ _______ _____ _____    ______ ____
ROOT
ATOM      1  C   UNL     1       5.766  -2.558  26.835  0.00  0.00    +0.000 C 
ATOM      2  O   UNL     1       5.195  -1.948  27.812  0.00  0.00    +0.000 OA
ATOM      3  N   UNL     1       6.572  -1.751  26.098  0.00  0.00    +0.000 N 
ATOM      4  C   UNL     1       7.742  -1.195  26.829  0.00  0.00    +0.000 C 
ATOM      5  C   UNL     1       8.592  -0.308  25.966  0.00  0.00    +0.000 C 
ATOM      6  N   UNL     1       8.189  -0.075  24.636  0.00  0.00    +0.000 NA
ATOM      7  C   UNL     1       6.856   0.179  24.514  0.00  0.00    +0.000 C 
ATOM      8  C   UNL     1       5.916  -0.636  25.353  0.00  0.00    +0.000 C 
ENDROOT
BRANCH   6   9
ATOM      9  S   UNL     1       9.284   0.531  23.697  0.00  0.00    +0.000 S 
ATOM     10  O   UNL     1       9.784   1.791  24.509  0.00  0.00    +0.000 OA
ATOM     11  O   UNL     1      10.456  -0.394  23.757  0.00  0.00    +0.000 OA
BRANCH   9  12
ATOM     12  C   UNL     1       9.073   1.175  22.159  0.00  0.00    +0.000 A 
ATOM     13  C   UNL     1       9.197  -0.024  21.218  0.00  0.00    +0.000 A 
ATOM     14  C   UNL     1       8.187  -0.516  20.310  0.00  0.00    +0.000 A 
ATOM     15  C   UNL     1       7.036   0.488  20.132  0.00  0.00    +0.000 A 
ATOM     16 CL   UNL     1       7.079   0.713  18.373  0.00  0.00    +0.000 Cl
ATOM     17  C   UNL     1       6.798   1.712  20.872  0.00  0.00    +0.000 A 
ATOM     18  C   UNL     1       8.029   2.089  21.838  0.00  0.00    +0.000 A 
ENDBRANCH   9  12
ENDBRANCH   6   9
BRANCH   1  19
ATOM     19  C   UNL     1       5.251  -4.022  26.761  0.00  0.00    +0.000 C 
BRANCH  19  28
ATOM     20  C   UNL     1       3.644  -4.195  23.556  0.00  0.00    +0.000 C 
ATOM     21  C   UNL     1       3.331  -5.478  23.723  0.00  0.00    +0.000 A 
ATOM     22  C   UNL     1       2.091  -6.033  23.185  0.00  0.00    +0.000 A 
ATOM     23  C   UNL     1       1.696  -7.505  23.182  0.00  0.00    +0.000 A 
ATOM     24  C   UNL     1       2.493  -8.035  24.398  0.00  0.00    +0.000 A 
ATOM     25  C   UNL     1       3.427  -7.514  25.373  0.00  0.00    +0.000 A 
ATOM     26  C   UNL     1       3.090  -6.047  25.211  0.00  0.00    +0.000 A 
ATOM     27  C   UNL     1       3.217  -5.127  26.339  0.00  0.00    +0.000 C 
ATOM     28  N   UNL     1       4.078  -4.129  26.079  0.00  0.00    +0.000 N 
ATOM     29  C   UNL     1       3.956  -3.600  24.871  0.00  0.00    +0.000 C 
BRANCH  20  34
ATOM     30  C   UNL     1       6.742  -5.838  22.608  0.00  0.00    +0.000 C 
ATOM     31  C   UNL     1       7.455  -4.878  22.008  0.00  0.00    +0.000 C 
ATOM     32  C   UNL     1       7.219  -3.275  22.332  0.00  0.00    +0.000 C 
ATOM     33  C   UNL     1       5.805  -3.250  22.721  0.00  0.00    +0.000 C 
ATOM     34  C   UNL     1       4.840  -4.316  22.699  0.00  0.00    +0.000 C 
ATOM     35  C   UNL     1       5.157  -5.766  22.364  0.00  0.00    +0.000 C 
ENDBRANCH  20  34
ENDBRANCH  19  28
ENDBRANCH   1  19
TORSDOF 5
ENDMDL
