MODEL 1
REMARK VINA RESULT:      -8.8      0.000      0.000
REMARK  Name = 
REMARK  6 active torsions:
REMARK  status: ('A' for Active; 'I' for Inactive)
REMARK    1  A    between atoms: N_5  and  S_7
REMARK    2  A    between atoms: S_7  and  C_10
REMARK    3  A    between atoms: C_15  and  C_16
REMARK    4  A    between atoms: N_18  and  C_20
REMARK    5  A    between atoms: C_20  and  C_22
REMARK    6  A    between atoms: C_20  and  C_39
REMARK                            x       y       z     vdW  Elec       q    Type
REMARK                         _______ _______ _______ _____ _____    ______ ____
ROOT
ATOM      1  C   UNL     1       8.434   2.127  24.192  0.00  0.00    +0.000 A 
ATOM      2  C   UNL     1       9.476   2.034  23.128  0.00  0.00    +0.000 A 
ATOM      3  C   UNL     1      10.430   0.892  22.919  0.00  0.00    +0.000 A 
ATOM      4  C   UNL     1      10.150  -0.251  23.918  0.00  0.00    +0.000 A 
ATOM      5  C   UNL     1       9.565  -0.045  25.224  0.00  0.00    +0.000 A 
ATOM      6  C   UNL     1       8.606   1.207  25.294  0.00  0.00    +0.000 A 
ENDROOT
BRANCH   4   7
ATOM      7  C   UNL     1       9.763  -1.465  23.117  0.00  0.00    +0.000 C 
ATOM      8  O   UNL     1      10.415  -1.743  22.159  0.00  0.00    +0.000 OA
ATOM      9  N   UNL     1       9.029  -2.267  23.859  0.00  0.00    +0.000 N 
ATOM     10  H   UNL     1       9.638  -2.908  24.258  0.00  0.00    +0.000 HD
BRANCH   9  11
ATOM     11  C   UNL     1       7.695  -2.853  23.356  0.00  0.00    +0.000 C 
ATOM     12  C   UNL     1       7.474  -2.263  22.071  0.00  0.00    +0.000 C 
BRANCH  11  13
ATOM     13  C   UNL     1       7.742  -4.214  23.759  0.00  0.00    +0.000 A 
ATOM     14  C   UNL     1       8.622  -4.484  24.807  0.00  0.00    +0.000 A 
ATOM     15  C   UNL     1       8.346  -4.736  26.391  0.00  0.00    +0.000 A 
ATOM     16  C   UNL     1       6.891  -5.183  26.205  0.00  0.00    +0.000 A 
ATOM     17  C   UNL     1       5.981  -5.572  25.417  0.00  0.00    +0.000 A 
ATOM     18  C   UNL     1       5.278  -4.377  24.956  0.00  0.00    +0.000 A 
ATOM     19  C   UNL     1       4.445  -3.935  23.967  0.00  0.00    +0.000 A 
ATOM     20  C   UNL     1       4.931  -4.879  22.857  0.00  0.00    +0.000 A 
ATOM     21  C   UNL     1       6.002  -5.787  23.050  0.00  0.00    +0.000 A 
ATOM     22  C   UNL     1       6.832  -5.502  24.040  0.00  0.00    +0.000 A 
ENDBRANCH  11  13
ENDBRANCH   9  11
ENDBRANCH   4   7
BRANCH   1  23
ATOM     23  S   UNL     1       6.951   1.877  23.193  0.00  0.00    +0.000 S 
ATOM     24  O   UNL     1       6.542   0.544  23.407  0.00  0.00    +0.000 OA
ATOM     25  O   UNL     1       6.022   2.915  23.550  0.00  0.00    +0.000 OA
BRANCH  23  29
ATOM     26  C   UNL     1       5.248   1.375  19.138  0.00  0.00    +0.000 A 
ATOM     27  N   UNL     1       5.652   1.950  20.442  0.00  0.00    +0.000 NA
ATOM     28  C   UNL     1       6.722   1.347  20.822  0.00  0.00    +0.000 A 
ATOM     29  N   UNL     1       7.365   2.108  21.637  0.00  0.00    +0.000 N 
ATOM     30  H   UNL     1       7.259   3.053  21.420  0.00  0.00    +0.000 HD
ATOM     31  C   UNL     1       7.744   0.614  20.150  0.00  0.00    +0.000 A 
ATOM     32  C   UNL     1       7.538   0.014  18.899  0.00  0.00    +0.000 A 
ATOM     33  C   UNL     1       6.042   0.271  18.712  0.00  0.00    +0.000 A 
ENDBRANCH  23  29
ENDBRANCH   1  23
TORSDOF 5
ENDMDL
MODEL 2
REMARK VINA RESULT:      -8.5      1.605      2.636
REMARK  Name = 
REMARK  6 active torsions:
REMARK  status: ('A' for Active; 'I' for Inactive)
REMARK    1  A    between atoms: N_5  and  S_7
REMARK    2  A    between atoms: S_7  and  C_10
REMARK    3  A    between atoms: C_15  and  C_16
REMARK    4  A    between atoms: N_18  and  C_20
REMARK    5  A    between atoms: C_20  and  C_22
REMARK    6  A    between atoms: C_20  and  C_39
REMARK                            x       y       z     vdW  Elec       q    Type
REMARK                         _______ _______ _______ _____ _____    ______ ____
ROOT
ATOM      1  C   UNL     1       8.390   1.642  23.926  0.00  0.00    +0.000 A 
ATOM      2  C   UNL     1       9.745   1.275  24.433  0.00  0.00    +0.000 A 
ATOM      3  C   UNL     1      10.152  -0.060  24.987  0.00  0.00    +0.000 A 
ATOM      4  C   UNL     1       8.989  -1.072  24.900  0.00  0.00    +0.000 A 
ATOM      5  C   UNL     1       7.595  -0.691  24.921  0.00  0.00    +0.000 A 
ATOM      6  C   UNL     1       7.327   0.748  24.329  0.00  0.00    +0.000 A 
ENDROOT
BRANCH   4   7
ATOM      7  C   UNL     1       9.436  -2.196  24.003  0.00  0.00    +0.000 C 
ATOM      8  O   UNL     1       9.993  -1.921  22.987  0.00  0.00    +0.000 OA
ATOM      9  N   UNL     1       9.521  -3.308  24.702  0.00  0.00    +0.000 N 
ATOM     10  H   UNL     1      10.443  -3.377  24.999  0.00  0.00    +0.000 HD
BRANCH   9  11
ATOM     11  C   UNL     1       8.886  -4.627  24.219  0.00  0.00    +0.000 C 
ATOM     12  C   UNL     1       9.163  -5.586  25.245  0.00  0.00    +0.000 C 
BRANCH  11  13
ATOM     13  C   UNL     1       7.659  -4.225  23.630  0.00  0.00    +0.000 A 
ATOM     14  C   UNL     1       7.452  -4.692  22.331  0.00  0.00    +0.000 A 
ATOM     15  C   UNL     1       6.533  -5.912  21.772  0.00  0.00    +0.000 A 
ATOM     16  C   UNL     1       5.576  -5.920  22.969  0.00  0.00    +0.000 A 
ATOM     17  C   UNL     1       5.139  -5.325  23.997  0.00  0.00    +0.000 A 
ATOM     18  C   UNL     1       5.955  -5.770  25.125  0.00  0.00    +0.000 A 
ATOM     19  C   UNL     1       6.299  -5.430  26.403  0.00  0.00    +0.000 A 
ATOM     20  C   UNL     1       6.172  -3.906  26.246  0.00  0.00    +0.000 A 
ATOM     21  C   UNL     1       5.857  -3.297  25.007  0.00  0.00    +0.000 A 
ATOM     22  C   UNL     1       6.098  -4.021  23.926  0.00  0.00    +0.000 A 
ENDBRANCH  11  13
ENDBRANCH   9  11
ENDBRANCH   4   7
BRANCH   1  23
ATOM     23  S   UNL     1       8.730   1.698  22.154  0.00  0.00    +0.000 S 
ATOM     24  O   UNL     1       7.736   2.518  21.580  0.00  0.00    +0.000 OA
ATOM     25  O   UNL     1      10.098   2.118  22.000  0.00  0.00    +0.000 OA
BRANCH  23  29
ATOM     26  C   UNL     1       6.953  -0.515  18.758  0.00  0.00    +0.000 A 
ATOM     27  N   UNL     1       7.896   0.232  19.622  0.00  0.00    +0.000 NA
ATOM     28  C   UNL     1       7.586  -0.014  20.844  0.00  0.00    +0.000 A 
ATOM     29  N   UNL     1       8.621   0.179  21.586  0.00  0.00    +0.000 N 
ATOM     30  H   UNL     1       9.451  -0.046  21.126  0.00  0.00    +0.000 HD
ATOM     31  C   UNL     1       6.878  -1.063  21.501  0.00  0.00    +0.000 A 
ATOM     32  C   UNL     1       5.955  -1.879  20.831  0.00  0.00    +0.000 A 
ATOM     33  C   UNL     1       5.916  -1.190  19.467  0.00  0.00    +0.000 A 
ENDBRANCH  23  29
ENDBRANCH   1  23
TORSDOF 5
ENDMDL
MODEL 3
REMARK VINA RESULT:      -8.4      1.533      2.223
REMARK  Name = 
REMARK  6 active torsions:
REMARK  status: ('A' for Active; 'I' for Inactive)
REMARK    1  A    between atoms: N_5  and  S_7
REMARK    2  A    between atoms: S_7  and  C_10
REMARK    3  A    between atoms: C_15  and  C_16
REMARK    4  A    between atoms: N_18  and  C_20
REMARK    5  A    between atoms: C_20  and  C_22
REMARK    6  A    between atoms: C_20  and  C_39
REMARK                            x       y       z     vdW  Elec       q    Type
REMARK                         _______ _______ _______ _____ _____    ______ ____
ROOT
ATOM      1  C   UNL     1       8.757   1.264  24.013  0.00  0.00    +0.000 A 
ATOM      2  C   UNL     1       9.831   0.230  23.942  0.00  0.00    +0.000 A 
ATOM      3  C   UNL     1       9.652  -1.249  24.136  0.00  0.00    +0.000 A 
ATOM      4  C   UNL     1       8.164  -1.602  24.348  0.00  0.00    +0.000 A 
ATOM      5  C   UNL     1       7.200  -0.689  24.922  0.00  0.00    +0.000 A 
ATOM      6  C   UNL     1       7.537   0.830  24.656  0.00  0.00    +0.000 A 
ENDROOT
BRANCH   4   7
ATOM      7  C   UNL     1       7.748  -2.501  23.215  0.00  0.00    +0.000 C 
ATOM      8  O   UNL     1       7.590  -2.018  22.137  0.00  0.00    +0.000 OA
ATOM      9  N   UNL     1       8.051  -3.748  23.510  0.00  0.00    +0.000 N 
ATOM     10  H   UNL     1       8.926  -3.917  23.126  0.00  0.00    +0.000 HD
BRANCH   9  11
ATOM     11  C   UNL     1       7.032  -4.895  23.354  0.00  0.00    +0.000 C 
ATOM     12  C   UNL     1       7.326  -5.503  22.093  0.00  0.00    +0.000 C 
BRANCH  11  13
ATOM     13  C   UNL     1       6.940  -5.454  24.656  0.00  0.00    +0.000 A 
ATOM     14  C   UNL     1       8.091  -5.319  25.434  0.00  0.00    +0.000 A 
ATOM     15  C   UNL     1       8.445  -4.291  26.643  0.00  0.00    +0.000 A 
ATOM     16  C   UNL     1       6.984  -4.013  27.016  0.00  0.00    +0.000 A 
ATOM     17  C   UNL     1       5.769  -4.349  26.916  0.00  0.00    +0.000 A 
ATOM     18  C   UNL     1       5.221  -3.628  25.769  0.00  0.00    +0.000 A 
ATOM     19  C   UNL     1       4.174  -3.641  24.891  0.00  0.00    +0.000 A 
ATOM     20  C   UNL     1       3.937  -5.160  24.884  0.00  0.00    +0.000 A 
ATOM     21  C   UNL     1       4.762  -6.058  25.605  0.00  0.00    +0.000 A 
ATOM     22  C   UNL     1       5.968  -5.612  25.919  0.00  0.00    +0.000 A 
ENDBRANCH  11  13
ENDBRANCH   9  11
ENDBRANCH   4   7
BRANCH   1  23
ATOM     23  S   UNL     1       8.610   1.673  22.261  0.00  0.00    +0.000 S 
ATOM     24  O   UNL     1       8.369   3.061  22.191  0.00  0.00    +0.000 OA
ATOM     25  O   UNL     1       9.795   1.179  21.611  0.00  0.00    +0.000 OA
BRANCH  23  29
ATOM     26  C   UNL     1       7.156   0.035  18.415  0.00  0.00    +0.000 A 
ATOM     27  N   UNL     1       7.811   0.175  19.736  0.00  0.00    +0.000 NA
ATOM     28  C   UNL     1       7.147   1.043  20.412  0.00  0.00    +0.000 A 
ATOM     29  N   UNL     1       7.347   0.839  21.667  0.00  0.00    +0.000 N 
ATOM     30  H   UNL     1       7.470  -0.106  21.871  0.00  0.00    +0.000 HD
ATOM     31  C   UNL     1       5.816   1.549  20.348  0.00  0.00    +0.000 A 
ATOM     32  C   UNL     1       5.044   1.486  19.179  0.00  0.00    +0.000 A 
ATOM     33  C   UNL     1       6.078   0.942  18.194  0.00  0.00    +0.000 A 
ENDBRANCH  23  29
ENDBRANCH   1  23
TORSDOF 5
ENDMDL
MODEL 4
REMARK VINA RESULT:      -8.2      2.601      6.197
REMARK  Name = 
REMARK  6 active torsions:
REMARK  status: ('A' for Active; 'I' for Inactive)
REMARK    1  A    between atoms: N_5  and  S_7
REMARK    2  A    between atoms: S_7  and  C_10
REMARK    3  A    between atoms: C_15  and  C_16
REMARK    4  A    between atoms: N_18  and  C_20
REMARK    5  A    between atoms: C_20  and  C_22
REMARK    6  A    between atoms: C_20  and  C_39
REMARK                            x       y       z     vdW  Elec       q    Type
REMARK                         _______ _______ _______ _____ _____    ______ ____
ROOT
ATOM      1  C   UNL     1       6.894  -4.711  23.633  0.00  0.00    +0.000 A 
ATOM      2  C   UNL     1       5.839  -4.690  24.688  0.00  0.00    +0.000 A 
ATOM      3  C   UNL     1       5.676  -3.649  25.759  0.00  0.00    +0.000 A 
ATOM      4  C   UNL     1       6.716  -2.520  25.593  0.00  0.00    +0.000 A 
ATOM      5  C   UNL     1       8.011  -2.709  24.979  0.00  0.00    +0.000 A 
ATOM      6  C   UNL     1       8.030  -3.855  23.892  0.00  0.00    +0.000 A 
ENDROOT
BRANCH   4   7
ATOM      7  C   UNL     1       5.958  -1.243  25.343  0.00  0.00    +0.000 C 
ATOM      8  O   UNL     1       4.767  -1.283  25.336  0.00  0.00    +0.000 OA
ATOM      9  N   UNL     1       6.735  -0.213  25.605  0.00  0.00    +0.000 N 
ATOM     10  H   UNL     1       6.559   0.037  26.526  0.00  0.00    +0.000 HD
BRANCH   9  11
ATOM     11  C   UNL     1       6.890   0.965  24.623  0.00  0.00    +0.000 C 
ATOM     12  C   UNL     1       5.602   1.587  24.559  0.00  0.00    +0.000 C 
BRANCH  11  13
ATOM     13  C   UNL     1       8.168   1.504  24.927  0.00  0.00    +0.000 A 
ATOM     14  C   UNL     1       9.184   0.557  25.063  0.00  0.00    +0.000 A 
ATOM     15  C   UNL     1      10.371   0.114  24.042  0.00  0.00    +0.000 A 
ATOM     16  C   UNL     1      10.368   1.430  23.254  0.00  0.00    +0.000 A 
ATOM     17  C   UNL     1      10.007   2.640  23.189  0.00  0.00    +0.000 A 
ATOM     18  C   UNL     1       8.717   2.663  22.502  0.00  0.00    +0.000 A 
ATOM     19  C   UNL     1       7.620   3.452  22.302  0.00  0.00    +0.000 A 
ATOM     20  C   UNL     1       7.659   4.197  23.645  0.00  0.00    +0.000 A 
ATOM     21  C   UNL     1       8.614   3.897  24.649  0.00  0.00    +0.000 A 
ATOM     22  C   UNL     1       9.173   2.700  24.578  0.00  0.00    +0.000 A 
ENDBRANCH  11  13
ENDBRANCH   9  11
ENDBRANCH   4   7
BRANCH   1  23
ATOM     23  S   UNL     1       5.898  -4.269  22.194  0.00  0.00    +0.000 S 
ATOM     24  O   UNL     1       6.600  -4.731  21.061  0.00  0.00    +0.000 OA
ATOM     25  O   UNL     1       4.580  -4.803  22.413  0.00  0.00    +0.000 OA
BRANCH  23  29
ATOM     26  C   UNL     1       5.880  -0.931  19.287  0.00  0.00    +0.000 A 
ATOM     27  N   UNL     1       5.449  -2.019  20.196  0.00  0.00    +0.000 NA
ATOM     28  C   UNL     1       6.319  -2.110  21.137  0.00  0.00    +0.000 A 
ATOM     29  N   UNL     1       5.767  -2.649  22.168  0.00  0.00    +0.000 N 
ATOM     30  H   UNL     1       4.826  -2.407  22.249  0.00  0.00    +0.000 HD
ATOM     31  C   UNL     1       7.290  -1.222  21.686  0.00  0.00    +0.000 A 
ATOM     32  C   UNL     1       7.799  -0.130  20.968  0.00  0.00    +0.000 A 
ATOM     33  C   UNL     1       7.152  -0.370  19.604  0.00  0.00    +0.000 A 
ENDBRANCH  23  29
ENDBRANCH   1  23
TORSDOF 5
ENDMDL
MODEL 5
REMARK VINA RESULT:      -8.0      3.329      6.971
REMARK  Name = 
REMARK  6 active torsions:
REMARK  status: ('A' for Active; 'I' for Inactive)
REMARK    1  A    between atoms: N_5  and  S_7
REMARK    2  A    between atoms: S_7  and  C_10
REMARK    3  A    between atoms: C_15  and  C_16
REMARK    4  A    between atoms: N_18  and  C_20
REMARK    5  A    between atoms: C_20  and  C_22
REMARK    6  A    between atoms: C_20  and  C_39
REMARK                            x       y       z     vdW  Elec       q    Type
REMARK                         _______ _______ _______ _____ _____    ______ ____
ROOT
ATOM      1  C   UNL     1       7.765  -5.238  25.946  0.00  0.00    +0.000 A 
ATOM      2  C   UNL     1       8.343  -4.056  26.649  0.00  0.00    +0.000 A 
ATOM      3  C   UNL     1       8.499  -2.675  26.080  0.00  0.00    +0.000 A 
ATOM      4  C   UNL     1       7.901  -2.593  24.659  0.00  0.00    +0.000 A 
ATOM      5  C   UNL     1       7.813  -3.723  23.763  0.00  0.00    +0.000 A 
ATOM      6  C   UNL     1       7.678  -5.108  24.509  0.00  0.00    +0.000 A 
ENDROOT
BRANCH   4   7
ATOM      7  C   UNL     1       6.778  -1.591  24.701  0.00  0.00    +0.000 C 
ATOM      8  O   UNL     1       5.667  -1.993  24.857  0.00  0.00    +0.000 OA
ATOM      9  N   UNL     1       7.260  -0.402  24.992  0.00  0.00    +0.000 N 
ATOM     10  H   UNL     1       7.186  -0.303  25.955  0.00  0.00    +0.000 HD
BRANCH   9  11
ATOM     11  C   UNL     1       6.896   0.852  24.172  0.00  0.00    +0.000 C 
ATOM     12  C   UNL     1       5.799   1.459  24.863  0.00  0.00    +0.000 C 
BRANCH  11  13
ATOM     13  C   UNL     1       8.152   1.382  23.775  0.00  0.00    +0.000 A 
ATOM     14  C   UNL     1       9.167   1.255  24.724  0.00  0.00    +0.000 A 
ATOM     15  C   UNL     1      10.409   0.209  24.820  0.00  0.00    +0.000 A 
ATOM     16  C   UNL     1      10.438  -0.105  23.320  0.00  0.00    +0.000 A 
ATOM     17  C   UNL     1      10.070   0.209  22.151  0.00  0.00    +0.000 A 
ATOM     18  C   UNL     1       8.819  -0.500  21.893  0.00  0.00    +0.000 A 
ATOM     19  C   UNL     1       7.727  -0.490  21.072  0.00  0.00    +0.000 A 
ATOM     20  C   UNL     1       7.690   1.023  20.806  0.00  0.00    +0.000 A 
ATOM     21  C   UNL     1       8.592   1.923  21.426  0.00  0.00    +0.000 A 
ATOM     22  C   UNL     1       9.164   1.495  22.539  0.00  0.00    +0.000 A 
ENDBRANCH  11  13
ENDBRANCH   9  11
ENDBRANCH   4   7
BRANCH   1  23
ATOM     23  S   UNL     1       6.186  -5.369  26.813  0.00  0.00    +0.000 S 
ATOM     24  O   UNL     1       5.834  -6.735  26.804  0.00  0.00    +0.000 OA
ATOM     25  O   UNL     1       6.357  -4.742  28.097  0.00  0.00    +0.000 OA
BRANCH  23  29
ATOM     26  C   UNL     1       1.840  -5.290  25.980  0.00  0.00    +0.000 A 
ATOM     27  N   UNL     1       3.170  -5.042  26.584  0.00  0.00    +0.000 NA
ATOM     28  C   UNL     1       4.049  -5.157  25.654  0.00  0.00    +0.000 A 
ATOM     29  N   UNL     1       5.099  -4.489  25.984  0.00  0.00    +0.000 N 
ATOM     30  H   UNL     1       4.879  -3.691  26.500  0.00  0.00    +0.000 HD
ATOM     31  C   UNL     1       4.013  -5.068  24.231  0.00  0.00    +0.000 A 
ATOM     32  C   UNL     1       2.833  -5.260  23.497  0.00  0.00    +0.000 A 
ATOM     33  C   UNL     1       1.880  -5.691  24.613  0.00  0.00    +0.000 A 
ENDBRANCH  23  29
ENDBRANCH   1  23
TORSDOF 5
ENDMDL
MODEL 6
REMARK VINA RESULT:      -8.0      2.313      3.342
REMARK  Name = 
REMARK  6 active torsions:
REMARK  status: ('A' for Active; 'I' for Inactive)
REMARK    1  A    between atoms: N_5  and  S_7
REMARK    2  A    between atoms: S_7  and  C_10
REMARK    3  A    between atoms: C_15  and  C_16
REMARK    4  A    between atoms: N_18  and  C_20
REMARK    5  A    between atoms: C_20  and  C_22
REMARK    6  A    between atoms: C_20  and  C_39
REMARK                            x       y       z     vdW  Elec       q    Type
REMARK                         _______ _______ _______ _____ _____    ______ ____
ROOT
ATOM      1  C   UNL     1      10.132   0.984  23.528  0.00  0.00    +0.000 A 
ATOM      2  C   UNL     1      10.079   0.567  22.096  0.00  0.00    +0.000 A 
ATOM      3  C   UNL     1       9.667  -0.783  21.581  0.00  0.00    +0.000 A 
ATOM      4  C   UNL     1       9.214  -1.700  22.737  0.00  0.00    +0.000 A 
ATOM      5  C   UNL     1       9.700  -1.576  24.093  0.00  0.00    +0.000 A 
ATOM      6  C   UNL     1      10.118  -0.104  24.479  0.00  0.00    +0.000 A 
ENDROOT
BRANCH   4   7
ATOM      7  C   UNL     1       7.769  -2.046  22.498  0.00  0.00    +0.000 C 
ATOM      8  O   UNL     1       7.139  -1.360  21.754  0.00  0.00    +0.000 OA
ATOM      9  N   UNL     1       7.560  -3.306  22.815  0.00  0.00    +0.000 N 
ATOM     10  H   UNL     1       7.663  -3.817  21.997  0.00  0.00    +0.000 HD
BRANCH   9  11
ATOM     11  C   UNL     1       6.385  -3.738  23.715  0.00  0.00    +0.000 C 
ATOM     12  C   UNL     1       5.203  -3.516  22.940  0.00  0.00    +0.000 C 
BRANCH  11  13
ATOM     13  C   UNL     1       6.862  -4.905  24.369  0.00  0.00    +0.000 A 
ATOM     14  C   UNL     1       8.232  -5.132  24.234  0.00  0.00    +0.000 A 
ATOM     15  C   UNL     1       9.461  -4.879  25.270  0.00  0.00    +0.000 A 
ATOM     16  C   UNL     1       8.588  -4.929  26.530  0.00  0.00    +0.000 A 
ATOM     17  C   UNL     1       7.478  -5.235  27.054  0.00  0.00    +0.000 A 
ATOM     18  C   UNL     1       6.625  -4.051  26.966  0.00  0.00    +0.000 A 
ATOM     19  C   UNL     1       5.317  -3.662  27.026  0.00  0.00    +0.000 A 
ATOM     20  C   UNL     1       4.696  -4.959  26.481  0.00  0.00    +0.000 A 
ATOM     21  C   UNL     1       5.487  -6.050  26.043  0.00  0.00    +0.000 A 
ATOM     22  C   UNL     1       6.736  -5.766  25.714  0.00  0.00    +0.000 A 
ENDBRANCH  11  13
ENDBRANCH   9  11
ENDBRANCH   4   7
BRANCH   1  23
ATOM     23  S   UNL     1       8.700   2.083  23.579  0.00  0.00    +0.000 S 
ATOM     24  O   UNL     1       8.796   2.812  24.783  0.00  0.00    +0.000 OA
ATOM     25  O   UNL     1       8.701   2.835  22.353  0.00  0.00    +0.000 OA
BRANCH  23  29
ATOM     26  C   UNL     1       4.546   2.128  25.107  0.00  0.00    +0.000 A 
ATOM     27  N   UNL     1       5.736   2.284  24.240  0.00  0.00    +0.000 NA
ATOM     28  C   UNL     1       6.585   1.379  24.573  0.00  0.00    +0.000 A 
ATOM     29  N   UNL     1       7.368   1.150  23.576  0.00  0.00    +0.000 N 
ATOM     30  H   UNL     1       6.913   1.253  22.720  0.00  0.00    +0.000 HD
ATOM     31  C   UNL     1       6.490   0.120  25.237  0.00  0.00    +0.000 A 
ATOM     32  C   UNL     1       5.420  -0.201  26.085  0.00  0.00    +0.000 A 
ATOM     33  C   UNL     1       4.684   1.138  26.123  0.00  0.00    +0.000 A 
ENDBRANCH  23  29
ENDBRANCH   1  23
TORSDOF 5
ENDMDL
MODEL 7
REMARK VINA RESULT:      -7.8      1.862      3.173
REMARK  Name = 
REMARK  6 active torsions:
REMARK  status: ('A' for Active; 'I' for Inactive)
REMARK    1  A    between atoms: N_5  and  S_7
REMARK    2  A    between atoms: S_7  and  C_10
REMARK    3  A    between atoms: C_15  and  C_16
REMARK    4  A    between atoms: N_18  and  C_20
REMARK    5  A    between atoms: C_20  and  C_22
REMARK    6  A    between atoms: C_20  and  C_39
REMARK                            x       y       z     vdW  Elec       q    Type
REMARK                         _______ _______ _______ _____ _____    ______ ____
ROOT
ATOM      1  C   UNL     1      10.419   0.305  23.561  0.00  0.00    +0.000 A 
ATOM      2  C   UNL     1      10.401  -1.147  23.218  0.00  0.00    +0.000 A 
ATOM      3  C   UNL     1       9.729  -2.236  24.005  0.00  0.00    +0.000 A 
ATOM      4  C   UNL     1       8.965  -1.652  25.213  0.00  0.00    +0.000 A 
ATOM      5  C   UNL     1       9.339  -0.424  25.878  0.00  0.00    +0.000 A 
ATOM      6  C   UNL     1      10.058   0.611  24.927  0.00  0.00    +0.000 A 
ENDROOT
BRANCH   4   7
ATOM      7  C   UNL     1       7.507  -1.978  25.024  0.00  0.00    +0.000 C 
ATOM      8  O   UNL     1       6.761  -1.092  24.746  0.00  0.00    +0.000 OA
ATOM      9  N   UNL     1       7.373  -3.263  24.771  0.00  0.00    +0.000 N 
ATOM     10  H   UNL     1       7.366  -3.354  23.805  0.00  0.00    +0.000 HD
BRANCH   9  11
ATOM     11  C   UNL     1       6.353  -4.141  25.522  0.00  0.00    +0.000 C 
ATOM     12  C   UNL     1       6.465  -3.771  26.900  0.00  0.00    +0.000 C 
BRANCH  11  13
ATOM     13  C   UNL     1       5.226  -4.177  24.658  0.00  0.00    +0.000 A 
ATOM     14  C   UNL     1       5.532  -4.146  23.297  0.00  0.00    +0.000 A 
ATOM     15  C   UNL     1       5.564  -5.332  22.185  0.00  0.00    +0.000 A 
ATOM     16  C   UNL     1       4.600  -6.253  22.942  0.00  0.00    +0.000 A 
ATOM     17  C   UNL     1       3.746  -6.385  23.865  0.00  0.00    +0.000 A 
ATOM     18  C   UNL     1       4.476  -6.785  25.067  0.00  0.00    +0.000 A 
ATOM     19  C   UNL     1       4.357  -6.844  26.427  0.00  0.00    +0.000 A 
ATOM     20  C   UNL     1       3.421  -5.637  26.599  0.00  0.00    +0.000 A 
ATOM     21  C   UNL     1       3.022  -4.827  25.508  0.00  0.00    +0.000 A 
ATOM     22  C   UNL     1       3.799  -4.870  24.438  0.00  0.00    +0.000 A 
ENDBRANCH  11  13
ENDBRANCH   9  11
ENDBRANCH   4   7
BRANCH   1  23
ATOM     23  S   UNL     1       9.291   0.932  22.298  0.00  0.00    +0.000 S 
ATOM     24  O   UNL     1       8.142   1.389  22.977  0.00  0.00    +0.000 OA
ATOM     25  O   UNL     1      10.023   1.897  21.522  0.00  0.00    +0.000 OA
BRANCH  23  29
ATOM     26  C   UNL     1       6.683   0.036  18.837  0.00  0.00    +0.000 A 
ATOM     27  N   UNL     1       7.845   0.422  19.671  0.00  0.00    +0.000 NA
ATOM     28  C   UNL     1       7.751  -0.208  20.787  0.00  0.00    +0.000 A 
ATOM     29  N   UNL     1       8.923  -0.307  21.312  0.00  0.00    +0.000 N 
ATOM     30  H   UNL     1       9.622  -0.391  20.638  0.00  0.00    +0.000 HD
ATOM     31  C   UNL     1       7.079  -1.392  21.210  0.00  0.00    +0.000 A 
ATOM     32  C   UNL     1       5.968  -1.908  20.527  0.00  0.00    +0.000 A 
ATOM     33  C   UNL     1       5.738  -0.803  19.497  0.00  0.00    +0.000 A 
ENDBRANCH  23  29
ENDBRANCH   1  23
TORSDOF 5
ENDMDL
MODEL 8
REMARK VINA RESULT:      -7.8      2.490      3.499
REMARK  Name = 
REMARK  6 active torsions:
REMARK  status: ('A' for Active; 'I' for Inactive)
REMARK    1  A    between atoms: N_5  and  S_7
REMARK    2  A    between atoms: S_7  and  C_10
REMARK    3  A    between atoms: C_15  and  C_16
REMARK    4  A    between atoms: N_18  and  C_20
REMARK    5  A    between atoms: C_20  and  C_22
REMARK    6  A    between atoms: C_20  and  C_39
REMARK                            x       y       z     vdW  Elec       q    Type
REMARK                         _______ _______ _______ _____ _____    ______ ____
ROOT
ATOM      1  C   UNL     1      10.706   0.613  24.124  0.00  0.00    +0.000 A 
ATOM      2  C   UNL     1      10.758  -0.615  23.278  0.00  0.00    +0.000 A 
ATOM      3  C   UNL     1       9.890  -1.832  23.426  0.00  0.00    +0.000 A 
ATOM      4  C   UNL     1       8.846  -1.632  24.547  0.00  0.00    +0.000 A 
ATOM      5  C   UNL     1       9.051  -0.764  25.684  0.00  0.00    +0.000 A 
ATOM      6  C   UNL     1      10.006   0.456  25.380  0.00  0.00    +0.000 A 
ENDROOT
BRANCH   4   7
ATOM      7  C   UNL     1       7.484  -1.711  23.912  0.00  0.00    +0.000 C 
ATOM      8  O   UNL     1       6.969  -0.700  23.548  0.00  0.00    +0.000 OA
ATOM      9  N   UNL     1       7.275  -2.934  23.470  0.00  0.00    +0.000 N 
ATOM     10  H   UNL     1       7.546  -2.940  22.539  0.00  0.00    +0.000 HD
BRANCH   9  11
ATOM     11  C   UNL     1       5.978  -3.706  23.782  0.00  0.00    +0.000 C 
ATOM     12  C   UNL     1       5.155  -3.564  22.620  0.00  0.00    +0.000 C 
BRANCH  11  13
ATOM     13  C   UNL     1       6.423  -4.866  24.470  0.00  0.00    +0.000 A 
ATOM     14  C   UNL     1       7.712  -5.284  24.138  0.00  0.00    +0.000 A 
ATOM     15  C   UNL     1       9.124  -5.109  24.927  0.00  0.00    +0.000 A 
ATOM     16  C   UNL     1       8.486  -4.935  26.310  0.00  0.00    +0.000 A 
ATOM     17  C   UNL     1       7.457  -5.044  27.038  0.00  0.00    +0.000 A 
ATOM     18  C   UNL     1       6.746  -3.770  26.964  0.00  0.00    +0.000 A 
ATOM     19  C   UNL     1       5.523  -3.206  27.195  0.00  0.00    +0.000 A 
ATOM     20  C   UNL     1       4.670  -4.450  26.901  0.00  0.00    +0.000 A 
ATOM     21  C   UNL     1       5.238  -5.670  26.459  0.00  0.00    +0.000 A 
ATOM     22  C   UNL     1       6.435  -5.584  25.902  0.00  0.00    +0.000 A 
ENDBRANCH  11  13
ENDBRANCH   9  11
ENDBRANCH   4   7
BRANCH   1  23
ATOM     23  S   UNL     1       9.953   1.761  22.952  0.00  0.00    +0.000 S 
ATOM     24  O   UNL     1      10.688   2.962  23.038  0.00  0.00    +0.000 OA
ATOM     25  O   UNL     1       9.922   1.100  21.675  0.00  0.00    +0.000 OA
BRANCH  23  29
ATOM     26  C   UNL     1       6.703   4.730  22.488  0.00  0.00    +0.000 A 
ATOM     27  N   UNL     1       7.588   3.558  22.292  0.00  0.00    +0.000 NA
ATOM     28  C   UNL     1       8.071   3.236  23.438  0.00  0.00    +0.000 A 
ATOM     29  N   UNL     1       8.412   1.995  23.416  0.00  0.00    +0.000 N 
ATOM     30  H   UNL     1       7.827   1.463  22.845  0.00  0.00    +0.000 HD
ATOM     31  C   UNL     1       7.669   3.462  24.788  0.00  0.00    +0.000 A 
ATOM     32  C   UNL     1       6.821   4.519  25.151  0.00  0.00    +0.000 A 
ATOM     33  C   UNL     1       6.704   5.252  23.814  0.00  0.00    +0.000 A 
ENDBRANCH  23  29
ENDBRANCH   1  23
TORSDOF 5
ENDMDL
MODEL 9
REMARK VINA RESULT:      -7.7      2.829      6.680
REMARK  Name = 
REMARK  6 active torsions:
REMARK  status: ('A' for Active; 'I' for Inactive)
REMARK    1  A    between atoms: N_5  and  S_7
REMARK    2  A    between atoms: S_7  and  C_10
REMARK    3  A    between atoms: C_15  and  C_16
REMARK    4  A    between atoms: N_18  and  C_20
REMARK    5  A    between atoms: C_20  and  C_22
REMARK    6  A    between atoms: C_20  and  C_39
REMARK                            x       y       z     vdW  Elec       q    Type
REMARK                         _______ _______ _______ _____ _____    ______ ____
ROOT
ATOM      1  C   UNL     1       4.912  -4.433  23.682  0.00  0.00    +0.000 A 
ATOM      2  C   UNL     1       5.969  -5.406  24.083  0.00  0.00    +0.000 A 
ATOM      3  C   UNL     1       7.431  -5.314  23.752  0.00  0.00    +0.000 A 
ATOM      4  C   UNL     1       7.742  -4.010  22.984  0.00  0.00    +0.000 A 
ATOM      5  C   UNL     1       6.780  -3.326  22.150  0.00  0.00    +0.000 A 
ATOM      6  C   UNL     1       5.285  -3.538  22.610  0.00  0.00    +0.000 A 
ENDROOT
BRANCH   4   7
ATOM      7  C   UNL     1       8.694  -3.207  23.830  0.00  0.00    +0.000 C 
ATOM      8  O   UNL     1       9.117  -3.698  24.829  0.00  0.00    +0.000 OA
ATOM      9  N   UNL     1       9.239  -2.258  23.097  0.00  0.00    +0.000 N 
ATOM     10  H   UNL     1      10.075  -2.617  22.760  0.00  0.00    +0.000 HD
BRANCH   9  11
ATOM     11  C   UNL     1       9.295  -0.792  23.569  0.00  0.00    +0.000 C 
ATOM     12  C   UNL     1      10.080  -0.802  24.766  0.00  0.00    +0.000 C 
BRANCH  11  13
ATOM     13  C   UNL     1       9.440  -0.048  22.368  0.00  0.00    +0.000 A 
ATOM     14  C   UNL     1       8.690  -0.523  21.291  0.00  0.00    +0.000 A 
ATOM     15  C   UNL     1       7.295   0.010  20.648  0.00  0.00    +0.000 A 
ATOM     16  C   UNL     1       7.446   1.445  21.167  0.00  0.00    +0.000 A 
ATOM     17  C   UNL     1       8.198   2.331  21.666  0.00  0.00    +0.000 A 
ATOM     18  C   UNL     1       8.086   2.217  23.118  0.00  0.00    +0.000 A 
ATOM     19  C   UNL     1       8.721   2.566  24.277  0.00  0.00    +0.000 A 
ATOM     20  C   UNL     1      10.157   2.559  23.728  0.00  0.00    +0.000 A 
ATOM     21  C   UNL     1      10.456   2.182  22.395  0.00  0.00    +0.000 A 
ATOM     22  C   UNL     1       9.547   1.440  21.785  0.00  0.00    +0.000 A 
ENDBRANCH  11  13
ENDBRANCH   9  11
ENDBRANCH   4   7
BRANCH   1  23
ATOM     23  S   UNL     1       4.596  -3.648  25.277  0.00  0.00    +0.000 S 
ATOM     24  O   UNL     1       3.307  -3.081  25.198  0.00  0.00    +0.000 OA
ATOM     25  O   UNL     1       4.814  -4.647  26.289  0.00  0.00    +0.000 OA
BRANCH  23  29
ATOM     26  C   UNL     1       5.292  -0.016  27.709  0.00  0.00    +0.000 A 
ATOM     27  N   UNL     1       5.284  -1.417  27.229  0.00  0.00    +0.000 NA
ATOM     28  C   UNL     1       5.239  -1.390  25.945  0.00  0.00    +0.000 A 
ATOM     29  N   UNL     1       5.721  -2.492  25.485  0.00  0.00    +0.000 N 
ATOM     30  H   UNL     1       6.434  -2.845  26.048  0.00  0.00    +0.000 HD
ATOM     31  C   UNL     1       5.580  -0.422  24.956  0.00  0.00    +0.000 A 
ATOM     32  C   UNL     1       5.649   0.950  25.242  0.00  0.00    +0.000 A 
ATOM     33  C   UNL     1       5.135   0.959  26.681  0.00  0.00    +0.000 A 
ENDBRANCH  23  29
ENDBRANCH   1  23
TORSDOF 5
ENDMDL
