MODEL 1
REMARK VINA RESULT:      -8.7      0.000      0.000
REMARK  Name = 
REMARK  6 active torsions:
REMARK  status: ('A' for Active; 'I' for Inactive)
REMARK    1  A    between atoms: C_7  and  C_8
REMARK    2  A    between atoms: C_8  and  N_11
REMARK    3  A    between atoms: N_11  and  C_13
REMARK    4  A    between atoms: C_27  and  C_28
REMARK    5  A    between atoms: N_37  and  S_38
REMARK    6  A    between atoms: S_38  and  C_41
REMARK                            x       y       z     vdW  Elec       q    Type
REMARK                         _______ _______ _______ _____ _____    ______ ____
ROOT
ATOM      1  C   UNL     1      10.302   4.094  23.472  0.00  0.00    +0.000 A 
ATOM      2  C   UNL     1       9.484   4.595  24.594  0.00  0.00    +0.000 A 
ATOM      3  C   UNL     1       8.525   3.895  25.456  0.00  0.00    +0.000 A 
ATOM      4  C   UNL     1       8.294   2.439  24.844  0.00  0.00    +0.000 A 
ATOM      5  C   UNL     1       9.341   1.683  24.115  0.00  0.00    +0.000 A 
ATOM      6  C   UNL     1      10.398   2.607  23.439  0.00  0.00    +0.000 A 
ENDROOT
BRANCH   5   7
ATOM      7  C   UNL     1       9.958   0.601  24.829  0.00  0.00    +0.000 C 
ATOM      8  O   UNL     1      11.127   0.564  25.108  0.00  0.00    +0.000 OA
ATOM      9  N   UNL     1       9.200  -0.525  24.741  0.00  0.00    +0.000 N 
ATOM     10  C   UNL     1       9.655  -1.597  23.866  0.00  0.00    +0.000 C 
ATOM     11  C   UNL     1       9.441  -2.997  24.407  0.00  0.00    +0.000 C 
ATOM     12  N   UNL     1       8.425  -3.110  25.343  0.00  0.00    +0.000 NA
ATOM     13  C   UNL     1       8.550  -2.160  26.372  0.00  0.00    +0.000 C 
ATOM     14  C   UNL     1       8.145  -0.797  25.675  0.00  0.00    +0.000 C 
BRANCH  12  15
ATOM     15  S   UNL     1       7.915  -4.532  25.767  0.00  0.00    +0.000 S 
ATOM     16  O   UNL     1       8.791  -5.564  25.233  0.00  0.00    +0.000 OA
ATOM     17  O   UNL     1       7.821  -4.608  27.233  0.00  0.00    +0.000 OA
BRANCH  15  18
ATOM     18  C   UNL     1       6.284  -4.954  25.254  0.00  0.00    +0.000 A 
ATOM     19  C   UNL     1       5.623  -3.615  25.316  0.00  0.00    +0.000 A 
ATOM     20  C   UNL     1       5.111  -2.837  24.157  0.00  0.00    +0.000 A 
ATOM     21  C   UNL     1       5.172  -3.614  22.866  0.00  0.00    +0.000 A 
ATOM     22 CL   UNL     1       6.084  -2.528  21.755  0.00  0.00    +0.000 Cl
ATOM     23  C   UNL     1       5.555  -5.034  22.704  0.00  0.00    +0.000 A 
ATOM     24  C   UNL     1       6.094  -5.682  24.017  0.00  0.00    +0.000 A 
ENDBRANCH  15  18
ENDBRANCH  12  15
ENDBRANCH   5   7
BRANCH   4  25
ATOM     25  C   UNL     1       6.781   2.513  24.255  0.00  0.00    +0.000 C 
BRANCH  25  26
ATOM     26  N   UNL     1       6.788   1.970  23.000  0.00  0.00    +0.000 NA
ATOM     27  H   UNL     1       7.482   1.171  22.980  0.00  0.00    +0.000 HD
BRANCH  26  28
ATOM     28  C   UNL     1       6.942   2.716  21.826  0.00  0.00    +0.000 C 
ATOM     29  N   UNL     1       5.692   2.509  20.943  0.00  0.00    +0.000 NA
ATOM     30  C   UNL     1       5.682   1.220  20.489  0.00  0.00    +0.000 A 
ATOM     31  C   UNL     1       5.205   1.393  19.062  0.00  0.00    +0.000 A 
ATOM     32  C   UNL     1       5.875   0.962  17.828  0.00  0.00    +0.000 A 
ATOM     33  C   UNL     1       7.176   0.335  18.271  0.00  0.00    +0.000 A 
ATOM     34  C   UNL     1       7.862  -0.014  19.448  0.00  0.00    +0.000 A 
ATOM     35  C   UNL     1       7.103   0.702  20.584  0.00  0.00    +0.000 A 
ATOM     36  N   UNL     1       7.939   1.782  21.043  0.00  0.00    +0.000 N 
ATOM     37  H   UNL     1       8.203   2.226  20.229  0.00  0.00    +0.000 HD
ENDBRANCH  26  28
ENDBRANCH  25  26
ENDBRANCH   4  25
TORSDOF 6
ENDMDL
MODEL 2
REMARK VINA RESULT:      -8.4      1.850      2.718
REMARK  Name = 
REMARK  6 active torsions:
REMARK  status: ('A' for Active; 'I' for Inactive)
REMARK    1  A    between atoms: C_7  and  C_8
REMARK    2  A    between atoms: C_8  and  N_11
REMARK    3  A    between atoms: N_11  and  C_13
REMARK    4  A    between atoms: C_27  and  C_28
REMARK    5  A    between atoms: N_37  and  S_38
REMARK    6  A    between atoms: S_38  and  C_41
REMARK                            x       y       z     vdW  Elec       q    Type
REMARK                         _______ _______ _______ _____ _____    ______ ____
ROOT
ATOM      1  C   UNL     1      10.049  -1.095  22.930  0.00  0.00    +0.000 A 
ATOM      2  C   UNL     1      10.955  -0.045  23.436  0.00  0.00    +0.000 A 
ATOM      3  C   UNL     1      10.771   0.923  24.524  0.00  0.00    +0.000 A 
ATOM      4  C   UNL     1       9.251   0.837  24.999  0.00  0.00    +0.000 A 
ATOM      5  C   UNL     1       8.451  -0.411  24.961  0.00  0.00    +0.000 A 
ATOM      6  C   UNL     1       8.941  -1.413  23.873  0.00  0.00    +0.000 A 
ENDROOT
BRANCH   5   7
ATOM      7  C   UNL     1       8.227  -1.061  26.221  0.00  0.00    +0.000 C 
ATOM      8  O   UNL     1       8.899  -0.873  27.201  0.00  0.00    +0.000 OA
ATOM      9  N   UNL     1       7.501  -2.199  26.051  0.00  0.00    +0.000 N 
ATOM     10  C   UNL     1       8.188  -3.479  26.162  0.00  0.00    +0.000 C 
ATOM     11  C   UNL     1       7.400  -4.568  26.863  0.00  0.00    +0.000 C 
ATOM     12  N   UNL     1       6.025  -4.402  26.833  0.00  0.00    +0.000 NA
ATOM     13  C   UNL     1       5.641  -3.117  27.256  0.00  0.00    +0.000 C 
ATOM     14  C   UNL     1       6.066  -2.184  26.050  0.00  0.00    +0.000 C 
BRANCH  12  15
ATOM     15  S   UNL     1       5.091  -5.586  27.269  0.00  0.00    +0.000 S 
ATOM     16  O   UNL     1       5.884  -6.706  27.751  0.00  0.00    +0.000 OA
ATOM     17  O   UNL     1       4.139  -5.118  28.288  0.00  0.00    +0.000 OA
BRANCH  15  18
ATOM     18  C   UNL     1       4.030  -6.233  26.020  0.00  0.00    +0.000 A 
ATOM     19  C   UNL     1       3.167  -5.043  25.750  0.00  0.00    +0.000 A 
ATOM     20  C   UNL     1       3.132  -4.255  24.489  0.00  0.00    +0.000 A 
ATOM     21  C   UNL     1       3.961  -4.879  23.394  0.00  0.00    +0.000 A 
ATOM     22 CL   UNL     1       5.057  -3.547  22.875  0.00  0.00    +0.000 Cl
ATOM     23  C   UNL     1       4.650  -6.188  23.440  0.00  0.00    +0.000 A 
ATOM     24  C   UNL     1       4.609  -6.858  24.849  0.00  0.00    +0.000 A 
ENDBRANCH  15  18
ENDBRANCH  12  15
ENDBRANCH   5   7
BRANCH   4  25
ATOM     25  C   UNL     1       8.609   2.233  24.467  0.00  0.00    +0.000 C 
BRANCH  25  26
ATOM     26  N   UNL     1       7.833   1.954  23.376  0.00  0.00    +0.000 NA
ATOM     27  H   UNL     1       7.931   0.926  23.144  0.00  0.00    +0.000 HD
BRANCH  26  28
ATOM     28  C   UNL     1       7.874   2.681  22.182  0.00  0.00    +0.000 C 
ATOM     29  N   UNL     1       6.477   2.628  21.524  0.00  0.00    +0.000 NA
ATOM     30  C   UNL     1       6.239   1.352  21.099  0.00  0.00    +0.000 A 
ATOM     31  C   UNL     1       5.552   1.586  19.769  0.00  0.00    +0.000 A 
ATOM     32  C   UNL     1       5.948   1.084  18.447  0.00  0.00    +0.000 A 
ATOM     33  C   UNL     1       7.223   0.304  18.676  0.00  0.00    +0.000 A 
ATOM     34  C   UNL     1       8.051  -0.129  19.726  0.00  0.00    +0.000 A 
ATOM     35  C   UNL     1       7.584   0.668  20.963  0.00  0.00    +0.000 A 
ATOM     36  N   UNL     1       8.607   1.638  21.257  0.00  0.00    +0.000 N 
ATOM     37  H   UNL     1       8.781   2.051  20.404  0.00  0.00    +0.000 HD
ENDBRANCH  26  28
ENDBRANCH  25  26
ENDBRANCH   4  25
TORSDOF 6
ENDMDL
MODEL 3
REMARK VINA RESULT:      -8.2      2.946      8.266
REMARK  Name = 
REMARK  6 active torsions:
REMARK  status: ('A' for Active; 'I' for Inactive)
REMARK    1  A    between atoms: C_7  and  C_8
REMARK    2  A    between atoms: C_8  and  N_11
REMARK    3  A    between atoms: N_11  and  C_13
REMARK    4  A    between atoms: C_27  and  C_28
REMARK    5  A    between atoms: N_37  and  S_38
REMARK    6  A    between atoms: S_38  and  C_41
REMARK                            x       y       z     vdW  Elec       q    Type
REMARK                         _______ _______ _______ _____ _____    ______ ____
ROOT
ATOM      1  C   UNL     1       7.412  -5.698  21.933  0.00  0.00    +0.000 A 
ATOM      2  C   UNL     1       6.271  -4.810  21.634  0.00  0.00    +0.000 A 
ATOM      3  C   UNL     1       5.378  -4.076  22.539  0.00  0.00    +0.000 A 
ATOM      4  C   UNL     1       5.684  -4.565  24.026  0.00  0.00    +0.000 A 
ATOM      5  C   UNL     1       7.025  -5.001  24.484  0.00  0.00    +0.000 A 
ATOM      6  C   UNL     1       7.911  -5.557  23.330  0.00  0.00    +0.000 A 
ENDROOT
BRANCH   5   7
ATOM      7  C   UNL     1       7.747  -4.075  25.310  0.00  0.00    +0.000 C 
ATOM      8  O   UNL     1       7.876  -4.199  26.500  0.00  0.00    +0.000 OA
ATOM      9  N   UNL     1       7.857  -2.868  24.693  0.00  0.00    +0.000 N 
ATOM     10  C   UNL     1       7.031  -1.769  25.174  0.00  0.00    +0.000 C 
ATOM     11  C   UNL     1       7.717  -0.417  25.200  0.00  0.00    +0.000 C 
ATOM     12  N   UNL     1       8.781  -0.289  24.322  0.00  0.00    +0.000 NA
ATOM     13  C   UNL     1       9.697  -1.348  24.447  0.00  0.00    +0.000 C 
ATOM     14  C   UNL     1       8.940  -2.576  23.797  0.00  0.00    +0.000 C 
BRANCH  12  15
ATOM     15  S   UNL     1       9.393   1.131  24.046  0.00  0.00    +0.000 S 
ATOM     16  O   UNL     1       8.826   2.112  24.959  0.00  0.00    +0.000 OA
ATOM     17  O   UNL     1      10.858   1.070  24.159  0.00  0.00    +0.000 OA
BRANCH  15  18
ATOM     18  C   UNL     1       9.157   1.772  22.423  0.00  0.00    +0.000 A 
ATOM     19  C   UNL     1       9.705   0.649  21.603  0.00  0.00    +0.000 A 
ATOM     20  C   UNL     1       8.926  -0.230  20.690  0.00  0.00    +0.000 A 
ATOM     21  C   UNL     1       7.498   0.225  20.529  0.00  0.00    +0.000 A 
ATOM     22 CL   UNL     1       6.532  -1.239  20.937  0.00  0.00    +0.000 Cl
ATOM     23  C   UNL     1       6.895   1.465  21.069  0.00  0.00    +0.000 A 
ATOM     24  C   UNL     1       7.847   2.246  22.029  0.00  0.00    +0.000 A 
ENDBRANCH  15  18
ENDBRANCH  12  15
ENDBRANCH   5   7
BRANCH   4  25
ATOM     25  C   UNL     1       4.367  -5.435  24.416  0.00  0.00    +0.000 C 
BRANCH  25  26
ATOM     26  N   UNL     1       4.718  -6.320  25.397  0.00  0.00    +0.000 NA
ATOM     27  H   UNL     1       5.079  -7.205  24.943  0.00  0.00    +0.000 HD
BRANCH  26  28
ATOM     28  C   UNL     1       3.883  -6.679  26.461  0.00  0.00    +0.000 C 
ATOM     29  N   UNL     1       3.511  -5.405  27.250  0.00  0.00    +0.000 NA
ATOM     30  C   UNL     1       4.629  -4.936  27.882  0.00  0.00    +0.000 A 
ATOM     31  C   UNL     1       4.073  -4.499  29.221  0.00  0.00    +0.000 A 
ATOM     32  C   UNL     1       4.492  -4.936  30.559  0.00  0.00    +0.000 A 
ATOM     33  C   UNL     1       5.582  -5.958  30.328  0.00  0.00    +0.000 A 
ATOM     34  C   UNL     1       6.330  -6.522  29.279  0.00  0.00    +0.000 A 
ATOM     35  C   UNL     1       5.600  -6.095  27.988  0.00  0.00    +0.000 A 
ATOM     36  N   UNL     1       4.953  -7.267  27.456  0.00  0.00    +0.000 N 
ATOM     37  H   UNL     1       4.495  -7.639  28.217  0.00  0.00    +0.000 HD
ENDBRANCH  26  28
ENDBRANCH  25  26
ENDBRANCH   4  25
TORSDOF 6
ENDMDL
MODEL 4
REMARK VINA RESULT:      -8.1      2.973      7.153
REMARK  Name = 
REMARK  6 active torsions:
REMARK  status: ('A' for Active; 'I' for Inactive)
REMARK    1  A    between atoms: C_7  and  C_8
REMARK    2  A    between atoms: C_8  and  N_11
REMARK    3  A    between atoms: N_11  and  C_13
REMARK    4  A    between atoms: C_27  and  C_28
REMARK    5  A    between atoms: N_37  and  S_38
REMARK    6  A    between atoms: S_38  and  C_41
REMARK                            x       y       z     vdW  Elec       q    Type
REMARK                         _______ _______ _______ _____ _____    ______ ____
ROOT
ATOM      1  C   UNL     1       2.257  -3.236  26.532  0.00  0.00    +0.000 A 
ATOM      2  C   UNL     1       2.307  -3.559  27.972  0.00  0.00    +0.000 A 
ATOM      3  C   UNL     1       3.423  -3.489  28.921  0.00  0.00    +0.000 A 
ATOM      4  C   UNL     1       4.752  -3.196  28.090  0.00  0.00    +0.000 A 
ATOM      5  C   UNL     1       4.776  -2.394  26.842  0.00  0.00    +0.000 A 
ATOM      6  C   UNL     1       3.419  -2.421  26.077  0.00  0.00    +0.000 A 
ENDROOT
BRANCH   5   7
ATOM      7  C   UNL     1       5.299  -1.062  26.952  0.00  0.00    +0.000 C 
ATOM      8  O   UNL     1       4.699  -0.146  27.449  0.00  0.00    +0.000 OA
ATOM      9  N   UNL     1       6.303  -0.867  26.055  0.00  0.00    +0.000 N 
ATOM     10  C   UNL     1       6.031  -0.049  24.881  0.00  0.00    +0.000 C 
ATOM     11  C   UNL     1       7.164   0.868  24.463  0.00  0.00    +0.000 C 
ATOM     12  N   UNL     1       8.422   0.461  24.876  0.00  0.00    +0.000 NA
ATOM     13  C   UNL     1       8.457   0.171  26.251  0.00  0.00    +0.000 C 
ATOM     14  C   UNL     1       7.666  -1.194  26.367  0.00  0.00    +0.000 C 
BRANCH  12  15
ATOM     15  S   UNL     1       9.697   1.156  24.278  0.00  0.00    +0.000 S 
ATOM     16  O   UNL     1       9.576   2.603  24.373  0.00  0.00    +0.000 OA
ATOM     17  O   UNL     1      10.899   0.667  24.971  0.00  0.00    +0.000 OA
BRANCH  15  18
ATOM     18  C   UNL     1      10.053   0.799  22.591  0.00  0.00    +0.000 A 
ATOM     19  C   UNL     1      10.204  -0.687  22.651  0.00  0.00    +0.000 A 
ATOM     20  C   UNL     1       9.302  -1.685  22.019  0.00  0.00    +0.000 A 
ATOM     21  C   UNL     1       8.260  -1.045  21.136  0.00  0.00    +0.000 A 
ATOM     22 CL   UNL     1       6.704  -1.704  21.762  0.00  0.00    +0.000 Cl
ATOM     23  C   UNL     1       8.159   0.388  20.777  0.00  0.00    +0.000 A 
ATOM     24  C   UNL     1       9.165   1.291  21.557  0.00  0.00    +0.000 A 
ENDBRANCH  15  18
ENDBRANCH  12  15
ENDBRANCH   5   7
BRANCH   4  25
ATOM     25  C   UNL     1       5.567  -4.599  28.173  0.00  0.00    +0.000 C 
BRANCH  25  26
ATOM     26  N   UNL     1       6.530  -4.589  27.202  0.00  0.00    +0.000 NA
ATOM     27  H   UNL     1       6.307  -3.818  26.511  0.00  0.00    +0.000 HD
BRANCH  26  28
ATOM     28  C   UNL     1       6.929  -5.721  26.484  0.00  0.00    +0.000 C 
ATOM     29  N   UNL     1       7.891  -5.280  25.360  0.00  0.00    +0.000 NA
ATOM     30  C   UNL     1       7.187  -4.563  24.434  0.00  0.00    +0.000 A 
ATOM     31  C   UNL     1       7.785  -5.056  23.133  0.00  0.00    +0.000 A 
ATOM     32  C   UNL     1       7.088  -5.666  21.993  0.00  0.00    +0.000 A 
ATOM     33  C   UNL     1       5.634  -5.740  22.399  0.00  0.00    +0.000 A 
ATOM     34  C   UNL     1       4.784  -5.348  23.449  0.00  0.00    +0.000 A 
ATOM     35  C   UNL     1       5.727  -4.934  24.598  0.00  0.00    +0.000 A 
ATOM     36  N   UNL     1       5.640  -5.955  25.611  0.00  0.00    +0.000 N 
ATOM     37  H   UNL     1       5.747  -6.775  25.116  0.00  0.00    +0.000 HD
ENDBRANCH  26  28
ENDBRANCH  25  26
ENDBRANCH   4  25
TORSDOF 6
ENDMDL
MODEL 5
REMARK VINA RESULT:      -7.5      2.545      4.271
REMARK  Name = 
REMARK  6 active torsions:
REMARK  status: ('A' for Active; 'I' for Inactive)
REMARK    1  A    between atoms: C_7  and  C_8
REMARK    2  A    between atoms: C_8  and  N_11
REMARK    3  A    between atoms: N_11  and  C_13
REMARK    4  A    between atoms: C_27  and  C_28
REMARK    5  A    between atoms: N_37  and  S_38
REMARK    6  A    between atoms: S_38  and  C_41
REMARK                            x       y       z     vdW  Elec       q    Type
REMARK                         _______ _______ _______ _____ _____    ______ ____
ROOT
ATOM      1  C   UNL     1       6.887  -0.989  22.665  0.00  0.00    +0.000 A 
ATOM      2  C   UNL     1       7.996  -1.840  22.188  0.00  0.00    +0.000 A 
ATOM      3  C   UNL     1       9.291  -2.144  22.805  0.00  0.00    +0.000 A 
ATOM      4  C   UNL     1       9.463  -1.190  24.072  0.00  0.00    +0.000 A 
ATOM      5  C   UNL     1       8.327  -0.721  24.902  0.00  0.00    +0.000 A 
ATOM      6  C   UNL     1       6.982  -0.669  24.117  0.00  0.00    +0.000 A 
ENDROOT
BRANCH   5   7
ATOM      7  C   UNL     1       8.172  -1.350  26.183  0.00  0.00    +0.000 C 
ATOM      8  O   UNL     1       8.915  -1.169  27.112  0.00  0.00    +0.000 OA
ATOM      9  N   UNL     1       7.407  -2.470  26.077  0.00  0.00    +0.000 N 
ATOM     10  C   UNL     1       8.065  -3.766  26.158  0.00  0.00    +0.000 C 
ATOM     11  C   UNL     1       7.299  -4.825  26.926  0.00  0.00    +0.000 C 
ATOM     12  N   UNL     1       5.930  -4.622  26.987  0.00  0.00    +0.000 NA
ATOM     13  C   UNL     1       5.609  -3.323  27.418  0.00  0.00    +0.000 C 
ATOM     14  C   UNL     1       5.976  -2.415  26.174  0.00  0.00    +0.000 C 
BRANCH  12  15
ATOM     15  S   UNL     1       4.997  -5.775  27.501  0.00  0.00    +0.000 S 
ATOM     16  O   UNL     1       5.792  -6.896  27.979  0.00  0.00    +0.000 OA
ATOM     17  O   UNL     1       4.103  -5.260  28.549  0.00  0.00    +0.000 OA
BRANCH  15  18
ATOM     18  C   UNL     1       3.867  -6.438  26.323  0.00  0.00    +0.000 A 
ATOM     19  C   UNL     1       3.008  -5.243  26.064  0.00  0.00    +0.000 A 
ATOM     20  C   UNL     1       2.922  -4.487  24.787  0.00  0.00    +0.000 A 
ATOM     21  C   UNL     1       3.687  -5.151  23.670  0.00  0.00    +0.000 A 
ATOM     22 CL   UNL     1       4.774  -3.849  23.062  0.00  0.00    +0.000 Cl
ATOM     23  C   UNL     1       4.360  -6.468  23.716  0.00  0.00    +0.000 A 
ATOM     24  C   UNL     1       4.379  -7.102  25.142  0.00  0.00    +0.000 A 
ENDBRANCH  15  18
ENDBRANCH  12  15
ENDBRANCH   5   7
BRANCH   4  25
ATOM     25  C   UNL     1      10.617  -0.146  23.605  0.00  0.00    +0.000 C 
BRANCH  25  26
ATOM     26  N   UNL     1      10.093   0.660  22.633  0.00  0.00    +0.000 NA
ATOM     27  H   UNL     1      10.191   0.173  21.698  0.00  0.00    +0.000 HD
BRANCH  26  28
ATOM     28  C   UNL     1      10.433   2.007  22.466  0.00  0.00    +0.000 C 
ATOM     29  N   UNL     1      10.146   2.757  23.785  0.00  0.00    +0.000 NA
ATOM     30  C   UNL     1       8.794   2.804  23.979  0.00  0.00    +0.000 A 
ATOM     31  C   UNL     1       8.603   4.205  24.521  0.00  0.00    +0.000 A 
ATOM     32  C   UNL     1       7.743   5.270  23.988  0.00  0.00    +0.000 A 
ATOM     33  C   UNL     1       7.106   4.692  22.745  0.00  0.00    +0.000 A 
ATOM     34  C   UNL     1       7.028   3.482  22.033  0.00  0.00    +0.000 A 
ATOM     35  C   UNL     1       8.141   2.593  22.627  0.00  0.00    +0.000 A 
ATOM     36  N   UNL     1       9.186   2.499  21.640  0.00  0.00    +0.000 N 
ATOM     37  H   UNL     1       9.333   3.415  21.376  0.00  0.00    +0.000 HD
ENDBRANCH  26  28
ENDBRANCH  25  26
ENDBRANCH   4  25
TORSDOF 6
ENDMDL
MODEL 6
REMARK VINA RESULT:      -7.5      3.224      7.415
REMARK  Name = 
REMARK  6 active torsions:
REMARK  status: ('A' for Active; 'I' for Inactive)
REMARK    1  A    between atoms: C_7  and  C_8
REMARK    2  A    between atoms: C_8  and  N_11
REMARK    3  A    between atoms: N_11  and  C_13
REMARK    4  A    between atoms: C_27  and  C_28
REMARK    5  A    between atoms: N_37  and  S_38
REMARK    6  A    between atoms: S_38  and  C_41
REMARK                            x       y       z     vdW  Elec       q    Type
REMARK                         _______ _______ _______ _____ _____    ______ ____
ROOT
ATOM      1  C   UNL     1       6.525  -5.838  27.871  0.00  0.00    +0.000 A 
ATOM      2  C   UNL     1       5.280  -6.539  27.500  0.00  0.00    +0.000 A 
ATOM      3  C   UNL     1       4.303  -6.244  26.445  0.00  0.00    +0.000 A 
ATOM      4  C   UNL     1       4.671  -4.821  25.826  0.00  0.00    +0.000 A 
ATOM      5  C   UNL     1       6.058  -4.304  25.732  0.00  0.00    +0.000 A 
ATOM      6  C   UNL     1       7.004  -4.903  26.814  0.00  0.00    +0.000 A 
ENDROOT
BRANCH   5   7
ATOM      7  C   UNL     1       6.658  -4.327  24.428  0.00  0.00    +0.000 C 
ATOM      8  O   UNL     1       7.243  -5.276  23.977  0.00  0.00    +0.000 OA
ATOM      9  N   UNL     1       6.879  -3.061  23.980  0.00  0.00    +0.000 N 
ATOM     10  C   UNL     1       8.247  -2.561  23.974  0.00  0.00    +0.000 C 
ATOM     11  C   UNL     1       8.612  -1.714  22.771  0.00  0.00    +0.000 C 
ATOM     12  N   UNL     1       7.539  -1.105  22.141  0.00  0.00    +0.000 NA
ATOM     13  C   UNL     1       6.511  -2.020  21.850  0.00  0.00    +0.000 C 
ATOM     14  C   UNL     1       5.873  -2.329  23.265  0.00  0.00    +0.000 C 
BRANCH  12  15
ATOM     15  S   UNL     1       7.799   0.012  21.070  0.00  0.00    +0.000 S 
ATOM     16  O   UNL     1       8.811  -0.423  20.120  0.00  0.00    +0.000 OA
ATOM     17  O   UNL     1       6.537   0.357  20.397  0.00  0.00    +0.000 OA
BRANCH  15  18
ATOM     18  C   UNL     1       8.341   1.568  21.692  0.00  0.00    +0.000 A 
ATOM     19  C   UNL     1       7.526   1.663  22.941  0.00  0.00    +0.000 A 
ATOM     20  C   UNL     1       8.049   1.633  24.332  0.00  0.00    +0.000 A 
ATOM     21  C   UNL     1       9.556   1.659  24.384  0.00  0.00    +0.000 A 
ATOM     22 CL   UNL     1       9.976   0.226  25.392  0.00  0.00    +0.000 Cl
ATOM     23  C   UNL     1      10.480   1.832  23.241  0.00  0.00    +0.000 A 
ATOM     24  C   UNL     1       9.759   1.813  21.857  0.00  0.00    +0.000 A 
ENDBRANCH  15  18
ENDBRANCH  12  15
ENDBRANCH   5   7
BRANCH   4  25
ATOM     25  C   UNL     1       3.476  -3.857  26.359  0.00  0.00    +0.000 C 
BRANCH  25  26
ATOM     26  N   UNL     1       3.907  -2.562  26.278  0.00  0.00    +0.000 NA
ATOM     27  H   UNL     1       4.940  -2.562  26.045  0.00  0.00    +0.000 HD
BRANCH  26  28
ATOM     28  C   UNL     1       3.680  -1.599  27.268  0.00  0.00    +0.000 C 
ATOM     29  N   UNL     1       3.589  -0.212  26.595  0.00  0.00    +0.000 NA
ATOM     30  C   UNL     1       4.823   0.127  26.115  0.00  0.00    +0.000 A 
ATOM     31  C   UNL     1       4.894   1.603  26.443  0.00  0.00    +0.000 A 
ATOM     32  C   UNL     1       5.911   2.303  27.240  0.00  0.00    +0.000 A 
ATOM     33  C   UNL     1       6.868   1.231  27.707  0.00  0.00    +0.000 A 
ATOM     34  C   UNL     1       7.110  -0.146  27.548  0.00  0.00    +0.000 A 
ATOM     35  C   UNL     1       5.840  -0.703  26.872  0.00  0.00    +0.000 A 
ATOM     36  N   UNL     1       5.134  -1.476  27.862  0.00  0.00    +0.000 N 
ATOM     37  H   UNL     1       5.105  -0.893  28.628  0.00  0.00    +0.000 HD
ENDBRANCH  26  28
ENDBRANCH  25  26
ENDBRANCH   4  25
TORSDOF 6
ENDMDL
MODEL 7
REMARK VINA RESULT:      -7.3      3.272      7.886
REMARK  Name = 
REMARK  6 active torsions:
REMARK  status: ('A' for Active; 'I' for Inactive)
REMARK    1  A    between atoms: C_7  and  C_8
REMARK    2  A    between atoms: C_8  and  N_11
REMARK    3  A    between atoms: N_11  and  C_13
REMARK    4  A    between atoms: C_27  and  C_28
REMARK    5  A    between atoms: N_37  and  S_38
REMARK    6  A    between atoms: S_38  and  C_41
REMARK                            x       y       z     vdW  Elec       q    Type
REMARK                         _______ _______ _______ _____ _____    ______ ____
ROOT
ATOM      1  C   UNL     1       3.622  -7.681  24.673  0.00  0.00    +0.000 A 
ATOM      2  C   UNL     1       2.385  -7.266  23.983  0.00  0.00    +0.000 A 
ATOM      3  C   UNL     1       2.067  -6.023  23.271  0.00  0.00    +0.000 A 
ATOM      4  C   UNL     1       3.255  -4.992  23.538  0.00  0.00    +0.000 A 
ATOM      5  C   UNL     1       4.666  -5.404  23.737  0.00  0.00    +0.000 A 
ATOM      6  C   UNL     1       4.802  -6.849  24.305  0.00  0.00    +0.000 A 
ENDROOT
BRANCH   5   7
ATOM      7  C   UNL     1       5.556  -5.179  22.634  0.00  0.00    +0.000 C 
ATOM      8  O   UNL     1       6.037  -6.060  21.971  0.00  0.00    +0.000 OA
ATOM      9  N   UNL     1       6.128  -3.948  22.723  0.00  0.00    +0.000 N 
ATOM     10  C   UNL     1       7.524  -3.862  23.126  0.00  0.00    +0.000 C 
ATOM     11  C   UNL     1       8.338  -2.814  22.394  0.00  0.00    +0.000 C 
ATOM     12  N   UNL     1       7.598  -1.770  21.862  0.00  0.00    +0.000 NA
ATOM     13  C   UNL     1       6.516  -2.232  21.091  0.00  0.00    +0.000 C 
ATOM     14  C   UNL     1       5.497  -2.783  22.169  0.00  0.00    +0.000 C 
BRANCH  12  15
ATOM     15  S   UNL     1       8.333  -0.489  21.332  0.00  0.00    +0.000 S 
ATOM     16  O   UNL     1       9.772  -0.701  21.316  0.00  0.00    +0.000 OA
ATOM     17  O   UNL     1       7.822  -0.141  19.997  0.00  0.00    +0.000 OA
BRANCH  15  18
ATOM     18  C   UNL     1       8.061   0.992  22.246  0.00  0.00    +0.000 A 
ATOM     19  C   UNL     1       8.017   0.450  23.639  0.00  0.00    +0.000 A 
ATOM     20  C   UNL     1       9.011   0.713  24.712  0.00  0.00    +0.000 A 
ATOM     21  C   UNL     1      10.033   1.748  24.314  0.00  0.00    +0.000 A 
ATOM     22 CL   UNL     1      11.610   0.929  24.606  0.00  0.00    +0.000 Cl
ATOM     23  C   UNL     1      10.040   2.555  23.073  0.00  0.00    +0.000 A 
ATOM     24  C   UNL     1       8.945   2.122  22.049  0.00  0.00    +0.000 A 
ENDBRANCH  15  18
ENDBRANCH  12  15
ENDBRANCH   5   7
BRANCH   4  25
ATOM     25  C   UNL     1       2.582  -3.886  24.520  0.00  0.00    +0.000 C 
BRANCH  25  26
ATOM     26  N   UNL     1       3.577  -3.070  24.984  0.00  0.00    +0.000 NA
ATOM     27  H   UNL     1       4.509  -3.457  24.667  0.00  0.00    +0.000 HD
BRANCH  26  28
ATOM     28  C   UNL     1       3.698  -2.668  26.319  0.00  0.00    +0.000 C 
ATOM     29  N   UNL     1       3.846  -1.131  26.360  0.00  0.00    +0.000 NA
ATOM     30  C   UNL     1       5.057  -0.791  25.825  0.00  0.00    +0.000 A 
ATOM     31  C   UNL     1       5.504   0.327  26.744  0.00  0.00    +0.000 A 
ATOM     32  C   UNL     1       6.743   0.409  27.528  0.00  0.00    +0.000 A 
ATOM     33  C   UNL     1       7.479  -0.883  27.260  0.00  0.00    +0.000 A 
ATOM     34  C   UNL     1       7.378  -2.040  26.467  0.00  0.00    +0.000 A 
ATOM     35  C   UNL     1       5.941  -2.019  25.904  0.00  0.00    +0.000 A 
ATOM     36  N   UNL     1       5.202  -3.054  26.580  0.00  0.00    +0.000 N 
ATOM     37  H   UNL     1       5.402  -2.906  27.511  0.00  0.00    +0.000 HD
ENDBRANCH  26  28
ENDBRANCH  25  26
ENDBRANCH   4  25
TORSDOF 6
ENDMDL
MODEL 8
REMARK VINA RESULT:      -7.2      2.988      4.513
REMARK  Name = 
REMARK  6 active torsions:
REMARK  status: ('A' for Active; 'I' for Inactive)
REMARK    1  A    between atoms: C_7  and  C_8
REMARK    2  A    between atoms: C_8  and  N_11
REMARK    3  A    between atoms: N_11  and  C_13
REMARK    4  A    between atoms: C_27  and  C_28
REMARK    5  A    between atoms: N_37  and  S_38
REMARK    6  A    between atoms: S_38  and  C_41
REMARK                            x       y       z     vdW  Elec       q    Type
REMARK                         _______ _______ _______ _____ _____    ______ ____
ROOT
ATOM      1  C   UNL     1      10.365  -0.078  22.619  0.00  0.00    +0.000 A 
ATOM      2  C   UNL     1      10.708   0.494  23.936  0.00  0.00    +0.000 A 
ATOM      3  C   UNL     1      10.122   0.248  25.258  0.00  0.00    +0.000 A 
ATOM      4  C   UNL     1       8.810  -0.635  25.053  0.00  0.00    +0.000 A 
ATOM      5  C   UNL     1       8.658  -1.633  23.966  0.00  0.00    +0.000 A 
ATOM      6  C   UNL     1       9.531  -1.309  22.718  0.00  0.00    +0.000 A 
ENDROOT
BRANCH   5   7
ATOM      7  C   UNL     1       8.767  -3.012  24.350  0.00  0.00    +0.000 C 
ATOM      8  O   UNL     1       9.761  -3.672  24.198  0.00  0.00    +0.000 OA
ATOM      9  N   UNL     1       7.535  -3.577  24.463  0.00  0.00    +0.000 N 
ATOM     10  C   UNL     1       7.097  -4.494  23.420  0.00  0.00    +0.000 C 
ATOM     11  C   UNL     1       6.323  -5.701  23.913  0.00  0.00    +0.000 C 
ATOM     12  N   UNL     1       5.696  -5.529  25.136  0.00  0.00    +0.000 NA
ATOM     13  C   UNL     1       6.575  -5.031  26.113  0.00  0.00    +0.000 C 
ATOM     14  C   UNL     1       6.790  -3.521  25.689  0.00  0.00    +0.000 C 
BRANCH  12  15
ATOM     15  S   UNL     1       4.641  -6.585  25.623  0.00  0.00    +0.000 S 
ATOM     16  O   UNL     1       4.394  -7.570  24.582  0.00  0.00    +0.000 OA
ATOM     17  O   UNL     1       5.110  -7.217  26.866  0.00  0.00    +0.000 OA
BRANCH  15  18
ATOM     18  C   UNL     1       3.066  -5.948  26.085  0.00  0.00    +0.000 A 
ATOM     19  C   UNL     1       3.181  -5.986  27.575  0.00  0.00    +0.000 A 
ATOM     20  C   UNL     1       3.225  -4.808  28.480  0.00  0.00    +0.000 A 
ATOM     21  C   UNL     1       2.970  -3.511  27.754  0.00  0.00    +0.000 A 
ATOM     22 CL   UNL     1       4.386  -2.488  28.195  0.00  0.00    +0.000 Cl
ATOM     23  C   UNL     1       2.581  -3.350  26.335  0.00  0.00    +0.000 A 
ATOM     24  C   UNL     1       2.617  -4.687  25.531  0.00  0.00    +0.000 A 
ENDBRANCH  15  18
ENDBRANCH  12  15
ENDBRANCH   5   7
BRANCH   4  25
ATOM     25  C   UNL     1       7.602   0.401  25.383  0.00  0.00    +0.000 C 
BRANCH  25  26
ATOM     26  N   UNL     1       8.152   1.624  25.648  0.00  0.00    +0.000 NA
ATOM     27  H   UNL     1       8.729   1.553  26.533  0.00  0.00    +0.000 HD
BRANCH  26  28
ATOM     28  C   UNL     1       7.422   2.817  25.694  0.00  0.00    +0.000 C 
ATOM     29  N   UNL     1       6.754   3.040  24.319  0.00  0.00    +0.000 NA
ATOM     30  C   UNL     1       7.726   3.310  23.396  0.00  0.00    +0.000 A 
ATOM     31  C   UNL     1       7.076   4.395  22.563  0.00  0.00    +0.000 A 
ATOM     32  C   UNL     1       7.581   5.746  22.289  0.00  0.00    +0.000 A 
ATOM     33  C   UNL     1       8.884   5.854  23.047  0.00  0.00    +0.000 A 
ATOM     34  C   UNL     1       9.749   5.065  23.826  0.00  0.00    +0.000 A 
ATOM     35  C   UNL     1       8.944   3.791  24.158  0.00  0.00    +0.000 A 
ATOM     36  N   UNL     1       8.597   3.857  25.555  0.00  0.00    +0.000 N 
ATOM     37  H   UNL     1       8.237   4.744  25.658  0.00  0.00    +0.000 HD
ENDBRANCH  26  28
ENDBRANCH  25  26
ENDBRANCH   4  25
TORSDOF 6
ENDMDL
MODEL 9
REMARK VINA RESULT:      -7.1      3.190      7.262
REMARK  Name = 
REMARK  6 active torsions:
REMARK  status: ('A' for Active; 'I' for Inactive)
REMARK    1  A    between atoms: C_7  and  C_8
REMARK    2  A    between atoms: C_8  and  N_11
REMARK    3  A    between atoms: N_11  and  C_13
REMARK    4  A    between atoms: C_27  and  C_28
REMARK    5  A    between atoms: N_37  and  S_38
REMARK    6  A    between atoms: S_38  and  C_41
REMARK                            x       y       z     vdW  Elec       q    Type
REMARK                         _______ _______ _______ _____ _____    ______ ____
ROOT
ATOM      1  C   UNL     1       2.477  -6.796  26.316  0.00  0.00    +0.000 A 
ATOM      2  C   UNL     1       2.124  -6.081  25.074  0.00  0.00    +0.000 A 
ATOM      3  C   UNL     1       2.722  -4.888  24.464  0.00  0.00    +0.000 A 
ATOM      4  C   UNL     1       3.759  -4.275  25.509  0.00  0.00    +0.000 A 
ATOM      5  C   UNL     1       4.535  -5.097  26.469  0.00  0.00    +0.000 A 
ATOM      6  C   UNL     1       3.828  -6.437  26.832  0.00  0.00    +0.000 A 
ENDROOT
BRANCH   5   7
ATOM      7  C   UNL     1       5.923  -5.295  26.160  0.00  0.00    +0.000 C 
ATOM      8  O   UNL     1       6.589  -6.189  26.612  0.00  0.00    +0.000 OA
ATOM      9  N   UNL     1       6.479  -4.144  25.694  0.00  0.00    +0.000 N 
ATOM     10  C   UNL     1       7.370  -3.402  26.575  0.00  0.00    +0.000 C 
ATOM     11  C   UNL     1       8.580  -2.792  25.894  0.00  0.00    +0.000 C 
ATOM     12  N   UNL     1       8.428  -2.561  24.537  0.00  0.00    +0.000 NA
ATOM     13  C   UNL     1       7.959  -3.699  23.858  0.00  0.00    +0.000 C 
ATOM     14  C   UNL     1       6.443  -3.800  24.301  0.00  0.00    +0.000 C 
BRANCH  12  15
ATOM     15  S   UNL     1       9.485  -1.684  23.776  0.00  0.00    +0.000 S 
ATOM     16  O   UNL     1      10.121  -0.750  24.692  0.00  0.00    +0.000 OA
ATOM     17  O   UNL     1      10.471  -2.555  23.119  0.00  0.00    +0.000 OA
BRANCH  15  18
ATOM     18  C   UNL     1       8.869  -0.720  22.436  0.00  0.00    +0.000 A 
ATOM     19  C   UNL     1       7.706  -0.049  23.094  0.00  0.00    +0.000 A 
ATOM     20  C   UNL     1       7.579   1.405  23.376  0.00  0.00    +0.000 A 
ATOM     21  C   UNL     1       8.702   2.211  22.774  0.00  0.00    +0.000 A 
ATOM     22 CL   UNL     1       9.357   3.143  24.171  0.00  0.00    +0.000 Cl
ATOM     23  C   UNL     1       9.772   1.713  21.881  0.00  0.00    +0.000 A 
ATOM     24  C   UNL     1       9.769   0.160  21.721  0.00  0.00    +0.000 A 
ENDBRANCH  15  18
ENDBRANCH  12  15
ENDBRANCH   5   7
BRANCH   4  25
ATOM     25  C   UNL     1       3.032  -2.910  26.008  0.00  0.00    +0.000 C 
BRANCH  25  26
ATOM     26  N   UNL     1       4.000  -1.973  26.238  0.00  0.00    +0.000 NA
ATOM     27  H   UNL     1       4.916  -2.470  26.424  0.00  0.00    +0.000 HD
BRANCH  26  28
ATOM     28  C   UNL     1       3.873  -0.927  27.159  0.00  0.00    +0.000 C 
ATOM     29  N   UNL     1       3.722   0.399  26.382  0.00  0.00    +0.000 NA
ATOM     30  C   UNL     1       4.905   0.681  25.758  0.00  0.00    +0.000 A 
ATOM     31  C   UNL     1       5.013   2.180  25.951  0.00  0.00    +0.000 A 
ATOM     32  C   UNL     1       6.104   2.932  26.583  0.00  0.00    +0.000 A 
ATOM     33  C   UNL     1       7.098   1.893  27.046  0.00  0.00    +0.000 A 
ATOM     34  C   UNL     1       7.319   0.505  26.984  0.00  0.00    +0.000 A 
ATOM     35  C   UNL     1       5.987  -0.093  26.483  0.00  0.00    +0.000 A 
ATOM     36  N   UNL     1       5.377  -0.770  27.598  0.00  0.00    +0.000 N 
ATOM     37  H   UNL     1       5.425  -0.124  28.311  0.00  0.00    +0.000 HD
ENDBRANCH  26  28
ENDBRANCH  25  26
ENDBRANCH   4  25
TORSDOF 6
ENDMDL
