MODEL 1
REMARK VINA RESULT:      -8.8      0.000      0.000
REMARK  Name = 
REMARK  5 active torsions:
REMARK  status: ('A' for Active; 'I' for Inactive)
REMARK    1  A    between atoms: C_7  and  C_8
REMARK    2  A    between atoms: C_24  and  C_26
REMARK    3  A    between atoms: C_26  and  C_29
REMARK    4  A    between atoms: N_38  and  S_39
REMARK    5  A    between atoms: S_39  and  C_42
REMARK                            x       y       z     vdW  Elec       q    Type
REMARK                         _______ _______ _______ _____ _____    ______ ____
ROOT
ATOM      1  C   UNL     1       7.733   1.139  25.818  0.00  0.00    +0.000 C 
ENDROOT
BRANCH   1  11
ATOM      2  C   UNL     1       8.527   3.001  22.506  0.00  0.00    +0.000 C 
ATOM      3  C   UNL     1       9.658   3.281  23.486  0.00  0.00    +0.000 A 
ATOM      4  C   UNL     1      10.798   3.479  23.378  0.00  0.00    +0.000 A 
ATOM      5  C   UNL     1      11.866   4.619  23.371  0.00  0.00    +0.000 A 
ATOM      6  C   UNL     1      11.006   5.695  24.010  0.00  0.00    +0.000 A 
ATOM      7  C   UNL     1       9.742   5.858  24.674  0.00  0.00    +0.000 A 
ATOM      8  C   UNL     1       9.139   4.624  24.407  0.00  0.00    +0.000 A 
ATOM      9  C   UNL     1       8.238   3.937  25.419  0.00  0.00    +0.000 C 
ATOM     10  N   UNL     1       7.230   3.324  24.797  0.00  0.00    +0.000 N 
ATOM     11  C   UNL     1       6.899   1.891  24.889  0.00  0.00    +0.000 C 
ATOM     12  O   UNL     1       5.632   1.891  25.052  0.00  0.00    +0.000 OA
ATOM     13  C   UNL     1       7.285   3.430  23.391  0.00  0.00    +0.000 C 
BRANCH   2  17
ATOM     14  C   UNL     1       7.907  -0.659  20.547  0.00  0.00    +0.000 A 
ATOM     15  C   UNL     1       6.891   0.491  20.542  0.00  0.00    +0.000 A 
ATOM     16  C   UNL     1       7.012   1.773  21.170  0.00  0.00    +0.000 A 
ATOM     17  C   UNL     1       8.412   1.851  21.970  0.00  0.00    +0.000 A 
ATOM     18  C   UNL     1       9.291   0.734  22.324  0.00  0.00    +0.000 A 
ATOM     19  C   UNL     1       9.184  -0.131  21.088  0.00  0.00    +0.000 A 
ENDBRANCH   2  17
ENDBRANCH   1  11
BRANCH   1  20
ATOM     20  C   UNL     1       7.212   0.209  26.828  0.00  0.00    +0.000 C 
ATOM     21  O   UNL     1       7.609   0.301  28.060  0.00  0.00    +0.000 OA
ATOM     22  N   UNL     1       6.935  -1.110  26.555  0.00  0.00    +0.000 N 
ATOM     23  C   UNL     1       8.073  -2.037  26.423  0.00  0.00    +0.000 C 
ATOM     24  C   UNL     1       7.717  -3.490  26.671  0.00  0.00    +0.000 C 
ATOM     25  N   UNL     1       6.458  -3.891  26.481  0.00  0.00    +0.000 NA
ATOM     26  C   UNL     1       5.463  -2.945  26.289  0.00  0.00    +0.000 C 
ATOM     27  C   UNL     1       5.793  -1.719  27.232  0.00  0.00    +0.000 C 
BRANCH  25  28
ATOM     28  S   UNL     1       6.025  -5.359  25.871  0.00  0.00    +0.000 S 
ATOM     29  O   UNL     1       6.227  -6.380  26.805  0.00  0.00    +0.000 OA
ATOM     30  O   UNL     1       4.431  -5.151  25.922  0.00  0.00    +0.000 OA
BRANCH  28  31
ATOM     31  C   UNL     1       6.255  -5.417  24.213  0.00  0.00    +0.000 A 
ATOM     32  C   UNL     1       5.021  -4.827  23.588  0.00  0.00    +0.000 A 
ATOM     33  C   UNL     1       4.977  -3.782  22.529  0.00  0.00    +0.000 A 
ATOM     34  C   UNL     1       6.394  -3.424  22.263  0.00  0.00    +0.000 A 
ATOM     35  C   UNL     1       7.696  -3.759  22.687  0.00  0.00    +0.000 A 
ATOM     36  C   UNL     1       7.489  -4.994  23.633  0.00  0.00    +0.000 A 
ATOM     37  F   UNL     1       8.079  -5.952  22.818  0.00  0.00    +0.000 F 
ENDBRANCH  28  31
ENDBRANCH  25  28
ENDBRANCH   1  20
TORSDOF 5
ENDMDL
MODEL 2
REMARK VINA RESULT:      -8.7      2.127      4.467
REMARK  Name = 
REMARK  5 active torsions:
REMARK  status: ('A' for Active; 'I' for Inactive)
REMARK    1  A    between atoms: C_7  and  C_8
REMARK    2  A    between atoms: C_24  and  C_26
REMARK    3  A    between atoms: C_26  and  C_29
REMARK    4  A    between atoms: N_38  and  S_39
REMARK    5  A    between atoms: S_39  and  C_42
REMARK                            x       y       z     vdW  Elec       q    Type
REMARK                         _______ _______ _______ _____ _____    ______ ____
ROOT
ATOM      1  C   UNL     1       7.268  -0.645  24.296  0.00  0.00    +0.000 C 
ENDROOT
BRANCH   1  11
ATOM      2  C   UNL     1       8.356   1.434  21.205  0.00  0.00    +0.000 C 
ATOM      3  C   UNL     1       6.879   1.103  21.052  0.00  0.00    +0.000 A 
ATOM      4  C   UNL     1       5.970   1.640  20.566  0.00  0.00    +0.000 A 
ATOM      5  C   UNL     1       5.070   1.652  19.289  0.00  0.00    +0.000 A 
ATOM      6  C   UNL     1       5.461   0.283  18.763  0.00  0.00    +0.000 A 
ATOM      7  C   UNL     1       6.181  -0.896  19.161  0.00  0.00    +0.000 A 
ATOM      8  C   UNL     1       6.831  -0.437  20.311  0.00  0.00    +0.000 A 
ATOM      9  C   UNL     1       7.056  -1.333  21.517  0.00  0.00    +0.000 C 
ATOM     10  N   UNL     1       8.240  -1.070  22.073  0.00  0.00    +0.000 N 
ATOM     11  C   UNL     1       8.469  -0.666  23.471  0.00  0.00    +0.000 C 
ATOM     12  O   UNL     1       9.456  -1.393  23.830  0.00  0.00    +0.000 OA
ATOM     13  C   UNL     1       8.940  -0.020  21.441  0.00  0.00    +0.000 C 
BRANCH   2  17
ATOM     14  C   UNL     1       9.923   4.212  23.933  0.00  0.00    +0.000 A 
ATOM     15  C   UNL     1      10.763   3.128  23.247  0.00  0.00    +0.000 A 
ATOM     16  C   UNL     1      10.326   2.144  22.301  0.00  0.00    +0.000 A 
ATOM     17  C   UNL     1       8.736   2.294  22.064  0.00  0.00    +0.000 A 
ATOM     18  C   UNL     1       7.787   3.045  22.889  0.00  0.00    +0.000 A 
ATOM     19  C   UNL     1       8.606   4.264  23.249  0.00  0.00    +0.000 A 
ENDBRANCH   2  17
ENDBRANCH   1  11
BRANCH   1  20
ATOM     20  C   UNL     1       7.168  -1.261  25.625  0.00  0.00    +0.000 C 
ATOM     21  O   UNL     1       8.108  -1.073  26.500  0.00  0.00    +0.000 OA
ATOM     22  N   UNL     1       6.623  -2.507  25.829  0.00  0.00    +0.000 N 
ATOM     23  C   UNL     1       7.430  -3.680  25.448  0.00  0.00    +0.000 C 
ATOM     24  C   UNL     1       7.044  -4.955  26.172  0.00  0.00    +0.000 C 
ATOM     25  N   UNL     1       5.804  -5.080  26.650  0.00  0.00    +0.000 NA
ATOM     26  C   UNL     1       4.971  -3.973  26.683  0.00  0.00    +0.000 C 
ATOM     27  C   UNL     1       5.866  -2.724  27.061  0.00  0.00    +0.000 C 
BRANCH  25  28
ATOM     28  S   UNL     1       4.944  -6.486  26.666  0.00  0.00    +0.000 S 
ATOM     29  O   UNL     1       5.290  -7.283  27.762  0.00  0.00    +0.000 OA
ATOM     30  O   UNL     1       3.530  -5.867  27.117  0.00  0.00    +0.000 OA
BRANCH  28  31
ATOM     31  C   UNL     1       4.561  -6.979  25.112  0.00  0.00    +0.000 A 
ATOM     32  C   UNL     1       3.230  -7.676  25.199  0.00  0.00    +0.000 A 
ATOM     33  C   UNL     1       2.046  -7.436  24.331  0.00  0.00    +0.000 A 
ATOM     34  C   UNL     1       2.444  -6.344  23.406  0.00  0.00    +0.000 A 
ATOM     35  C   UNL     1       3.546  -5.513  23.118  0.00  0.00    +0.000 A 
ATOM     36  C   UNL     1       4.705  -6.085  24.007  0.00  0.00    +0.000 A 
ATOM     37  F   UNL     1       5.492  -6.592  22.981  0.00  0.00    +0.000 F 
ENDBRANCH  28  31
ENDBRANCH  25  28
ENDBRANCH   1  20
TORSDOF 5
ENDMDL
MODEL 3
REMARK VINA RESULT:      -8.6      2.528      4.919
REMARK  Name = 
REMARK  5 active torsions:
REMARK  status: ('A' for Active; 'I' for Inactive)
REMARK    1  A    between atoms: C_7  and  C_8
REMARK    2  A    between atoms: C_24  and  C_26
REMARK    3  A    between atoms: C_26  and  C_29
REMARK    4  A    between atoms: N_38  and  S_39
REMARK    5  A    between atoms: S_39  and  C_42
REMARK                            x       y       z     vdW  Elec       q    Type
REMARK                         _______ _______ _______ _____ _____    ______ ____
ROOT
ATOM      1  C   UNL     1       8.606  -0.951  24.008  0.00  0.00    +0.000 C 
ENDROOT
BRANCH   1  11
ATOM      2  C   UNL     1       8.264   2.286  21.894  0.00  0.00    +0.000 C 
ATOM      3  C   UNL     1       7.240   1.282  21.385  0.00  0.00    +0.000 A 
ATOM      4  C   UNL     1       6.180   1.367  20.915  0.00  0.00    +0.000 A 
ATOM      5  C   UNL     1       5.418   1.321  19.552  0.00  0.00    +0.000 A 
ATOM      6  C   UNL     1       6.516   0.660  18.738  0.00  0.00    +0.000 A 
ATOM      7  C   UNL     1       7.786   0.009  18.907  0.00  0.00    +0.000 A 
ATOM      8  C   UNL     1       8.072   0.324  20.239  0.00  0.00    +0.000 A 
ATOM      9  C   UNL     1       8.787  -0.651  21.159  0.00  0.00    +0.000 C 
ATOM     10  N   UNL     1       9.615   0.005  21.974  0.00  0.00    +0.000 N 
ATOM     11  C   UNL     1       9.590  -0.035  23.446  0.00  0.00    +0.000 C 
ATOM     12  O   UNL     1      10.821  -0.180  23.757  0.00  0.00    +0.000 OA
ATOM     13  C   UNL     1       9.579   1.406  21.808  0.00  0.00    +0.000 C 
BRANCH   2  17
ATOM     14  C   UNL     1       7.966   4.381  25.519  0.00  0.00    +0.000 A 
ATOM     15  C   UNL     1       9.216   4.395  24.629  0.00  0.00    +0.000 A 
ATOM     16  C   UNL     1       9.412   3.724  23.379  0.00  0.00    +0.000 A 
ATOM     17  C   UNL     1       8.095   2.861  23.018  0.00  0.00    +0.000 A 
ATOM     18  C   UNL     1       6.999   2.504  23.921  0.00  0.00    +0.000 A 
ATOM     19  C   UNL     1       6.862   3.769  24.738  0.00  0.00    +0.000 A 
ENDBRANCH   2  17
ENDBRANCH   1  11
BRANCH   1  20
ATOM     20  C   UNL     1       8.852  -2.376  24.261  0.00  0.00    +0.000 C 
ATOM     21  O   UNL     1       9.817  -2.987  23.645  0.00  0.00    +0.000 OA
ATOM     22  N   UNL     1       7.840  -3.278  24.492  0.00  0.00    +0.000 N 
ATOM     23  C   UNL     1       7.037  -3.717  23.338  0.00  0.00    +0.000 C 
ATOM     24  C   UNL     1       6.350  -5.054  23.538  0.00  0.00    +0.000 C 
ATOM     25  N   UNL     1       6.082  -5.467  24.779  0.00  0.00    +0.000 NA
ATOM     26  C   UNL     1       6.634  -4.791  25.856  0.00  0.00    +0.000 C 
ATOM     27  C   UNL     1       8.098  -4.360  25.440  0.00  0.00    +0.000 C 
BRANCH  25  28
ATOM     28  S   UNL     1       4.733  -6.307  25.217  0.00  0.00    +0.000 S 
ATOM     29  O   UNL     1       4.583  -7.466  24.449  0.00  0.00    +0.000 OA
ATOM     30  O   UNL     1       5.282  -6.881  26.614  0.00  0.00    +0.000 OA
BRANCH  28  31
ATOM     31  C   UNL     1       3.537  -5.279  25.777  0.00  0.00    +0.000 A 
ATOM     32  C   UNL     1       3.546  -5.387  27.278  0.00  0.00    +0.000 A 
ATOM     33  C   UNL     1       3.563  -4.259  28.248  0.00  0.00    +0.000 A 
ATOM     34  C   UNL     1       3.613  -3.024  27.423  0.00  0.00    +0.000 A 
ATOM     35  C   UNL     1       3.646  -2.622  26.072  0.00  0.00    +0.000 A 
ATOM     36  C   UNL     1       3.418  -3.949  25.268  0.00  0.00    +0.000 A 
ATOM     37  F   UNL     1       2.154  -3.653  24.775  0.00  0.00    +0.000 F 
ENDBRANCH  28  31
ENDBRANCH  25  28
ENDBRANCH   1  20
TORSDOF 5
ENDMDL
MODEL 4
REMARK VINA RESULT:      -8.5      1.941      2.644
REMARK  Name = 
REMARK  5 active torsions:
REMARK  status: ('A' for Active; 'I' for Inactive)
REMARK    1  A    between atoms: C_7  and  C_8
REMARK    2  A    between atoms: C_24  and  C_26
REMARK    3  A    between atoms: C_26  and  C_29
REMARK    4  A    between atoms: N_38  and  S_39
REMARK    5  A    between atoms: S_39  and  C_42
REMARK                            x       y       z     vdW  Elec       q    Type
REMARK                         _______ _______ _______ _____ _____    ______ ____
ROOT
ATOM      1  C   UNL     1       7.552   1.366  25.782  0.00  0.00    +0.000 C 
ENDROOT
BRANCH   1  11
ATOM      2  C   UNL     1       8.520   3.083  22.438  0.00  0.00    +0.000 C 
ATOM      3  C   UNL     1       9.669   3.278  23.417  0.00  0.00    +0.000 A 
ATOM      4  C   UNL     1      10.823   3.369  23.310  0.00  0.00    +0.000 A 
ATOM      5  C   UNL     1      11.991   4.406  23.286  0.00  0.00    +0.000 A 
ATOM      6  C   UNL     1      11.232   5.568  23.901  0.00  0.00    +0.000 A 
ATOM      7  C   UNL     1       9.986   5.859  24.556  0.00  0.00    +0.000 A 
ATOM      8  C   UNL     1       9.274   4.681  24.311  0.00  0.00    +0.000 A 
ATOM      9  C   UNL     1       8.311   4.098  25.332  0.00  0.00    +0.000 C 
ATOM     10  N   UNL     1       7.253   3.568  24.717  0.00  0.00    +0.000 N 
ATOM     11  C   UNL     1       6.793   2.173  24.835  0.00  0.00    +0.000 C 
ATOM     12  O   UNL     1       5.530   2.292  24.993  0.00  0.00    +0.000 OA
ATOM     13  C   UNL     1       7.320   3.642  23.310  0.00  0.00    +0.000 C 
BRANCH   2  17
ATOM     14  C   UNL     1       8.098  -0.786  20.868  0.00  0.00    +0.000 A 
ATOM     15  C   UNL     1       9.439  -0.193  21.320  0.00  0.00    +0.000 A 
ATOM     16  C   UNL     1       9.684   1.105  21.873  0.00  0.00    +0.000 A 
ATOM     17  C   UNL     1       8.302   1.938  21.924  0.00  0.00    +0.000 A 
ATOM     18  C   UNL     1       7.052   1.619  21.230  0.00  0.00    +0.000 A 
ATOM     19  C   UNL     1       7.020   0.113  21.352  0.00  0.00    +0.000 A 
ENDBRANCH   2  17
ENDBRANCH   1  11
BRANCH   1  20
ATOM     20  C   UNL     1       7.191  -0.002  26.176  0.00  0.00    +0.000 C 
ATOM     21  O   UNL     1       7.801  -0.572  27.170  0.00  0.00    +0.000 OA
ATOM     22  N   UNL     1       6.835  -0.970  25.267  0.00  0.00    +0.000 N 
ATOM     23  C   UNL     1       7.907  -1.584  24.464  0.00  0.00    +0.000 C 
ATOM     24  C   UNL     1       7.559  -2.956  23.920  0.00  0.00    +0.000 C 
ATOM     25  N   UNL     1       6.277  -3.280  23.745  0.00  0.00    +0.000 NA
ATOM     26  C   UNL     1       5.290  -2.462  24.272  0.00  0.00    +0.000 C 
ATOM     27  C   UNL     1       5.813  -1.934  25.668  0.00  0.00    +0.000 C 
BRANCH  25  28
ATOM     28  S   UNL     1       5.703  -4.200  22.503  0.00  0.00    +0.000 S 
ATOM     29  O   UNL     1       5.533  -3.440  21.342  0.00  0.00    +0.000 OA
ATOM     30  O   UNL     1       7.056  -5.012  22.195  0.00  0.00    +0.000 OA
BRANCH  28  31
ATOM     31  C   UNL     1       4.741  -5.448  23.070  0.00  0.00    +0.000 A 
ATOM     32  C   UNL     1       5.487  -6.080  24.214  0.00  0.00    +0.000 A 
ATOM     33  C   UNL     1       4.940  -6.396  25.561  0.00  0.00    +0.000 A 
ATOM     34  C   UNL     1       3.534  -5.918  25.543  0.00  0.00    +0.000 A 
ATOM     35  C   UNL     1       2.611  -5.291  24.681  0.00  0.00    +0.000 A 
ATOM     36  C   UNL     1       3.344  -5.249  23.295  0.00  0.00    +0.000 A 
ATOM     37  F   UNL     1       2.538  -6.164  22.631  0.00  0.00    +0.000 F 
ENDBRANCH  28  31
ENDBRANCH  25  28
ENDBRANCH   1  20
TORSDOF 5
ENDMDL
MODEL 5
REMARK VINA RESULT:      -8.3      1.432      3.838
REMARK  Name = 
REMARK  5 active torsions:
REMARK  status: ('A' for Active; 'I' for Inactive)
REMARK    1  A    between atoms: C_7  and  C_8
REMARK    2  A    between atoms: C_24  and  C_26
REMARK    3  A    between atoms: C_26  and  C_29
REMARK    4  A    between atoms: N_38  and  S_39
REMARK    5  A    between atoms: S_39  and  C_42
REMARK                            x       y       z     vdW  Elec       q    Type
REMARK                         _______ _______ _______ _____ _____    ______ ____
ROOT
ATOM      1  C   UNL     1       8.157   0.562  25.435  0.00  0.00    +0.000 C 
ENDROOT
BRANCH   1  11
ATOM      2  C   UNL     1       9.092   2.311  22.099  0.00  0.00    +0.000 C 
ATOM      3  C   UNL     1       7.709   1.697  21.936  0.00  0.00    +0.000 A 
ATOM      4  C   UNL     1       6.759   1.979  21.328  0.00  0.00    +0.000 A 
ATOM      5  C   UNL     1       5.967   1.633  20.027  0.00  0.00    +0.000 A 
ATOM      6  C   UNL     1       6.627   0.294  19.749  0.00  0.00    +0.000 A 
ATOM      7  C   UNL     1       7.508  -0.659  20.365  0.00  0.00    +0.000 A 
ATOM      8  C   UNL     1       7.983   0.080  21.453  0.00  0.00    +0.000 A 
ATOM      9  C   UNL     1       8.272  -0.567  22.797  0.00  0.00    +0.000 C 
ATOM     10  N   UNL     1       9.348  -0.010  23.356  0.00  0.00    +0.000 N 
ATOM     11  C   UNL     1       9.400   0.636  24.679  0.00  0.00    +0.000 C 
ATOM     12  O   UNL     1      10.469   0.164  25.195  0.00  0.00    +0.000 OA
ATOM     13  C   UNL     1       9.900   1.041  22.594  0.00  0.00    +0.000 C 
BRANCH   2  17
ATOM     14  C   UNL     1       9.943   5.728  24.384  0.00  0.00    +0.000 A 
ATOM     15  C   UNL     1      11.020   4.784  23.832  0.00  0.00    +0.000 A 
ATOM     16  C   UNL     1      10.832   3.605  23.040  0.00  0.00    +0.000 A 
ATOM     17  C   UNL     1       9.253   3.346  22.824  0.00  0.00    +0.000 A 
ATOM     18  C   UNL     1       8.148   3.963  23.560  0.00  0.00    +0.000 A 
ATOM     19  C   UNL     1       8.656   5.377  23.731  0.00  0.00    +0.000 A 
ENDBRANCH   2  17
ENDBRANCH   1  11
BRANCH   1  20
ATOM     20  C   UNL     1       7.875  -0.444  26.466  0.00  0.00    +0.000 C 
ATOM     21  O   UNL     1       8.689  -0.594  27.466  0.00  0.00    +0.000 OA
ATOM     22  N   UNL     1       7.301  -1.661  26.183  0.00  0.00    +0.000 N 
ATOM     23  C   UNL     1       8.146  -2.686  25.546  0.00  0.00    +0.000 C 
ATOM     24  C   UNL     1       7.659  -4.106  25.760  0.00  0.00    +0.000 C 
ATOM     25  N   UNL     1       6.366  -4.318  26.011  0.00  0.00    +0.000 NA
ATOM     26  C   UNL     1       5.542  -3.241  26.298  0.00  0.00    +0.000 C 
ATOM     27  C   UNL     1       6.384  -2.226  27.171  0.00  0.00    +0.000 C 
BRANCH  25  28
ATOM     28  S   UNL     1       5.503  -5.611  25.460  0.00  0.00    +0.000 S 
ATOM     29  O   UNL     1       5.610  -6.702  26.328  0.00  0.00    +0.000 OA
ATOM     30  O   UNL     1       4.035  -5.045  25.789  0.00  0.00    +0.000 OA
BRANCH  28  31
ATOM     31  C   UNL     1       5.438  -5.625  23.787  0.00  0.00    +0.000 A 
ATOM     32  C   UNL     1       4.760  -4.348  23.373  0.00  0.00    +0.000 A 
ATOM     33  C   UNL     1       5.234  -3.387  22.340  0.00  0.00    +0.000 A 
ATOM     34  C   UNL     1       6.524  -3.935  21.848  0.00  0.00    +0.000 A 
ATOM     35  C   UNL     1       7.387  -5.031  22.053  0.00  0.00    +0.000 A 
ATOM     36  C   UNL     1       6.587  -5.978  23.015  0.00  0.00    +0.000 A 
ATOM     37  F   UNL     1       6.356  -7.007  22.111  0.00  0.00    +0.000 F 
ENDBRANCH  28  31
ENDBRANCH  25  28
ENDBRANCH   1  20
TORSDOF 5
ENDMDL
MODEL 6
REMARK VINA RESULT:      -7.8      3.048      8.118
REMARK  Name = 
REMARK  5 active torsions:
REMARK  status: ('A' for Active; 'I' for Inactive)
REMARK    1  A    between atoms: C_7  and  C_8
REMARK    2  A    between atoms: C_24  and  C_26
REMARK    3  A    between atoms: C_26  and  C_29
REMARK    4  A    between atoms: N_38  and  S_39
REMARK    5  A    between atoms: S_39  and  C_42
REMARK                            x       y       z     vdW  Elec       q    Type
REMARK                         _______ _______ _______ _____ _____    ______ ____
ROOT
ATOM      1  C   UNL     1       4.583  -2.646  27.389  0.00  0.00    +0.000 C 
ENDROOT
BRANCH   1  11
ATOM      2  C   UNL     1       5.220  -6.048  25.633  0.00  0.00    +0.000 C 
ATOM      3  C   UNL     1       4.017  -5.394  24.968  0.00  0.00    +0.000 A 
ATOM      4  C   UNL     1       3.578  -5.400  23.892  0.00  0.00    +0.000 A 
ATOM      5  C   UNL     1       2.455  -6.035  23.011  0.00  0.00    +0.000 A 
ATOM      6  C   UNL     1       1.587  -6.549  24.145  0.00  0.00    +0.000 A 
ATOM      7  C   UNL     1       1.456  -6.459  25.573  0.00  0.00    +0.000 A 
ATOM      8  C   UNL     1       2.669  -5.852  25.914  0.00  0.00    +0.000 A 
ATOM      9  C   UNL     1       2.771  -4.847  27.050  0.00  0.00    +0.000 C 
ATOM     10  N   UNL     1       3.927  -5.000  27.698  0.00  0.00    +0.000 N 
ATOM     11  C   UNL     1       4.951  -3.961  27.898  0.00  0.00    +0.000 C 
ATOM     12  O   UNL     1       5.261  -4.085  29.131  0.00  0.00    +0.000 OA
ATOM     13  C   UNL     1       4.756  -6.001  27.147  0.00  0.00    +0.000 C 
BRANCH   2  17
ATOM     14  C   UNL     1       9.175  -4.695  25.256  0.00  0.00    +0.000 A 
ATOM     15  C   UNL     1       8.574  -5.209  26.571  0.00  0.00    +0.000 A 
ATOM     16  C   UNL     1       7.246  -5.696  26.798  0.00  0.00    +0.000 A 
ATOM     17  C   UNL     1       6.392  -5.591  25.432  0.00  0.00    +0.000 A 
ATOM     18  C   UNL     1       6.736  -4.826  24.232  0.00  0.00    +0.000 A 
ATOM     19  C   UNL     1       8.231  -5.039  24.162  0.00  0.00    +0.000 A 
ENDBRANCH   2  17
ENDBRANCH   1  11
BRANCH   1  20
ATOM     20  C   UNL     1       5.534  -1.550  27.168  0.00  0.00    +0.000 C 
ATOM     21  O   UNL     1       5.186  -0.327  27.428  0.00  0.00    +0.000 OA
ATOM     22  N   UNL     1       6.429  -1.538  26.124  0.00  0.00    +0.000 N 
ATOM     23  C   UNL     1       5.909  -1.233  24.779  0.00  0.00    +0.000 C 
ATOM     24  C   UNL     1       6.957  -0.706  23.818  0.00  0.00    +0.000 C 
ATOM     25  N   UNL     1       8.239  -1.014  24.023  0.00  0.00    +0.000 NA
ATOM     26  C   UNL     1       8.615  -1.607  25.218  0.00  0.00    +0.000 C 
ATOM     27  C   UNL     1       7.744  -0.948  26.363  0.00  0.00    +0.000 C 
BRANCH  25  28
ATOM     28  S   UNL     1       9.332  -1.315  22.826  0.00  0.00    +0.000 S 
ATOM     29  O   UNL     1      10.378  -2.124  23.283  0.00  0.00    +0.000 OA
ATOM     30  O   UNL     1       8.440  -2.346  21.974  0.00  0.00    +0.000 OA
BRANCH  28  31
ATOM     31  C   UNL     1       9.412  -0.039  21.745  0.00  0.00    +0.000 A 
ATOM     32  C   UNL     1       8.418  -0.338  20.655  0.00  0.00    +0.000 A 
ATOM     33  C   UNL     1       7.387   0.590  20.117  0.00  0.00    +0.000 A 
ATOM     34  C   UNL     1       7.522   1.839  20.910  0.00  0.00    +0.000 A 
ATOM     35  C   UNL     1       8.291   2.381  21.960  0.00  0.00    +0.000 A 
ATOM     36  C   UNL     1       9.413   1.312  22.209  0.00  0.00    +0.000 A 
ATOM     37  F   UNL     1      10.487   2.059  21.743  0.00  0.00    +0.000 F 
ENDBRANCH  28  31
ENDBRANCH  25  28
ENDBRANCH   1  20
TORSDOF 5
ENDMDL
MODEL 7
REMARK VINA RESULT:      -7.8      3.072      7.968
REMARK  Name = 
REMARK  5 active torsions:
REMARK  status: ('A' for Active; 'I' for Inactive)
REMARK    1  A    between atoms: C_7  and  C_8
REMARK    2  A    between atoms: C_24  and  C_26
REMARK    3  A    between atoms: C_26  and  C_29
REMARK    4  A    between atoms: N_38  and  S_39
REMARK    5  A    between atoms: S_39  and  C_42
REMARK                            x       y       z     vdW  Elec       q    Type
REMARK                         _______ _______ _______ _____ _____    ______ ____
ROOT
ATOM      1  C   UNL     1       7.517  -2.678  26.789  0.00  0.00    +0.000 C 
ENDROOT
BRANCH   1  11
ATOM      2  C   UNL     1       5.185  -5.350  25.212  0.00  0.00    +0.000 C 
ATOM      3  C   UNL     1       4.379  -4.571  26.240  0.00  0.00    +0.000 A 
ATOM      4  C   UNL     1       3.262  -4.264  26.337  0.00  0.00    +0.000 A 
ATOM      5  C   UNL     1       1.926  -4.642  27.053  0.00  0.00    +0.000 A 
ATOM      6  C   UNL     1       2.529  -5.512  28.141  0.00  0.00    +0.000 A 
ATOM      7  C   UNL     1       3.804  -5.869  28.699  0.00  0.00    +0.000 A 
ATOM      8  C   UNL     1       4.673  -5.349  27.734  0.00  0.00    +0.000 A 
ATOM      9  C   UNL     1       6.013  -4.738  28.107  0.00  0.00    +0.000 C 
ATOM     10  N   UNL     1       6.929  -5.038  27.185  0.00  0.00    +0.000 N 
ATOM     11  C   UNL     1       7.729  -4.070  26.415  0.00  0.00    +0.000 C 
ATOM     12  O   UNL     1       8.910  -4.554  26.469  0.00  0.00    +0.000 OA
ATOM     13  C   UNL     1       6.419  -5.787  26.104  0.00  0.00    +0.000 C 
BRANCH   2  17
ATOM     14  C   UNL     1       6.273  -3.874  21.436  0.00  0.00    +0.000 A 
ATOM     15  C   UNL     1       6.508  -5.323  21.883  0.00  0.00    +0.000 A 
ATOM     16  C   UNL     1       6.168  -5.921  23.139  0.00  0.00    +0.000 A 
ATOM     17  C   UNL     1       5.508  -4.808  24.105  0.00  0.00    +0.000 A 
ATOM     18  C   UNL     1       5.537  -3.355  23.927  0.00  0.00    +0.000 A 
ATOM     19  C   UNL     1       5.372  -3.236  22.429  0.00  0.00    +0.000 A 
ENDBRANCH   2  17
ENDBRANCH   1  11
BRANCH   1  20
ATOM     20  C   UNL     1       8.429  -1.581  26.443  0.00  0.00    +0.000 C 
ATOM     21  O   UNL     1       8.975  -0.871  27.382  0.00  0.00    +0.000 OA
ATOM     22  N   UNL     1       8.251  -0.782  25.338  0.00  0.00    +0.000 N 
ATOM     23  C   UNL     1       7.192   0.241  25.396  0.00  0.00    +0.000 C 
ATOM     24  C   UNL     1       7.398   1.396  24.435  0.00  0.00    +0.000 C 
ATOM     25  N   UNL     1       8.130   1.203  23.336  0.00  0.00    +0.000 NA
ATOM     26  C   UNL     1       8.871   0.039  23.206  0.00  0.00    +0.000 C 
ATOM     27  C   UNL     1       9.445  -0.314  24.638  0.00  0.00    +0.000 C 
BRANCH  25  28
ATOM     28  S   UNL     1       7.818   1.890  21.870  0.00  0.00    +0.000 S 
ATOM     29  O   UNL     1       7.747   3.283  21.965  0.00  0.00    +0.000 OA
ATOM     30  O   UNL     1       9.267   1.657  21.212  0.00  0.00    +0.000 OA
BRANCH  28  31
ATOM     31  C   UNL     1       6.898   0.873  20.910  0.00  0.00    +0.000 A 
ATOM     32  C   UNL     1       5.635   1.620  20.580  0.00  0.00    +0.000 A 
ATOM     33  C   UNL     1       5.030   1.787  19.231  0.00  0.00    +0.000 A 
ATOM     34  C   UNL     1       5.955   1.103  18.291  0.00  0.00    +0.000 A 
ATOM     35  C   UNL     1       7.167   0.382  18.293  0.00  0.00    +0.000 A 
ATOM     36  C   UNL     1       7.489   0.172  19.814  0.00  0.00    +0.000 A 
ATOM     37  F   UNL     1       7.285  -1.202  19.858  0.00  0.00    +0.000 F 
ENDBRANCH  28  31
ENDBRANCH  25  28
ENDBRANCH   1  20
TORSDOF 5
ENDMDL
MODEL 8
REMARK VINA RESULT:      -7.8      1.920      2.461
REMARK  Name = 
REMARK  5 active torsions:
REMARK  status: ('A' for Active; 'I' for Inactive)
REMARK    1  A    between atoms: C_7  and  C_8
REMARK    2  A    between atoms: C_24  and  C_26
REMARK    3  A    between atoms: C_26  and  C_29
REMARK    4  A    between atoms: N_38  and  S_39
REMARK    5  A    between atoms: S_39  and  C_42
REMARK                            x       y       z     vdW  Elec       q    Type
REMARK                         _______ _______ _______ _____ _____    ______ ____
ROOT
ATOM      1  C   UNL     1       7.653   1.447  25.794  0.00  0.00    +0.000 C 
ENDROOT
BRANCH   1  11
ATOM      2  C   UNL     1       9.085   2.493  22.341  0.00  0.00    +0.000 C 
ATOM      3  C   UNL     1       9.992   3.068  23.420  0.00  0.00    +0.000 A 
ATOM      4  C   UNL     1      11.128   3.302  23.490  0.00  0.00    +0.000 A 
ATOM      5  C   UNL     1      12.166   4.467  23.406  0.00  0.00    +0.000 A 
ATOM      6  C   UNL     1      11.185   5.613  23.577  0.00  0.00    +0.000 A 
ATOM      7  C   UNL     1       9.811   5.857  23.920  0.00  0.00    +0.000 A 
ATOM      8  C   UNL     1       9.286   4.563  23.858  0.00  0.00    +0.000 A 
ATOM      9  C   UNL     1       8.204   4.090  24.815  0.00  0.00    +0.000 C 
ATOM     10  N   UNL     1       7.348   3.286  24.182  0.00  0.00    +0.000 N 
ATOM     11  C   UNL     1       7.019   1.901  24.563  0.00  0.00    +0.000 C 
ATOM     12  O   UNL     1       5.745   1.866  24.471  0.00  0.00    +0.000 OA
ATOM     13  C   UNL     1       7.686   3.051  22.832  0.00  0.00    +0.000 C 
BRANCH   2  17
ATOM     14  C   UNL     1       8.915  -1.562  21.270  0.00  0.00    +0.000 A 
ATOM     15  C   UNL     1       7.930  -0.504  20.755  0.00  0.00    +0.000 A 
ATOM     16  C   UNL     1       7.910   0.897  21.053  0.00  0.00    +0.000 A 
ATOM     17  C   UNL     1       9.092   1.243  22.098  0.00  0.00    +0.000 A 
ATOM     18  C   UNL     1       9.864   0.294  22.904  0.00  0.00    +0.000 A 
ATOM     19  C   UNL     1      10.038  -0.850  21.931  0.00  0.00    +0.000 A 
ENDBRANCH   2  17
ENDBRANCH   1  11
BRANCH   1  20
ATOM     20  C   UNL     1       7.061   0.471  26.717  0.00  0.00    +0.000 C 
ATOM     21  O   UNL     1       7.379   0.493  27.975  0.00  0.00    +0.000 OA
ATOM     22  N   UNL     1       6.790  -0.827  26.356  0.00  0.00    +0.000 N 
ATOM     23  C   UNL     1       7.925  -1.760  26.246  0.00  0.00    +0.000 C 
ATOM     24  C   UNL     1       7.540  -3.219  26.392  0.00  0.00    +0.000 C 
ATOM     25  N   UNL     1       6.293  -3.594  26.102  0.00  0.00    +0.000 NA
ATOM     26  C   UNL     1       5.321  -2.627  25.899  0.00  0.00    +0.000 C 
ATOM     27  C   UNL     1       5.601  -1.457  26.926  0.00  0.00    +0.000 C 
BRANCH  25  28
ATOM     28  S   UNL     1       5.886  -5.022  25.387  0.00  0.00    +0.000 S 
ATOM     29  O   UNL     1       6.786  -5.359  24.371  0.00  0.00    +0.000 OA
ATOM     30  O   UNL     1       6.332  -5.997  26.586  0.00  0.00    +0.000 OA
BRANCH  28  31
ATOM     31  C   UNL     1       4.229  -5.265  25.420  0.00  0.00    +0.000 A 
ATOM     32  C   UNL     1       3.895  -6.106  24.219  0.00  0.00    +0.000 A 
ATOM     33  C   UNL     1       3.058  -7.336  24.203  0.00  0.00    +0.000 A 
ATOM     34  C   UNL     1       2.669  -7.572  25.618  0.00  0.00    +0.000 A 
ATOM     35  C   UNL     1       2.845  -7.012  26.900  0.00  0.00    +0.000 A 
ATOM     36  C   UNL     1       3.572  -5.648  26.629  0.00  0.00    +0.000 A 
ATOM     37  F   UNL     1       2.525  -4.806  26.984  0.00  0.00    +0.000 F 
ENDBRANCH  28  31
ENDBRANCH  25  28
ENDBRANCH   1  20
TORSDOF 5
ENDMDL
MODEL 9
REMARK VINA RESULT:      -7.7      3.084      8.051
REMARK  Name = 
REMARK  5 active torsions:
REMARK  status: ('A' for Active; 'I' for Inactive)
REMARK    1  A    between atoms: C_7  and  C_8
REMARK    2  A    between atoms: C_24  and  C_26
REMARK    3  A    between atoms: C_26  and  C_29
REMARK    4  A    between atoms: N_38  and  S_39
REMARK    5  A    between atoms: S_39  and  C_42
REMARK                            x       y       z     vdW  Elec       q    Type
REMARK                         _______ _______ _______ _____ _____    ______ ____
ROOT
ATOM      1  C   UNL     1       4.150  -2.375  25.561  0.00  0.00    +0.000 C 
ENDROOT
BRANCH   1  11
ATOM      2  C   UNL     1       5.195  -6.106  25.326  0.00  0.00    +0.000 C 
ATOM      3  C   UNL     1       6.129  -5.299  24.435  0.00  0.00    +0.000 A 
ATOM      4  C   UNL     1       7.241  -5.404  24.113  0.00  0.00    +0.000 A 
ATOM      5  C   UNL     1       8.156  -5.877  22.938  0.00  0.00    +0.000 A 
ATOM      6  C   UNL     1       7.090  -5.894  21.857  0.00  0.00    +0.000 A 
ATOM      7  C   UNL     1       5.732  -5.483  21.630  0.00  0.00    +0.000 A 
ATOM      8  C   UNL     1       5.325  -5.172  22.931  0.00  0.00    +0.000 A 
ATOM      9  C   UNL     1       4.373  -4.024  23.221  0.00  0.00    +0.000 C 
ATOM     10  N   UNL     1       3.547  -4.349  24.216  0.00  0.00    +0.000 N 
ATOM     11  C   UNL     1       3.379  -3.609  25.478  0.00  0.00    +0.000 C 
ATOM     12  O   UNL     1       2.111  -3.559  25.624  0.00  0.00    +0.000 OA
ATOM     13  C   UNL     1       3.795  -5.627  24.761  0.00  0.00    +0.000 C 
BRANCH   2  17
ATOM     14  C   UNL     1       5.251  -6.052  29.523  0.00  0.00    +0.000 A 
ATOM     15  C   UNL     1       4.003  -6.383  28.693  0.00  0.00    +0.000 A 
ATOM     16  C   UNL     1       3.886  -6.435  27.266  0.00  0.00    +0.000 A 
ATOM     17  C   UNL     1       5.298  -6.034  26.594  0.00  0.00    +0.000 A 
ATOM     18  C   UNL     1       6.437  -5.388  27.250  0.00  0.00    +0.000 A 
ATOM     19  C   UNL     1       6.419  -6.057  28.605  0.00  0.00    +0.000 A 
ENDBRANCH   2  17
ENDBRANCH   1  11
BRANCH   1  20
ATOM     20  C   UNL     1       5.456  -2.260  26.223  0.00  0.00    +0.000 C 
ATOM     21  O   UNL     1       5.518  -2.081  27.507  0.00  0.00    +0.000 OA
ATOM     22  N   UNL     1       6.534  -1.636  25.641  0.00  0.00    +0.000 N 
ATOM     23  C   UNL     1       6.532  -0.163  25.596  0.00  0.00    +0.000 C 
ATOM     24  C   UNL     1       7.912   0.451  25.467  0.00  0.00    +0.000 C 
ATOM     25  N   UNL     1       8.894  -0.267  24.919  0.00  0.00    +0.000 NA
ATOM     26  C   UNL     1       8.703  -1.621  24.692  0.00  0.00    +0.000 C 
ATOM     27  C   UNL     1       7.862  -2.187  25.907  0.00  0.00    +0.000 C 
BRANCH  25  28
ATOM     28  S   UNL     1      10.078   0.348  23.951  0.00  0.00    +0.000 S 
ATOM     29  O   UNL     1      11.211   0.698  24.691  0.00  0.00    +0.000 OA
ATOM     30  O   UNL     1      10.526  -1.031  23.257  0.00  0.00    +0.000 OA
BRANCH  28  31
ATOM     31  C   UNL     1       9.426   1.139  22.627  0.00  0.00    +0.000 A 
ATOM     32  C   UNL     1       9.471   0.165  21.481  0.00  0.00    +0.000 A 
ATOM     33  C   UNL     1       8.352  -0.172  20.559  0.00  0.00    +0.000 A 
ATOM     34  C   UNL     1       7.189   0.618  21.039  0.00  0.00    +0.000 A 
ATOM     35  C   UNL     1       6.845   1.540  22.049  0.00  0.00    +0.000 A 
ATOM     36  C   UNL     1       8.210   1.879  22.744  0.00  0.00    +0.000 A 
ATOM     37  F   UNL     1       8.316   3.195  22.313  0.00  0.00    +0.000 F 
ENDBRANCH  28  31
ENDBRANCH  25  28
ENDBRANCH   1  20
TORSDOF 5
ENDMDL
