MODEL 1
REMARK VINA RESULT:      -8.8      0.000      0.000
REMARK  Name = 
REMARK  8 active torsions:
REMARK  status: ('A' for Active; 'I' for Inactive)
REMARK    1  A    between atoms: C_7  and  S_8
REMARK    2  A    between atoms: S_8  and  N_11
REMARK    3  A    between atoms: N_18  and  O_19
REMARK    4  A    between atoms: O_19  and  C_20
REMARK    5  A    between atoms: C_20  and  C_22
REMARK    6  A    between atoms: C_29  and  N_30
REMARK    7  A    between atoms: N_30  and  S_32
REMARK    8  A    between atoms: S_32  and  C_35
REMARK                            x       y       z     vdW  Elec       q    Type
REMARK                         _______ _______ _______ _____ _____    ______ ____
ROOT
ATOM      1  N   UNL     1       7.958  -2.109  24.612  0.00  0.00    +0.000 NA
ATOM      2  C   UNL     1       8.480  -1.735  25.838  0.00  0.00    +0.000 C 
ATOM      3  C   UNL     1       8.255  -0.220  26.059  0.00  0.00    +0.000 C 
ATOM      4  N   UNL     1       7.919   0.382  24.855  0.00  0.00    +0.000 NA
ATOM      5  C   UNL     1       6.723  -0.071  24.293  0.00  0.00    +0.000 C 
ATOM      6  C   UNL     1       6.684  -1.611  24.329  0.00  0.00    +0.000 C 
ENDROOT
BRANCH   1   7
ATOM      7  S   UNL     1       8.659  -3.101  23.676  0.00  0.00    +0.000 S 
ATOM      8  O   UNL     1      10.084  -3.137  23.857  0.00  0.00    +0.000 OA
ATOM      9  O   UNL     1       8.239  -2.978  22.290  0.00  0.00    +0.000 OA
BRANCH   7  14
ATOM     10  C   UNL     1       5.199  -5.089  24.434  0.00  0.00    +0.000 A 
ATOM     11  C   UNL     1       5.863  -5.120  23.087  0.00  0.00    +0.000 A 
ATOM     12  C   UNL     1       7.299  -5.048  22.793  0.00  0.00    +0.000 A 
ATOM     13  F   UNL     1       7.609  -6.369  22.499  0.00  0.00    +0.000 F 
ATOM     14  C   UNL     1       8.123  -4.860  24.093  0.00  0.00    +0.000 A 
ATOM     15  C   UNL     1       7.631  -4.937  25.456  0.00  0.00    +0.000 A 
ATOM     16  F   UNL     1       8.279  -5.919  26.135  0.00  0.00    +0.000 F 
ATOM     17  C   UNL     1       6.119  -5.315  25.567  0.00  0.00    +0.000 A 
ENDBRANCH   7  14
ENDBRANCH   1   7
BRANCH   4  18
ATOM     18  O   UNL     1       8.694   1.355  24.272  0.00  0.00    +0.000 OA
BRANCH  18  19
ATOM     19  C   UNL     1       8.029   2.324  23.629  0.00  0.00    +0.000 C 
ATOM     20  O   UNL     1       7.760   3.368  24.213  0.00  0.00    +0.000 OA
BRANCH  19  21
ATOM     21  C   UNL     1       8.461   2.409  22.235  0.00  0.00    +0.000 A 
ATOM     22  C   UNL     1       9.615   1.518  22.231  0.00  0.00    +0.000 A 
ATOM     23  C   UNL     1       9.819   0.135  21.663  0.00  0.00    +0.000 A 
ATOM     24  C   UNL     1       8.498  -0.130  20.996  0.00  0.00    +0.000 A 
ATOM     25  C   UNL     1       7.352   0.584  20.522  0.00  0.00    +0.000 A 
ATOM     26  C   UNL     1       7.480   1.976  21.156  0.00  0.00    +0.000 A 
BRANCH  25  27
ATOM     27  N   UNL     1       7.606   0.591  19.161  0.00  0.00    +0.000 N 
ATOM     28  H   UNL     1       8.213  -0.124  18.967  0.00  0.00    +0.000 HD
BRANCH  27  29
ATOM     29  S   UNL     1       6.314   0.567  18.270  0.00  0.00    +0.000 S 
ATOM     30  O   UNL     1       6.087  -0.854  17.914  0.00  0.00    +0.000 OA
ATOM     31  O   UNL     1       6.509   1.399  17.103  0.00  0.00    +0.000 OA
ATOM     32  C   UNL     1       4.805   1.082  19.040  0.00  0.00    +0.000 C 
ENDBRANCH  27  29
ENDBRANCH  25  27
ENDBRANCH  19  21
ENDBRANCH  18  19
ENDBRANCH   4  18
TORSDOF 7
ENDMDL
MODEL 2
REMARK VINA RESULT:      -8.7      1.810      2.346
REMARK  Name = 
REMARK  8 active torsions:
REMARK  status: ('A' for Active; 'I' for Inactive)
REMARK    1  A    between atoms: C_7  and  S_8
REMARK    2  A    between atoms: S_8  and  N_11
REMARK    3  A    between atoms: N_18  and  O_19
REMARK    4  A    between atoms: O_19  and  C_20
REMARK    5  A    between atoms: C_20  and  C_22
REMARK    6  A    between atoms: C_29  and  N_30
REMARK    7  A    between atoms: N_30  and  S_32
REMARK    8  A    between atoms: S_32  and  C_35
REMARK                            x       y       z     vdW  Elec       q    Type
REMARK                         _______ _______ _______ _____ _____    ______ ____
ROOT
ATOM      1  N   UNL     1       8.918  -3.367  25.024  0.00  0.00    +0.000 NA
ATOM      2  C   UNL     1       9.846  -2.760  24.197  0.00  0.00    +0.000 C 
ATOM      3  C   UNL     1       9.716  -1.222  24.309  0.00  0.00    +0.000 C 
ATOM      4  N   UNL     1       8.513  -0.899  24.920  0.00  0.00    +0.000 NA
ATOM      5  C   UNL     1       8.387  -1.358  26.234  0.00  0.00    +0.000 C 
ATOM      6  C   UNL     1       8.827  -2.833  26.312  0.00  0.00    +0.000 C 
ENDROOT
BRANCH   1   7
ATOM      7  S   UNL     1       8.130  -4.618  24.616  0.00  0.00    +0.000 S 
ATOM      8  O   UNL     1       7.046  -4.918  25.511  0.00  0.00    +0.000 OA
ATOM      9  O   UNL     1       8.978  -5.757  24.307  0.00  0.00    +0.000 OA
BRANCH   7  14
ATOM     10  C   UNL     1       4.426  -5.129  23.030  0.00  0.00    +0.000 A 
ATOM     11  C   UNL     1       4.900  -3.801  23.549  0.00  0.00    +0.000 A 
ATOM     12  C   UNL     1       6.270  -3.274  23.543  0.00  0.00    +0.000 A 
ATOM     13  F   UNL     1       6.235  -2.366  22.493  0.00  0.00    +0.000 F 
ATOM     14  C   UNL     1       7.263  -4.316  22.969  0.00  0.00    +0.000 A 
ATOM     15  C   UNL     1       6.933  -5.572  22.324  0.00  0.00    +0.000 A 
ATOM     16  F   UNL     1       7.418  -5.593  21.056  0.00  0.00    +0.000 F 
ATOM     17  C   UNL     1       5.399  -5.821  22.162  0.00  0.00    +0.000 A 
ENDBRANCH   7  14
ENDBRANCH   1   7
BRANCH   4  18
ATOM     18  O   UNL     1       7.533  -0.174  24.288  0.00  0.00    +0.000 OA
BRANCH  18  19
ATOM     19  C   UNL     1       7.604   1.156  24.433  0.00  0.00    +0.000 C 
ATOM     20  O   UNL     1       8.358   1.637  25.272  0.00  0.00    +0.000 OA
BRANCH  19  21
ATOM     21  C   UNL     1       7.504   1.823  23.136  0.00  0.00    +0.000 A 
ATOM     22  C   UNL     1       8.903   2.128  22.855  0.00  0.00    +0.000 A 
ATOM     23  C   UNL     1       9.889   1.529  21.884  0.00  0.00    +0.000 A 
ATOM     24  C   UNL     1       9.048   0.511  21.166  0.00  0.00    +0.000 A 
ATOM     25  C   UNL     1       7.670   0.200  20.938  0.00  0.00    +0.000 A 
ATOM     26  C   UNL     1       6.912   1.039  21.975  0.00  0.00    +0.000 A 
BRANCH  25  27
ATOM     27  N   UNL     1       7.515   0.677  19.647  0.00  0.00    +0.000 N 
ATOM     28  H   UNL     1       8.286   0.419  19.140  0.00  0.00    +0.000 HD
BRANCH  27  29
ATOM     29  S   UNL     1       6.160   0.263  18.970  0.00  0.00    +0.000 S 
ATOM     30  O   UNL     1       5.720  -0.974  19.658  0.00  0.00    +0.000 OA
ATOM     31  O   UNL     1       6.363   0.060  17.553  0.00  0.00    +0.000 OA
ATOM     32  C   UNL     1       4.804   1.385  19.155  0.00  0.00    +0.000 C 
ENDBRANCH  27  29
ENDBRANCH  25  27
ENDBRANCH  19  21
ENDBRANCH  18  19
ENDBRANCH   4  18
TORSDOF 7
ENDMDL
MODEL 3
REMARK VINA RESULT:      -8.5      1.869      2.207
REMARK  Name = 
REMARK  8 active torsions:
REMARK  status: ('A' for Active; 'I' for Inactive)
REMARK    1  A    between atoms: C_7  and  S_8
REMARK    2  A    between atoms: S_8  and  N_11
REMARK    3  A    between atoms: N_18  and  O_19
REMARK    4  A    between atoms: O_19  and  C_20
REMARK    5  A    between atoms: C_20  and  C_22
REMARK    6  A    between atoms: C_29  and  N_30
REMARK    7  A    between atoms: N_30  and  S_32
REMARK    8  A    between atoms: S_32  and  C_35
REMARK                            x       y       z     vdW  Elec       q    Type
REMARK                         _______ _______ _______ _____ _____    ______ ____
ROOT
ATOM      1  N   UNL     1       6.551  -1.650  25.987  0.00  0.00    +0.000 NA
ATOM      2  C   UNL     1       7.765  -1.832  26.625  0.00  0.00    +0.000 C 
ATOM      3  C   UNL     1       8.676  -0.606  26.371  0.00  0.00    +0.000 C 
ATOM      4  N   UNL     1       8.165   0.144  25.322  0.00  0.00    +0.000 NA
ATOM      5  C   UNL     1       6.901   0.690  25.560  0.00  0.00    +0.000 C 
ATOM      6  C   UNL     1       5.974  -0.388  26.152  0.00  0.00    +0.000 C 
ENDROOT
BRANCH   1   7
ATOM      7  S   UNL     1       5.816  -2.780  25.256  0.00  0.00    +0.000 S 
ATOM      8  O   UNL     1       4.468  -2.436  24.896  0.00  0.00    +0.000 OA
ATOM      9  O   UNL     1       5.946  -4.070  25.912  0.00  0.00    +0.000 OA
BRANCH   7  14
ATOM     10  C   UNL     1       6.228  -5.872  22.654  0.00  0.00    +0.000 A 
ATOM     11  C   UNL     1       5.206  -4.788  22.457  0.00  0.00    +0.000 A 
ATOM     12  C   UNL     1       5.310  -3.377  22.846  0.00  0.00    +0.000 A 
ATOM     13  F   UNL     1       5.576  -2.752  21.635  0.00  0.00    +0.000 F 
ATOM     14  C   UNL     1       6.641  -3.103  23.591  0.00  0.00    +0.000 A 
ATOM     15  C   UNL     1       7.760  -4.014  23.740  0.00  0.00    +0.000 A 
ATOM     16  F   UNL     1       8.881  -3.476  23.193  0.00  0.00    +0.000 F 
ATOM     17  C   UNL     1       7.575  -5.376  22.999  0.00  0.00    +0.000 A 
ENDBRANCH   7  14
ENDBRANCH   1   7
BRANCH   4  18
ATOM     18  O   UNL     1       8.854   0.345  24.151  0.00  0.00    +0.000 OA
BRANCH  18  19
ATOM     19  C   UNL     1       8.901   1.610  23.710  0.00  0.00    +0.000 C 
ATOM     20  O   UNL     1       9.342   2.491  24.438  0.00  0.00    +0.000 OA
BRANCH  19  21
ATOM     21  C   UNL     1       9.255   1.648  22.292  0.00  0.00    +0.000 A 
ATOM     22  C   UNL     1       9.974   0.390  22.134  0.00  0.00    +0.000 A 
ATOM     23  C   UNL     1       9.597  -0.909  21.466  0.00  0.00    +0.000 A 
ATOM     24  C   UNL     1       8.241  -0.591  20.899  0.00  0.00    +0.000 A 
ATOM     25  C   UNL     1       7.436   0.545  20.570  0.00  0.00    +0.000 A 
ATOM     26  C   UNL     1       8.125   1.720  21.276  0.00  0.00    +0.000 A 
BRANCH  25  27
ATOM     27  N   UNL     1       7.597   0.577  19.195  0.00  0.00    +0.000 N 
ATOM     28  H   UNL     1       8.183  -0.139  18.947  0.00  0.00    +0.000 HD
BRANCH  27  29
ATOM     29  S   UNL     1       6.248   0.581  18.393  0.00  0.00    +0.000 S 
ATOM     30  O   UNL     1       5.877  -0.842  18.208  0.00  0.00    +0.000 OA
ATOM     31  O   UNL     1       6.430   1.268  17.134  0.00  0.00    +0.000 OA
ATOM     32  C   UNL     1       4.847   1.308  19.195  0.00  0.00    +0.000 C 
ENDBRANCH  27  29
ENDBRANCH  25  27
ENDBRANCH  19  21
ENDBRANCH  18  19
ENDBRANCH   4  18
TORSDOF 7
ENDMDL
MODEL 4
REMARK VINA RESULT:      -8.4      1.217      1.557
REMARK  Name = 
REMARK  8 active torsions:
REMARK  status: ('A' for Active; 'I' for Inactive)
REMARK    1  A    between atoms: C_7  and  S_8
REMARK    2  A    between atoms: S_8  and  N_11
REMARK    3  A    between atoms: N_18  and  O_19
REMARK    4  A    between atoms: O_19  and  C_20
REMARK    5  A    between atoms: C_20  and  C_22
REMARK    6  A    between atoms: C_29  and  N_30
REMARK    7  A    between atoms: N_30  and  S_32
REMARK    8  A    between atoms: S_32  and  C_35
REMARK                            x       y       z     vdW  Elec       q    Type
REMARK                         _______ _______ _______ _____ _____    ______ ____
ROOT
ATOM      1  N   UNL     1       8.596  -2.254  24.451  0.00  0.00    +0.000 NA
ATOM      2  C   UNL     1       9.852  -1.916  23.982  0.00  0.00    +0.000 C 
ATOM      3  C   UNL     1      10.300  -0.574  24.609  0.00  0.00    +0.000 C 
ATOM      4  N   UNL     1       9.205   0.064  25.175  0.00  0.00    +0.000 NA
ATOM      5  C   UNL     1       8.607  -0.633  26.227  0.00  0.00    +0.000 C 
ATOM      6  C   UNL     1       8.415  -2.109  25.829  0.00  0.00    +0.000 C 
ENDROOT
BRANCH   1   7
ATOM      7  S   UNL     1       7.509  -2.866  23.559  0.00  0.00    +0.000 S 
ATOM      8  O   UNL     1       7.823  -2.796  22.159  0.00  0.00    +0.000 OA
ATOM      9  O   UNL     1       6.169  -2.410  23.891  0.00  0.00    +0.000 OA
BRANCH   7  14
ATOM     10  C   UNL     1       4.720  -5.798  23.215  0.00  0.00    +0.000 A 
ATOM     11  C   UNL     1       5.791  -5.585  22.183  0.00  0.00    +0.000 A 
ATOM     12  C   UNL     1       7.156  -5.089  22.398  0.00  0.00    +0.000 A 
ATOM     13  F   UNL     1       7.912  -6.252  22.319  0.00  0.00    +0.000 F 
ATOM     14  C   UNL     1       7.384  -4.719  23.886  0.00  0.00    +0.000 A 
ATOM     15  C   UNL     1       6.492  -4.986  24.997  0.00  0.00    +0.000 A 
ATOM     16  F   UNL     1       7.113  -5.761  25.924  0.00  0.00    +0.000 F 
ATOM     17  C   UNL     1       5.211  -5.789  24.607  0.00  0.00    +0.000 A 
ENDBRANCH   7  14
ENDBRANCH   1   7
BRANCH   4  18
ATOM     18  O   UNL     1       8.757   1.288  24.743  0.00  0.00    +0.000 OA
BRANCH  18  19
ATOM     19  C   UNL     1       7.485   1.330  24.323  0.00  0.00    +0.000 C 
ATOM     20  O   UNL     1       6.590   1.587  25.121  0.00  0.00    +0.000 OA
BRANCH  19  21
ATOM     21  C   UNL     1       7.402   1.915  22.986  0.00  0.00    +0.000 A 
ATOM     22  C   UNL     1       8.803   2.204  22.704  0.00  0.00    +0.000 A 
ATOM     23  C   UNL     1       9.802   1.547  21.784  0.00  0.00    +0.000 A 
ATOM     24  C   UNL     1       8.970   0.484  21.121  0.00  0.00    +0.000 A 
ATOM     25  C   UNL     1       7.595   0.159  20.895  0.00  0.00    +0.000 A 
ATOM     26  C   UNL     1       6.824   1.060  21.869  0.00  0.00    +0.000 A 
BRANCH  25  27
ATOM     27  N   UNL     1       7.457   0.554  19.575  0.00  0.00    +0.000 N 
ATOM     28  H   UNL     1       8.213   0.229  19.086  0.00  0.00    +0.000 HD
BRANCH  27  29
ATOM     29  S   UNL     1       6.082   0.157  18.929  0.00  0.00    +0.000 S 
ATOM     30  O   UNL     1       5.606  -1.031  19.677  0.00  0.00    +0.000 OA
ATOM     31  O   UNL     1       6.264  -0.118  17.522  0.00  0.00    +0.000 OA
ATOM     32  C   UNL     1       4.766   1.333  19.072  0.00  0.00    +0.000 C 
ENDBRANCH  27  29
ENDBRANCH  25  27
ENDBRANCH  19  21
ENDBRANCH  18  19
ENDBRANCH   4  18
TORSDOF 7
ENDMDL
MODEL 5
REMARK VINA RESULT:      -7.8      2.214      3.047
REMARK  Name = 
REMARK  8 active torsions:
REMARK  status: ('A' for Active; 'I' for Inactive)
REMARK    1  A    between atoms: C_7  and  S_8
REMARK    2  A    between atoms: S_8  and  N_11
REMARK    3  A    between atoms: N_18  and  O_19
REMARK    4  A    between atoms: O_19  and  C_20
REMARK    5  A    between atoms: C_20  and  C_22
REMARK    6  A    between atoms: C_29  and  N_30
REMARK    7  A    between atoms: N_30  and  S_32
REMARK    8  A    between atoms: S_32  and  C_35
REMARK                            x       y       z     vdW  Elec       q    Type
REMARK                         _______ _______ _______ _____ _____    ______ ____
ROOT
ATOM      1  N   UNL     1       6.955  -3.855  25.061  0.00  0.00    +0.000 NA
ATOM      2  C   UNL     1       7.987  -4.600  24.520  0.00  0.00    +0.000 C 
ATOM      3  C   UNL     1       9.325  -3.842  24.695  0.00  0.00    +0.000 C 
ATOM      4  N   UNL     1       9.070  -2.517  25.019  0.00  0.00    +0.000 NA
ATOM      5  C   UNL     1       8.403  -2.334  26.232  0.00  0.00    +0.000 C 
ATOM      6  C   UNL     1       7.211  -3.306  26.320  0.00  0.00    +0.000 C 
ENDROOT
BRANCH   1   7
ATOM      7  S   UNL     1       5.577  -3.734  24.398  0.00  0.00    +0.000 S 
ATOM      8  O   UNL     1       5.651  -3.417  22.998  0.00  0.00    +0.000 OA
ATOM      9  O   UNL     1       4.649  -2.904  25.148  0.00  0.00    +0.000 OA
BRANCH   7  14
ATOM     10  C   UNL     1       1.907  -5.207  25.321  0.00  0.00    +0.000 A 
ATOM     11  C   UNL     1       2.325  -4.926  23.906  0.00  0.00    +0.000 A 
ATOM     12  C   UNL     1       3.674  -5.023  23.334  0.00  0.00    +0.000 A 
ATOM     13  F   UNL     1       3.611  -6.214  22.624  0.00  0.00    +0.000 F 
ATOM     14  C   UNL     1       4.711  -5.408  24.420  0.00  0.00    +0.000 A 
ATOM     15  C   UNL     1       4.433  -5.826  25.781  0.00  0.00    +0.000 A 
ATOM     16  F   UNL     1       4.928  -7.072  26.001  0.00  0.00    +0.000 F 
ATOM     17  C   UNL     1       2.912  -5.942  26.114  0.00  0.00    +0.000 A 
ENDBRANCH   7  14
ENDBRANCH   1   7
BRANCH   4  18
ATOM     18  O   UNL     1       9.458  -1.471  24.218  0.00  0.00    +0.000 OA
BRANCH  18  19
ATOM     19  C   UNL     1       9.522  -0.271  24.812  0.00  0.00    +0.000 C 
ATOM     20  O   UNL     1      10.597   0.142  25.230  0.00  0.00    +0.000 OA
BRANCH  19  21
ATOM     21  C   UNL     1       8.629   0.680  24.152  0.00  0.00    +0.000 A 
ATOM     22  C   UNL     1       9.574   1.679  23.664  0.00  0.00    +0.000 A 
ATOM     23  C   UNL     1      10.080   1.995  22.279  0.00  0.00    +0.000 A 
ATOM     24  C   UNL     1       9.302   1.029  21.430  0.00  0.00    +0.000 A 
ATOM     25  C   UNL     1       8.127   0.214  21.502  0.00  0.00    +0.000 A 
ATOM     26  C   UNL     1       7.779   0.176  22.996  0.00  0.00    +0.000 A 
BRANCH  25  27
ATOM     27  N   UNL     1       7.242   0.983  20.765  0.00  0.00    +0.000 N 
ATOM     28  H   UNL     1       7.678   1.807  20.541  0.00  0.00    +0.000 HD
BRANCH  27  29
ATOM     29  S   UNL     1       6.635   0.244  19.521  0.00  0.00    +0.000 S 
ATOM     30  O   UNL     1       6.201  -1.087  20.007  0.00  0.00    +0.000 OA
ATOM     31  O   UNL     1       7.628   0.149  18.475  0.00  0.00    +0.000 OA
ATOM     32  C   UNL     1       5.180   0.955  18.805  0.00  0.00    +0.000 C 
ENDBRANCH  27  29
ENDBRANCH  25  27
ENDBRANCH  19  21
ENDBRANCH  18  19
ENDBRANCH   4  18
TORSDOF 7
ENDMDL
MODEL 6
REMARK VINA RESULT:      -7.7      2.379      3.248
REMARK  Name = 
REMARK  8 active torsions:
REMARK  status: ('A' for Active; 'I' for Inactive)
REMARK    1  A    between atoms: C_7  and  S_8
REMARK    2  A    between atoms: S_8  and  N_11
REMARK    3  A    between atoms: N_18  and  O_19
REMARK    4  A    between atoms: O_19  and  C_20
REMARK    5  A    between atoms: C_20  and  C_22
REMARK    6  A    between atoms: C_29  and  N_30
REMARK    7  A    between atoms: N_30  and  S_32
REMARK    8  A    between atoms: S_32  and  C_35
REMARK                            x       y       z     vdW  Elec       q    Type
REMARK                         _______ _______ _______ _____ _____    ______ ____
ROOT
ATOM      1  N   UNL     1       7.243  -4.624  25.719  0.00  0.00    +0.000 NA
ATOM      2  C   UNL     1       8.241  -5.068  24.870  0.00  0.00    +0.000 C 
ATOM      3  C   UNL     1       9.275  -3.938  24.646  0.00  0.00    +0.000 C 
ATOM      4  N   UNL     1       8.741  -2.728  25.065  0.00  0.00    +0.000 NA
ATOM      5  C   UNL     1       8.444  -2.666  26.429  0.00  0.00    +0.000 C 
ATOM      6  C   UNL     1       7.686  -3.938  26.853  0.00  0.00    +0.000 C 
ENDROOT
BRANCH   1   7
ATOM      7  S   UNL     1       5.762  -4.962  25.513  0.00  0.00    +0.000 S 
ATOM      8  O   UNL     1       4.885  -4.190  26.349  0.00  0.00    +0.000 OA
ATOM      9  O   UNL     1       5.490  -6.390  25.527  0.00  0.00    +0.000 OA
BRANCH   7  14
ATOM     10  C   UNL     1       7.140  -5.425  21.720  0.00  0.00    +0.000 A 
ATOM     11  C   UNL     1       6.067  -6.305  22.296  0.00  0.00    +0.000 A 
ATOM     12  C   UNL     1       5.047  -5.942  23.289  0.00  0.00    +0.000 A 
ATOM     13  F   UNL     1       3.909  -5.797  22.507  0.00  0.00    +0.000 F 
ATOM     14  C   UNL     1       5.235  -4.480  23.768  0.00  0.00    +0.000 A 
ATOM     15  C   UNL     1       6.138  -3.490  23.214  0.00  0.00    +0.000 A 
ATOM     16  F   UNL     1       5.441  -2.412  22.770  0.00  0.00    +0.000 F 
ATOM     17  C   UNL     1       6.936  -3.983  21.965  0.00  0.00    +0.000 A 
ENDBRANCH   7  14
ENDBRANCH   1   7
BRANCH   4  18
ATOM     18  O   UNL     1       8.536  -1.674  24.210  0.00  0.00    +0.000 OA
BRANCH  18  19
ATOM     19  C   UNL     1       8.914  -0.470  24.664  0.00  0.00    +0.000 C 
ATOM     20  O   UNL     1      10.082  -0.281  24.985  0.00  0.00    +0.000 OA
BRANCH  19  21
ATOM     21  C   UNL     1       8.218   0.595  23.943  0.00  0.00    +0.000 A 
ATOM     22  C   UNL     1       9.334   1.406  23.470  0.00  0.00    +0.000 A 
ATOM     23  C   UNL     1       9.936   1.589  22.099  0.00  0.00    +0.000 A 
ATOM     24  C   UNL     1       9.038   0.739  21.243  0.00  0.00    +0.000 A 
ATOM     25  C   UNL     1       7.742   0.134  21.288  0.00  0.00    +0.000 A 
ATOM     26  C   UNL     1       7.338   0.203  22.767  0.00  0.00    +0.000 A 
BRANCH  25  27
ATOM     27  N   UNL     1       7.026   1.016  20.496  0.00  0.00    +0.000 N 
ATOM     28  H   UNL     1       7.613   1.728  20.237  0.00  0.00    +0.000 HD
BRANCH  27  29
ATOM     29  S   UNL     1       6.299   0.339  19.281  0.00  0.00    +0.000 S 
ATOM     30  O   UNL     1       7.292   0.294  18.181  0.00  0.00    +0.000 OA
ATOM     31  O   UNL     1       5.124   1.103  18.926  0.00  0.00    +0.000 OA
ATOM     32  C   UNL     1       5.791  -1.343  19.494  0.00  0.00    +0.000 C 
ENDBRANCH  27  29
ENDBRANCH  25  27
ENDBRANCH  19  21
ENDBRANCH  18  19
ENDBRANCH   4  18
TORSDOF 7
ENDMDL
MODEL 7
REMARK VINA RESULT:      -7.7      2.775      3.935
REMARK  Name = 
REMARK  8 active torsions:
REMARK  status: ('A' for Active; 'I' for Inactive)
REMARK    1  A    between atoms: C_7  and  S_8
REMARK    2  A    between atoms: S_8  and  N_11
REMARK    3  A    between atoms: N_18  and  O_19
REMARK    4  A    between atoms: O_19  and  C_20
REMARK    5  A    between atoms: C_20  and  C_22
REMARK    6  A    between atoms: C_29  and  N_30
REMARK    7  A    between atoms: N_30  and  S_32
REMARK    8  A    between atoms: S_32  and  C_35
REMARK                            x       y       z     vdW  Elec       q    Type
REMARK                         _______ _______ _______ _____ _____    ______ ____
ROOT
ATOM      1  N   UNL     1       7.372  -4.715  25.516  0.00  0.00    +0.000 NA
ATOM      2  C   UNL     1       6.838  -4.616  24.243  0.00  0.00    +0.000 C 
ATOM      3  C   UNL     1       7.898  -4.033  23.277  0.00  0.00    +0.000 C 
ATOM      4  N   UNL     1       8.933  -3.466  24.008  0.00  0.00    +0.000 NA
ATOM      5  C   UNL     1       9.643  -4.368  24.805  0.00  0.00    +0.000 C 
ATOM      6  C   UNL     1       8.657  -5.260  25.582  0.00  0.00    +0.000 C 
ENDROOT
BRANCH   1   7
ATOM      7  S   UNL     1       6.577  -4.375  26.782  0.00  0.00    +0.000 S 
ATOM      8  O   UNL     1       6.311  -2.970  26.920  0.00  0.00    +0.000 OA
ATOM      9  O   UNL     1       7.111  -5.000  27.981  0.00  0.00    +0.000 OA
BRANCH   7  14
ATOM     10  C   UNL     1       3.725  -5.723  29.340  0.00  0.00    +0.000 A 
ATOM     11  C   UNL     1       3.662  -4.357  28.716  0.00  0.00    +0.000 A 
ATOM     12  C   UNL     1       4.156  -3.953  27.394  0.00  0.00    +0.000 A 
ATOM     13  F   UNL     1       2.985  -3.875  26.650  0.00  0.00    +0.000 F 
ATOM     14  C   UNL     1       4.855  -5.136  26.677  0.00  0.00    +0.000 A 
ATOM     15  C   UNL     1       4.879  -6.522  27.103  0.00  0.00    +0.000 A 
ATOM     16  F   UNL     1       4.322  -7.317  26.151  0.00  0.00    +0.000 F 
ATOM     17  C   UNL     1       4.043  -6.807  28.391  0.00  0.00    +0.000 A 
ENDBRANCH   7  14
ENDBRANCH   1   7
BRANCH   4  18
ATOM     18  O   UNL     1       9.241  -2.130  23.941  0.00  0.00    +0.000 OA
BRANCH  18  19
ATOM     19  C   UNL     1       8.618  -1.340  24.826  0.00  0.00    +0.000 C 
ATOM     20  O   UNL     1       9.097  -1.184  25.944  0.00  0.00    +0.000 OA
BRANCH  19  21
ATOM     21  C   UNL     1       8.035  -0.177  24.160  0.00  0.00    +0.000 A 
ATOM     22  C   UNL     1       9.217   0.640  23.910  0.00  0.00    +0.000 A 
ATOM     23  C   UNL     1       9.978   0.952  22.645  0.00  0.00    +0.000 A 
ATOM     24  C   UNL     1       9.164   0.237  21.602  0.00  0.00    +0.000 A 
ATOM     25  C   UNL     1       7.857  -0.321  21.432  0.00  0.00    +0.000 A 
ATOM     26  C   UNL     1       7.288  -0.402  22.855  0.00  0.00    +0.000 A 
BRANCH  25  27
ATOM     27  N   UNL     1       7.259   0.670  20.672  0.00  0.00    +0.000 N 
ATOM     28  H   UNL     1       7.890   1.382  20.559  0.00  0.00    +0.000 HD
BRANCH  27  29
ATOM     29  S   UNL     1       6.653   0.158  19.317  0.00  0.00    +0.000 S 
ATOM     30  O   UNL     1       5.929  -1.095  19.639  0.00  0.00    +0.000 OA
ATOM     31  O   UNL     1       7.712  -0.053  18.356  0.00  0.00    +0.000 OA
ATOM     32  C   UNL     1       5.439   1.191  18.547  0.00  0.00    +0.000 C 
ENDBRANCH  27  29
ENDBRANCH  25  27
ENDBRANCH  19  21
ENDBRANCH  18  19
ENDBRANCH   4  18
TORSDOF 7
ENDMDL
MODEL 8
REMARK VINA RESULT:      -7.6      3.486      7.414
REMARK  Name = 
REMARK  8 active torsions:
REMARK  status: ('A' for Active; 'I' for Inactive)
REMARK    1  A    between atoms: C_7  and  S_8
REMARK    2  A    between atoms: S_8  and  N_11
REMARK    3  A    between atoms: N_18  and  O_19
REMARK    4  A    between atoms: O_19  and  C_20
REMARK    5  A    between atoms: C_20  and  C_22
REMARK    6  A    between atoms: C_29  and  N_30
REMARK    7  A    between atoms: N_30  and  S_32
REMARK    8  A    between atoms: S_32  and  C_35
REMARK                            x       y       z     vdW  Elec       q    Type
REMARK                         _______ _______ _______ _____ _____    ______ ____
ROOT
ATOM      1  N   UNL     1       9.432   0.073  22.572  0.00  0.00    +0.000 NA
ATOM      2  C   UNL     1       9.852  -1.225  22.800  0.00  0.00    +0.000 C 
ATOM      3  C   UNL     1       8.831  -2.218  22.193  0.00  0.00    +0.000 C 
ATOM      4  N   UNL     1       7.647  -1.552  21.908  0.00  0.00    +0.000 NA
ATOM      5  C   UNL     1       7.765  -0.541  20.951  0.00  0.00    +0.000 C 
ATOM      6  C   UNL     1       8.989   0.337  21.273  0.00  0.00    +0.000 C 
ENDROOT
BRANCH   1   7
ATOM      7  S   UNL     1       9.555   1.186  23.619  0.00  0.00    +0.000 S 
ATOM      8  O   UNL     1      10.630   2.100  23.347  0.00  0.00    +0.000 OA
ATOM      9  O   UNL     1       9.525   0.694  24.987  0.00  0.00    +0.000 OA
BRANCH   7  14
ATOM     10  C   UNL     1       7.439   3.523  26.180  0.00  0.00    +0.000 A 
ATOM     11  C   UNL     1       8.446   4.092  25.222  0.00  0.00    +0.000 A 
ATOM     12  C   UNL     1       8.799   3.589  23.888  0.00  0.00    +0.000 A 
ATOM     13  F   UNL     1       8.139   4.478  23.051  0.00  0.00    +0.000 F 
ATOM     14  C   UNL     1       8.024   2.285  23.564  0.00  0.00    +0.000 A 
ATOM     15  C   UNL     1       6.943   1.700  24.334  0.00  0.00    +0.000 A 
ATOM     16  F   UNL     1       5.820   1.610  23.575  0.00  0.00    +0.000 F 
ATOM     17  C   UNL     1       6.513   2.546  25.574  0.00  0.00    +0.000 A 
ENDBRANCH   7  14
ENDBRANCH   1   7
BRANCH   4  18
ATOM     18  O   UNL     1       6.455  -1.874  22.508  0.00  0.00    +0.000 OA
BRANCH  18  19
ATOM     19  C   UNL     1       5.679  -2.741  21.841  0.00  0.00    +0.000 C 
ATOM     20  O   UNL     1       5.888  -2.952  20.652  0.00  0.00    +0.000 OA
BRANCH  19  21
ATOM     21  C   UNL     1       5.328  -3.877  22.691  0.00  0.00    +0.000 A 
ATOM     22  C   UNL     1       5.961  -4.982  21.979  0.00  0.00    +0.000 A 
ATOM     23  C   UNL     1       7.188  -5.805  22.283  0.00  0.00    +0.000 A 
ATOM     24  C   UNL     1       7.624  -5.245  23.609  0.00  0.00    +0.000 A 
ATOM     25  C   UNL     1       7.098  -4.472  24.692  0.00  0.00    +0.000 A 
ATOM     26  C   UNL     1       5.804  -3.863  24.135  0.00  0.00    +0.000 A 
BRANCH  25  27
ATOM     27  N   UNL     1       6.862  -5.470  25.622  0.00  0.00    +0.000 N 
ATOM     28  H   UNL     1       7.445  -6.204  25.425  0.00  0.00    +0.000 HD
BRANCH  27  29
ATOM     29  S   UNL     1       6.952  -4.989  27.114  0.00  0.00    +0.000 S 
ATOM     30  O   UNL     1       7.935  -3.879  27.128  0.00  0.00    +0.000 OA
ATOM     31  O   UNL     1       7.357  -6.090  27.959  0.00  0.00    +0.000 OA
ATOM     32  C   UNL     1       5.483  -4.296  27.816  0.00  0.00    +0.000 C 
ENDBRANCH  27  29
ENDBRANCH  25  27
ENDBRANCH  19  21
ENDBRANCH  18  19
ENDBRANCH   4  18
TORSDOF 7
ENDMDL
MODEL 9
REMARK VINA RESULT:      -7.6      3.542      7.304
REMARK  Name = 
REMARK  8 active torsions:
REMARK  status: ('A' for Active; 'I' for Inactive)
REMARK    1  A    between atoms: C_7  and  S_8
REMARK    2  A    between atoms: S_8  and  N_11
REMARK    3  A    between atoms: N_18  and  O_19
REMARK    4  A    between atoms: O_19  and  C_20
REMARK    5  A    between atoms: C_20  and  C_22
REMARK    6  A    between atoms: C_29  and  N_30
REMARK    7  A    between atoms: N_30  and  S_32
REMARK    8  A    between atoms: S_32  and  C_35
REMARK                            x       y       z     vdW  Elec       q    Type
REMARK                         _______ _______ _______ _____ _____    ______ ____
ROOT
ATOM      1  N   UNL     1       9.155  -0.006  24.103  0.00  0.00    +0.000 NA
ATOM      2  C   UNL     1       9.271  -1.137  24.891  0.00  0.00    +0.000 C 
ATOM      3  C   UNL     1       9.535  -2.371  23.994  0.00  0.00    +0.000 C 
ATOM      4  N   UNL     1       9.242  -2.060  22.675  0.00  0.00    +0.000 NA
ATOM      5  C   UNL     1      10.038  -1.051  22.126  0.00  0.00    +0.000 C 
ATOM      6  C   UNL     1      10.128   0.131  23.109  0.00  0.00    +0.000 C 
ENDROOT
BRANCH   1   7
ATOM      7  S   UNL     1       8.118   1.092  24.368  0.00  0.00    +0.000 S 
ATOM      8  O   UNL     1       8.468   1.944  25.472  0.00  0.00    +0.000 OA
ATOM      9  O   UNL     1       6.753   0.596  24.410  0.00  0.00    +0.000 OA
BRANCH   7  14
ATOM     10  C   UNL     1       5.416   3.561  22.607  0.00  0.00    +0.000 A 
ATOM     11  C   UNL     1       6.458   4.065  23.565  0.00  0.00    +0.000 A 
ATOM     12  C   UNL     1       7.811   3.537  23.778  0.00  0.00    +0.000 A 
ATOM     13  F   UNL     1       8.600   4.460  23.105  0.00  0.00    +0.000 F 
ATOM     14  C   UNL     1       8.059   2.280  22.905  0.00  0.00    +0.000 A 
ATOM     15  C   UNL     1       7.199   1.762  21.858  0.00  0.00    +0.000 A 
ATOM     16  F   UNL     1       7.864   1.735  20.673  0.00  0.00    +0.000 F 
ATOM     17  C   UNL     1       5.936   2.637  21.579  0.00  0.00    +0.000 A 
ENDBRANCH   7  14
ENDBRANCH   1   7
BRANCH   4  18
ATOM     18  O   UNL     1       8.260  -2.703  21.963  0.00  0.00    +0.000 OA
BRANCH  18  19
ATOM     19  C   UNL     1       7.050  -2.127  21.984  0.00  0.00    +0.000 C 
ATOM     20  O   UNL     1       6.731  -1.350  21.090  0.00  0.00    +0.000 OA
BRANCH  19  21
ATOM     21  C   UNL     1       6.040  -3.064  22.472  0.00  0.00    +0.000 A 
ATOM     22  C   UNL     1       6.245  -4.204  21.585  0.00  0.00    +0.000 A 
ATOM     23  C   UNL     1       6.861  -5.562  21.815  0.00  0.00    +0.000 A 
ATOM     24  C   UNL     1       7.193  -5.514  23.281  0.00  0.00    +0.000 A 
ATOM     25  C   UNL     1       6.847  -4.772  24.454  0.00  0.00    +0.000 A 
ATOM     26  C   UNL     1       6.133  -3.523  23.919  0.00  0.00    +0.000 A 
BRANCH  25  27
ATOM     27  N   UNL     1       5.982  -5.661  25.068  0.00  0.00    +0.000 N 
ATOM     28  H   UNL     1       6.079  -6.514  24.642  0.00  0.00    +0.000 HD
BRANCH  27  29
ATOM     29  S   UNL     1       6.133  -5.726  26.629  0.00  0.00    +0.000 S 
ATOM     30  O   UNL     1       7.590  -5.775  26.897  0.00  0.00    +0.000 OA
ATOM     31  O   UNL     1       5.442  -6.889  27.139  0.00  0.00    +0.000 OA
ATOM     32  C   UNL     1       5.556  -4.325  27.544  0.00  0.00    +0.000 C 
ENDBRANCH  27  29
ENDBRANCH  25  27
ENDBRANCH  19  21
ENDBRANCH  18  19
ENDBRANCH   4  18
TORSDOF 7
ENDMDL
