MODEL 1
REMARK VINA RESULT:      -8.8      0.000      0.000
REMARK  Name = 
REMARK  5 active torsions:
REMARK  status: ('A' for Active; 'I' for Inactive)
REMARK    1  A    between atoms: C_7  and  C_8
REMARK    2  A    between atoms: C_24  and  C_26
REMARK    3  A    between atoms: N_35  and  C_36
REMARK    4  A    between atoms: C_36  and  C_39
REMARK    5  A    between atoms: C_48  and  C_49
REMARK                            x       y       z     vdW  Elec       q    Type
REMARK                         _______ _______ _______ _____ _____    ______ ____
ROOT
ATOM      1  C   UNL     1       6.146  -4.332  26.337  0.00  0.00    +0.000 C 
ATOM      2  C   UNL     1       7.649  -4.210  26.772  0.00  0.00    +0.000 A 
ATOM      3  C   UNL     1       8.238  -5.003  25.964  0.00  0.00    +0.000 A 
ATOM      4  C   UNL     1       9.006  -5.212  24.677  0.00  0.00    +0.000 A 
ATOM      5  C   UNL     1       9.158  -3.716  24.358  0.00  0.00    +0.000 A 
ATOM      6  C   UNL     1       9.204  -2.597  25.005  0.00  0.00    +0.000 A 
ATOM      7  C   UNL     1       8.423  -2.901  26.526  0.00  0.00    +0.000 A 
ATOM      8  C   UNL     1       7.557  -1.788  26.326  0.00  0.00    +0.000 C 
ATOM      9  N   UNL     1       6.585  -1.993  25.463  0.00  0.00    +0.000 N 
ATOM     10  C   UNL     1       6.328  -1.423  24.238  0.00  0.00    +0.000 C 
ATOM     11  O   UNL     1       5.579  -0.521  24.325  0.00  0.00    +0.000 OA
ATOM     12  C   UNL     1       5.842  -3.048  25.765  0.00  0.00    +0.000 C 
ENDROOT
BRANCH  10  13
ATOM     13  C   UNL     1       7.490  -1.226  23.644  0.00  0.00    +0.000 C 
ATOM     14  O   UNL     1       7.938  -0.116  23.807  0.00  0.00    +0.000 OA
ATOM     15  N   UNL     1       7.679  -1.658  22.355  0.00  0.00    +0.000 N 
ATOM     16  C   UNL     1       6.968  -0.869  21.338  0.00  0.00    +0.000 C 
ATOM     17  C   UNL     1       7.102   0.598  21.512  0.00  0.00    +0.000 C 
ATOM     18  N   UNL     1       8.303   1.208  21.819  0.00  0.00    +0.000 NA
ATOM     19  C   UNL     1       9.483   0.565  21.756  0.00  0.00    +0.000 C 
ATOM     20  C   UNL     1       9.705  -0.810  21.263  0.00  0.00    +0.000 C 
ATOM     21  C   UNL     1       9.054  -1.962  21.957  0.00  0.00    +0.000 C 
BRANCH  18  22
ATOM     22  C   UNL     1       8.256   2.468  22.335  0.00  0.00    +0.000 C 
BRANCH  22  23
ATOM     23  C   UNL     1       8.891   3.218  23.363  0.00  0.00    +0.000 A 
ATOM     24  C   UNL     1      10.424   3.026  23.211  0.00  0.00    +0.000 A 
ATOM     25  C   UNL     1      11.441   4.072  23.464  0.00  0.00    +0.000 A 
ATOM     26  C   UNL     1      10.683   5.311  23.818  0.00  0.00    +0.000 A 
ATOM     27  C   UNL     1       9.376   5.745  23.976  0.00  0.00    +0.000 A 
ATOM     28  C   UNL     1       8.535   4.389  24.114  0.00  0.00    +0.000 A 
ATOM     29  C   UNL     1       8.207   4.343  25.649  0.00  0.00    +0.000 C 
ENDBRANCH  22  23
ENDBRANCH  18  22
ENDBRANCH  10  13
BRANCH   1  33
ATOM     30  C   UNL     1       3.264  -6.946  25.333  0.00  0.00    +0.000 A 
ATOM     31  C   UNL     1       3.910  -6.768  26.691  0.00  0.00    +0.000 A 
ATOM     32  C   UNL     1       5.208  -6.359  27.025  0.00  0.00    +0.000 A 
ATOM     33  C   UNL     1       5.927  -5.549  25.717  0.00  0.00    +0.000 A 
ATOM     34  C   UNL     1       5.486  -5.834  24.375  0.00  0.00    +0.000 A 
ATOM     35  C   UNL     1       3.978  -6.315  24.236  0.00  0.00    +0.000 A 
ENDBRANCH   1  33
TORSDOF 4
ENDMDL
MODEL 2
REMARK VINA RESULT:      -8.6      1.473      8.503
REMARK  Name = 
REMARK  5 active torsions:
REMARK  status: ('A' for Active; 'I' for Inactive)
REMARK    1  A    between atoms: C_7  and  C_8
REMARK    2  A    between atoms: C_24  and  C_26
REMARK    3  A    between atoms: N_35  and  C_36
REMARK    4  A    between atoms: C_36  and  C_39
REMARK    5  A    between atoms: C_48  and  C_49
REMARK                            x       y       z     vdW  Elec       q    Type
REMARK                         _______ _______ _______ _____ _____    ______ ____
ROOT
ATOM      1  C   UNL     1       7.341   1.934  22.411  0.00  0.00    +0.000 C 
ATOM      2  C   UNL     1       8.038   1.145  21.247  0.00  0.00    +0.000 A 
ATOM      3  C   UNL     1       9.269   1.187  21.580  0.00  0.00    +0.000 A 
ATOM      4  C   UNL     1      10.457   0.528  22.247  0.00  0.00    +0.000 A 
ATOM      5  C   UNL     1       9.751  -0.813  22.501  0.00  0.00    +0.000 A 
ATOM      6  C   UNL     1       8.792  -1.507  21.979  0.00  0.00    +0.000 A 
ATOM      7  C   UNL     1       7.817  -0.372  21.099  0.00  0.00    +0.000 A 
ATOM      8  C   UNL     1       6.649  -0.819  21.779  0.00  0.00    +0.000 C 
ATOM      9  N   UNL     1       6.532  -0.391  23.017  0.00  0.00    +0.000 N 
ATOM     10  C   UNL     1       6.545  -1.069  24.214  0.00  0.00    +0.000 C 
ATOM     11  O   UNL     1       5.459  -1.329  24.580  0.00  0.00    +0.000 OA
ATOM     12  C   UNL     1       6.588   0.930  23.113  0.00  0.00    +0.000 C 
ENDROOT
BRANCH  10  13
ATOM     13  C   UNL     1       7.426  -2.045  24.104  0.00  0.00    +0.000 C 
ATOM     14  O   UNL     1       6.962  -3.073  23.670  0.00  0.00    +0.000 OA
ATOM     15  N   UNL     1       8.309  -2.286  25.127  0.00  0.00    +0.000 N 
ATOM     16  C   UNL     1       7.705  -2.898  26.320  0.00  0.00    +0.000 C 
ATOM     17  C   UNL     1       6.797  -4.033  26.022  0.00  0.00    +0.000 C 
ATOM     18  N   UNL     1       7.107  -5.015  25.101  0.00  0.00    +0.000 NA
ATOM     19  C   UNL     1       8.337  -5.159  24.575  0.00  0.00    +0.000 C 
ATOM     20  C   UNL     1       9.545  -4.397  24.955  0.00  0.00    +0.000 C 
ATOM     21  C   UNL     1       9.580  -2.915  24.766  0.00  0.00    +0.000 C 
BRANCH  18  22
ATOM     22  C   UNL     1       6.082  -5.770  24.616  0.00  0.00    +0.000 C 
BRANCH  22  23
ATOM     23  C   UNL     1       4.693  -5.958  24.863  0.00  0.00    +0.000 A 
ATOM     24  C   UNL     1       3.916  -5.393  23.643  0.00  0.00    +0.000 A 
ATOM     25  C   UNL     1       2.677  -5.978  23.080  0.00  0.00    +0.000 A 
ATOM     26  C   UNL     1       2.401  -7.213  23.878  0.00  0.00    +0.000 A 
ATOM     27  C   UNL     1       2.932  -7.930  24.939  0.00  0.00    +0.000 A 
ATOM     28  C   UNL     1       3.932  -6.894  25.641  0.00  0.00    +0.000 A 
ATOM     29  C   UNL     1       3.143  -6.477  26.933  0.00  0.00    +0.000 C 
ENDBRANCH  22  23
ENDBRANCH  18  22
ENDBRANCH  10  13
BRANCH   1  33
ATOM     30  C   UNL     1       7.590   5.116  24.854  0.00  0.00    +0.000 A 
ATOM     31  C   UNL     1       7.217   5.111  23.387  0.00  0.00    +0.000 A 
ATOM     32  C   UNL     1       7.624   4.254  22.356  0.00  0.00    +0.000 A 
ATOM     33  C   UNL     1       8.239   2.808  22.999  0.00  0.00    +0.000 A 
ATOM     34  C   UNL     1       8.797   2.801  24.327  0.00  0.00    +0.000 A 
ATOM     35  C   UNL     1       8.205   3.886  25.326  0.00  0.00    +0.000 A 
ENDBRANCH   1  33
TORSDOF 4
ENDMDL
MODEL 3
REMARK VINA RESULT:      -8.4      1.728      8.730
REMARK  Name = 
REMARK  5 active torsions:
REMARK  status: ('A' for Active; 'I' for Inactive)
REMARK    1  A    between atoms: C_7  and  C_8
REMARK    2  A    between atoms: C_24  and  C_26
REMARK    3  A    between atoms: N_35  and  C_36
REMARK    4  A    between atoms: C_36  and  C_39
REMARK    5  A    between atoms: C_48  and  C_49
REMARK                            x       y       z     vdW  Elec       q    Type
REMARK                         _______ _______ _______ _____ _____    ______ ____
ROOT
ATOM      1  C   UNL     1       8.556   3.144  24.435  0.00  0.00    +0.000 C 
ATOM      2  C   UNL     1       7.080   2.959  23.936  0.00  0.00    +0.000 A 
ATOM      3  C   UNL     1       7.228   2.809  22.678  0.00  0.00    +0.000 A 
ATOM      4  C   UNL     1       7.360   1.885  21.486  0.00  0.00    +0.000 A 
ATOM      5  C   UNL     1       7.071   0.597  22.273  0.00  0.00    +0.000 A 
ATOM      6  C   UNL     1       6.426   0.247  23.337  0.00  0.00    +0.000 A 
ATOM      7  C   UNL     1       6.293   1.686  24.301  0.00  0.00    +0.000 A 
ATOM      8  C   UNL     1       6.846   1.008  25.424  0.00  0.00    +0.000 C 
ATOM      9  N   UNL     1       8.148   0.823  25.370  0.00  0.00    +0.000 N 
ATOM     10  C   UNL     1       8.895  -0.329  25.289  0.00  0.00    +0.000 C 
ATOM     11  O   UNL     1       9.246  -0.698  26.348  0.00  0.00    +0.000 OA
ATOM     12  C   UNL     1       8.822   1.950  25.192  0.00  0.00    +0.000 C 
ENDROOT
BRANCH  10  13
ATOM     13  C   UNL     1       8.239  -1.169  24.511  0.00  0.00    +0.000 C 
ATOM     14  O   UNL     1       7.370  -1.784  25.082  0.00  0.00    +0.000 OA
ATOM     15  N   UNL     1       8.930  -1.973  23.639  0.00  0.00    +0.000 N 
ATOM     16  C   UNL     1       9.674  -3.068  24.279  0.00  0.00    +0.000 C 
ATOM     17  C   UNL     1       8.894  -3.810  25.300  0.00  0.00    +0.000 C 
ATOM     18  N   UNL     1       7.580  -4.191  25.106  0.00  0.00    +0.000 NA
ATOM     19  C   UNL     1       6.975  -4.133  23.906  0.00  0.00    +0.000 C 
ATOM     20  C   UNL     1       7.612  -3.774  22.621  0.00  0.00    +0.000 C 
ATOM     21  C   UNL     1       8.212  -2.417  22.443  0.00  0.00    +0.000 C 
BRANCH  18  22
ATOM     22  C   UNL     1       6.846  -4.504  26.209  0.00  0.00    +0.000 C 
BRANCH  22  23
ATOM     23  C   UNL     1       5.983  -5.546  26.650  0.00  0.00    +0.000 A 
ATOM     24  C   UNL     1       6.471  -6.004  28.050  0.00  0.00    +0.000 A 
ATOM     25  C   UNL     1       5.589  -6.426  29.162  0.00  0.00    +0.000 A 
ATOM     26  C   UNL     1       4.187  -6.254  28.667  0.00  0.00    +0.000 A 
ATOM     27  C   UNL     1       3.507  -5.843  27.532  0.00  0.00    +0.000 A 
ATOM     28  C   UNL     1       4.617  -5.897  26.378  0.00  0.00    +0.000 A 
ATOM     29  C   UNL     1       4.218  -7.187  25.576  0.00  0.00    +0.000 C 
ENDBRANCH  22  23
ENDBRANCH  18  22
ENDBRANCH  10  13
BRANCH   1  33
ATOM     30  C   UNL     1      11.820   5.362  23.673  0.00  0.00    +0.000 A 
ATOM     31  C   UNL     1      10.427   5.859  24.000  0.00  0.00    +0.000 A 
ATOM     32  C   UNL     1       9.178   5.283  23.729  0.00  0.00    +0.000 A 
ATOM     33  C   UNL     1       9.350   3.625  23.408  0.00  0.00    +0.000 A 
ATOM     34  C   UNL     1      10.601   3.125  22.897  0.00  0.00    +0.000 A 
ATOM     35  C   UNL     1      11.891   3.957  23.307  0.00  0.00    +0.000 A 
ENDBRANCH   1  33
TORSDOF 4
ENDMDL
MODEL 4
REMARK VINA RESULT:      -8.2      1.160      1.940
REMARK  Name = 
REMARK  5 active torsions:
REMARK  status: ('A' for Active; 'I' for Inactive)
REMARK    1  A    between atoms: C_7  and  C_8
REMARK    2  A    between atoms: C_24  and  C_26
REMARK    3  A    between atoms: N_35  and  C_36
REMARK    4  A    between atoms: C_36  and  C_39
REMARK    5  A    between atoms: C_48  and  C_49
REMARK                            x       y       z     vdW  Elec       q    Type
REMARK                         _______ _______ _______ _____ _____    ______ ____
ROOT
ATOM      1  C   UNL     1       6.366  -3.994  25.977  0.00  0.00    +0.000 C 
ATOM      2  C   UNL     1       7.792  -3.740  26.580  0.00  0.00    +0.000 A 
ATOM      3  C   UNL     1       8.550  -4.392  25.788  0.00  0.00    +0.000 A 
ATOM      4  C   UNL     1       9.463  -4.405  24.581  0.00  0.00    +0.000 A 
ATOM      5  C   UNL     1       9.464  -2.880  24.387  0.00  0.00    +0.000 A 
ATOM      6  C   UNL     1       9.310  -1.821  25.113  0.00  0.00    +0.000 A 
ATOM      7  C   UNL     1       8.423  -2.336  26.514  0.00  0.00    +0.000 A 
ATOM      8  C   UNL     1       7.454  -1.315  26.300  0.00  0.00    +0.000 C 
ATOM      9  N   UNL     1       6.605  -1.556  25.324  0.00  0.00    +0.000 N 
ATOM     10  C   UNL     1       6.405  -0.918  24.121  0.00  0.00    +0.000 C 
ATOM     11  O   UNL     1       5.547  -0.117  24.189  0.00  0.00    +0.000 OA
ATOM     12  C   UNL     1       5.968  -2.709  25.467  0.00  0.00    +0.000 C 
ENDROOT
BRANCH  10  13
ATOM     13  C   UNL     1       7.587  -0.543  23.673  0.00  0.00    +0.000 C 
ATOM     14  O   UNL     1       7.852   0.613  23.904  0.00  0.00    +0.000 OA
ATOM     15  N   UNL     1       7.984  -0.905  22.410  0.00  0.00    +0.000 N 
ATOM     16  C   UNL     1       7.292  -0.190  21.326  0.00  0.00    +0.000 C 
ATOM     17  C   UNL     1       7.194   1.275  21.536  0.00  0.00    +0.000 C 
ATOM     18  N   UNL     1       8.253   2.036  21.993  0.00  0.00    +0.000 NA
ATOM     19  C   UNL     1       9.512   1.566  22.062  0.00  0.00    +0.000 C 
ATOM     20  C   UNL     1       9.983   0.251  21.580  0.00  0.00    +0.000 C 
ATOM     21  C   UNL     1       9.426  -1.002  22.174  0.00  0.00    +0.000 C 
BRANCH  18  22
ATOM     22  C   UNL     1       7.968   3.260  22.518  0.00  0.00    +0.000 C 
BRANCH  22  23
ATOM     23  C   UNL     1       7.539   3.810  23.758  0.00  0.00    +0.000 A 
ATOM     24  C   UNL     1       5.986   3.799  23.768  0.00  0.00    +0.000 A 
ATOM     25  C   UNL     1       5.146   3.534  24.958  0.00  0.00    +0.000 A 
ATOM     26  C   UNL     1       6.093   3.231  26.076  0.00  0.00    +0.000 A 
ATOM     27  C   UNL     1       7.455   3.136  26.314  0.00  0.00    +0.000 A 
ATOM     28  C   UNL     1       8.117   3.896  25.070  0.00  0.00    +0.000 A 
ATOM     29  C   UNL     1       8.579   5.256  25.703  0.00  0.00    +0.000 C 
ENDBRANCH  22  23
ENDBRANCH  18  22
ENDBRANCH  10  13
BRANCH   1  33
ATOM     30  C   UNL     1       3.931  -6.795  24.435  0.00  0.00    +0.000 A 
ATOM     31  C   UNL     1       4.386  -6.664  25.873  0.00  0.00    +0.000 A 
ATOM     32  C   UNL     1       5.581  -6.154  26.398  0.00  0.00    +0.000 A 
ATOM     33  C   UNL     1       6.358  -5.172  25.252  0.00  0.00    +0.000 A 
ATOM     34  C   UNL     1       6.116  -5.390  23.848  0.00  0.00    +0.000 A 
ATOM     35  C   UNL     1       4.698  -6.008  23.484  0.00  0.00    +0.000 A 
ENDBRANCH   1  33
TORSDOF 4
ENDMDL
MODEL 5
REMARK VINA RESULT:      -8.1      2.087      8.455
REMARK  Name = 
REMARK  5 active torsions:
REMARK  status: ('A' for Active; 'I' for Inactive)
REMARK    1  A    between atoms: C_7  and  C_8
REMARK    2  A    between atoms: C_24  and  C_26
REMARK    3  A    between atoms: N_35  and  C_36
REMARK    4  A    between atoms: C_36  and  C_39
REMARK    5  A    between atoms: C_48  and  C_49
REMARK                            x       y       z     vdW  Elec       q    Type
REMARK                         _______ _______ _______ _____ _____    ______ ____
ROOT
ATOM      1  C   UNL     1       7.535  -1.002  22.646  0.00  0.00    +0.000 C 
ATOM      2  C   UNL     1       8.161  -2.365  22.183  0.00  0.00    +0.000 A 
ATOM      3  C   UNL     1       9.210  -2.449  22.905  0.00  0.00    +0.000 A 
ATOM      4  C   UNL     1       9.892  -2.976  24.148  0.00  0.00    +0.000 A 
ATOM      5  C   UNL     1       8.718  -3.864  24.589  0.00  0.00    +0.000 A 
ATOM      6  C   UNL     1       7.728  -4.489  24.038  0.00  0.00    +0.000 A 
ATOM      7  C   UNL     1       7.457  -3.694  22.518  0.00  0.00    +0.000 A 
ATOM      8  C   UNL     1       6.081  -3.515  22.835  0.00  0.00    +0.000 C 
ATOM      9  N   UNL     1       5.835  -2.557  23.703  0.00  0.00    +0.000 N 
ATOM     10  C   UNL     1       5.322  -2.602  24.979  0.00  0.00    +0.000 C 
ATOM     11  O   UNL     1       4.160  -2.421  24.989  0.00  0.00    +0.000 OA
ATOM     12  C   UNL     1       6.331  -1.385  23.333  0.00  0.00    +0.000 C 
ENDROOT
BRANCH  10  13
ATOM     13  C   UNL     1       5.798  -3.688  25.556  0.00  0.00    +0.000 C 
ATOM     14  O   UNL     1       5.104  -4.666  25.402  0.00  0.00    +0.000 OA
ATOM     15  N   UNL     1       6.291  -3.621  26.835  0.00  0.00    +0.000 N 
ATOM     16  C   UNL     1       5.264  -3.458  27.876  0.00  0.00    +0.000 C 
ATOM     17  C   UNL     1       4.100  -4.363  27.721  0.00  0.00    +0.000 C 
ATOM     18  N   UNL     1       4.231  -5.701  27.404  0.00  0.00    +0.000 NA
ATOM     19  C   UNL     1       5.412  -6.346  27.437  0.00  0.00    +0.000 C 
ATOM     20  C   UNL     1       6.699  -5.790  27.906  0.00  0.00    +0.000 C 
ATOM     21  C   UNL     1       7.300  -4.615  27.206  0.00  0.00    +0.000 C 
BRANCH  18  22
ATOM     22  C   UNL     1       3.136  -6.341  26.907  0.00  0.00    +0.000 C 
BRANCH  22  23
ATOM     23  C   UNL     1       2.465  -6.486  25.661  0.00  0.00    +0.000 A 
ATOM     24  C   UNL     1       1.660  -5.183  25.404  0.00  0.00    +0.000 A 
ATOM     25  C   UNL     1       1.465  -4.552  24.079  0.00  0.00    +0.000 A 
ATOM     26  C   UNL     1       2.240  -5.383  23.106  0.00  0.00    +0.000 A 
ATOM     27  C   UNL     1       3.040  -6.514  23.080  0.00  0.00    +0.000 A 
ATOM     28  C   UNL     1       2.719  -7.244  24.468  0.00  0.00    +0.000 A 
ATOM     29  C   UNL     1       1.816  -8.449  24.023  0.00  0.00    +0.000 C 
ENDBRANCH  22  23
ENDBRANCH  18  22
ENDBRANCH  10  13
BRANCH   1  33
ATOM     30  C   UNL     1       8.463   2.848  23.330  0.00  0.00    +0.000 A 
ATOM     31  C   UNL     1       8.563   2.098  22.018  0.00  0.00    +0.000 A 
ATOM     32  C   UNL     1       8.822   0.742  21.772  0.00  0.00    +0.000 A 
ATOM     33  C   UNL     1       8.518  -0.179  23.166  0.00  0.00    +0.000 A 
ATOM     34  C   UNL     1       8.609   0.442  24.463  0.00  0.00    +0.000 A 
ATOM     35  C   UNL     1       8.304   2.001  24.500  0.00  0.00    +0.000 A 
ENDBRANCH   1  33
TORSDOF 4
ENDMDL
MODEL 6
REMARK VINA RESULT:      -7.6      1.361      1.964
REMARK  Name = 
REMARK  5 active torsions:
REMARK  status: ('A' for Active; 'I' for Inactive)
REMARK    1  A    between atoms: C_7  and  C_8
REMARK    2  A    between atoms: C_24  and  C_26
REMARK    3  A    between atoms: N_35  and  C_36
REMARK    4  A    between atoms: C_36  and  C_39
REMARK    5  A    between atoms: C_48  and  C_49
REMARK                            x       y       z     vdW  Elec       q    Type
REMARK                         _______ _______ _______ _____ _____    ______ ____
ROOT
ATOM      1  C   UNL     1       4.703  -3.751  25.753  0.00  0.00    +0.000 C 
ATOM      2  C   UNL     1       5.465  -3.042  26.927  0.00  0.00    +0.000 A 
ATOM      3  C   UNL     1       6.408  -3.863  27.183  0.00  0.00    +0.000 A 
ATOM      4  C   UNL     1       7.848  -4.288  26.992  0.00  0.00    +0.000 A 
ATOM      5  C   UNL     1       8.261  -3.038  26.200  0.00  0.00    +0.000 A 
ATOM      6  C   UNL     1       7.898  -1.800  26.103  0.00  0.00    +0.000 A 
ATOM      7  C   UNL     1       6.256  -1.746  26.667  0.00  0.00    +0.000 A 
ATOM      8  C   UNL     1       5.846  -1.091  25.471  0.00  0.00    +0.000 C 
ATOM      9  N   UNL     1       5.757  -1.873  24.416  0.00  0.00    +0.000 N 
ATOM     10  C   UNL     1       6.471  -1.890  23.240  0.00  0.00    +0.000 C 
ATOM     11  O   UNL     1       5.929  -1.282  22.392  0.00  0.00    +0.000 OA
ATOM     12  C   UNL     1       4.962  -2.915  24.612  0.00  0.00    +0.000 C 
ENDROOT
BRANCH  10  13
ATOM     13  C   UNL     1       7.721  -1.589  23.534  0.00  0.00    +0.000 C 
ATOM     14  O   UNL     1       7.937  -0.402  23.587  0.00  0.00    +0.000 OA
ATOM     15  N   UNL     1       8.748  -2.258  22.915  0.00  0.00    +0.000 N 
ATOM     16  C   UNL     1       8.942  -1.901  21.501  0.00  0.00    +0.000 C 
ATOM     17  C   UNL     1       8.924  -0.441  21.241  0.00  0.00    +0.000 C 
ATOM     18  N   UNL     1       9.582   0.470  22.045  0.00  0.00    +0.000 NA
ATOM     19  C   UNL     1      10.475   0.102  22.982  0.00  0.00    +0.000 C 
ATOM     20  C   UNL     1      10.970  -1.268  23.229  0.00  0.00    +0.000 C 
ATOM     21  C   UNL     1      10.015  -2.340  23.643  0.00  0.00    +0.000 C 
BRANCH  18  22
ATOM     22  C   UNL     1       9.196   1.774  21.966  0.00  0.00    +0.000 C 
BRANCH  22  23
ATOM     23  C   UNL     1       8.324   2.667  22.649  0.00  0.00    +0.000 A 
ATOM     24  C   UNL     1       9.110   3.275  23.842  0.00  0.00    +0.000 A 
ATOM     25  C   UNL     1       8.977   4.668  24.326  0.00  0.00    +0.000 A 
ATOM     26  C   UNL     1       8.006   5.336  23.404  0.00  0.00    +0.000 A 
ATOM     27  C   UNL     1       7.232   5.049  22.291  0.00  0.00    +0.000 A 
ATOM     28  C   UNL     1       7.184   3.448  22.259  0.00  0.00    +0.000 A 
ATOM     29  C   UNL     1       5.731   3.137  22.766  0.00  0.00    +0.000 C 
ENDBRANCH  22  23
ENDBRANCH  18  22
ENDBRANCH  10  13
BRANCH   1  33
ATOM     30  C   UNL     1       3.181  -7.282  24.585  0.00  0.00    +0.000 A 
ATOM     31  C   UNL     1       2.736  -6.433  25.756  0.00  0.00    +0.000 A 
ATOM     32  C   UNL     1       3.473  -5.563  26.571  0.00  0.00    +0.000 A 
ATOM     33  C   UNL     1       4.920  -5.117  25.800  0.00  0.00    +0.000 A 
ATOM     34  C   UNL     1       5.500  -5.994  24.815  0.00  0.00    +0.000 A 
ATOM     35  C   UNL     1       4.473  -6.918  24.029  0.00  0.00    +0.000 A 
ENDBRANCH   1  33
TORSDOF 4
ENDMDL
MODEL 7
REMARK VINA RESULT:      -7.2      2.060      7.873
REMARK  Name = 
REMARK  5 active torsions:
REMARK  status: ('A' for Active; 'I' for Inactive)
REMARK    1  A    between atoms: C_7  and  C_8
REMARK    2  A    between atoms: C_24  and  C_26
REMARK    3  A    between atoms: N_35  and  C_36
REMARK    4  A    between atoms: C_36  and  C_39
REMARK    5  A    between atoms: C_48  and  C_49
REMARK                            x       y       z     vdW  Elec       q    Type
REMARK                         _______ _______ _______ _____ _____    ______ ____
ROOT
ATOM      1  C   UNL     1       7.952  -0.522  20.664  0.00  0.00    +0.000 C 
ATOM      2  C   UNL     1       9.293  -0.368  21.462  0.00  0.00    +0.000 A 
ATOM      3  C   UNL     1       9.297   0.871  21.765  0.00  0.00    +0.000 A 
ATOM      4  C   UNL     1       8.999   1.963  22.770  0.00  0.00    +0.000 A 
ATOM      5  C   UNL     1       8.629   1.007  23.914  0.00  0.00    +0.000 A 
ATOM      6  C   UNL     1       8.910  -0.200  24.284  0.00  0.00    +0.000 A 
ATOM      7  C   UNL     1       9.448  -1.019  22.850  0.00  0.00    +0.000 A 
ATOM      8  C   UNL     1       8.504  -2.062  23.069  0.00  0.00    +0.000 C 
ATOM      9  N   UNL     1       7.261  -1.754  22.769  0.00  0.00    +0.000 N 
ATOM     10  C   UNL     1       6.143  -1.634  23.561  0.00  0.00    +0.000 C 
ATOM     11  O   UNL     1       5.514  -2.627  23.584  0.00  0.00    +0.000 OA
ATOM     12  C   UNL     1       7.122  -1.323  21.523  0.00  0.00    +0.000 C 
ENDROOT
BRANCH  10  13
ATOM     13  C   UNL     1       6.527  -1.102  24.706  0.00  0.00    +0.000 C 
ATOM     14  O   UNL     1       6.769  -1.917  25.564  0.00  0.00    +0.000 OA
ATOM     15  N   UNL     1       5.851  -0.022  25.217  0.00  0.00    +0.000 N 
ATOM     16  C   UNL     1       4.518  -0.335  25.753  0.00  0.00    +0.000 C 
ATOM     17  C   UNL     1       4.485  -1.538  26.620  0.00  0.00    +0.000 C 
ATOM     18  N   UNL     1       5.444  -1.793  27.581  0.00  0.00    +0.000 NA
ATOM     19  C   UNL     1       6.347  -0.874  27.971  0.00  0.00    +0.000 C 
ATOM     20  C   UNL     1       6.398   0.539  27.542  0.00  0.00    +0.000 C 
ATOM     21  C   UNL     1       6.606   0.870  26.099  0.00  0.00    +0.000 C 
BRANCH  18  22
ATOM     22  C   UNL     1       5.551  -3.071  28.040  0.00  0.00    +0.000 C 
BRANCH  22  23
ATOM     23  C   UNL     1       5.929  -4.349  27.543  0.00  0.00    +0.000 A 
ATOM     24  C   UNL     1       5.473  -5.413  28.578  0.00  0.00    +0.000 A 
ATOM     25  C   UNL     1       4.954  -6.758  28.242  0.00  0.00    +0.000 A 
ATOM     26  C   UNL     1       4.911  -6.825  26.749  0.00  0.00    +0.000 A 
ATOM     27  C   UNL     1       5.205  -6.042  25.644  0.00  0.00    +0.000 A 
ATOM     28  C   UNL     1       6.149  -4.889  26.230  0.00  0.00    +0.000 A 
ATOM     29  C   UNL     1       7.571  -5.314  25.717  0.00  0.00    +0.000 C 
ENDBRANCH  22  23
ENDBRANCH  18  22
ENDBRANCH  10  13
BRANCH   1  33
ATOM     30  C   UNL     1       5.049   1.297  18.561  0.00  0.00    +0.000 A 
ATOM     31  C   UNL     1       6.145   0.398  18.027  0.00  0.00    +0.000 A 
ATOM     32  C   UNL     1       7.450   0.192  18.496  0.00  0.00    +0.000 A 
ATOM     33  C   UNL     1       7.582   0.692  20.113  0.00  0.00    +0.000 A 
ATOM     34  C   UNL     1       6.689   1.702  20.620  0.00  0.00    +0.000 A 
ATOM     35  C   UNL     1       5.266   1.776  19.916  0.00  0.00    +0.000 A 
ENDBRANCH   1  33
TORSDOF 4
ENDMDL
MODEL 8
REMARK VINA RESULT:      -7.1      2.406      4.381
REMARK  Name = 
REMARK  5 active torsions:
REMARK  status: ('A' for Active; 'I' for Inactive)
REMARK    1  A    between atoms: C_7  and  C_8
REMARK    2  A    between atoms: C_24  and  C_26
REMARK    3  A    between atoms: N_35  and  C_36
REMARK    4  A    between atoms: C_36  and  C_39
REMARK    5  A    between atoms: C_48  and  C_49
REMARK                            x       y       z     vdW  Elec       q    Type
REMARK                         _______ _______ _______ _____ _____    ______ ____
ROOT
ATOM      1  C   UNL     1       4.935  -4.066  26.033  0.00  0.00    +0.000 C 
ATOM      2  C   UNL     1       4.312  -2.632  25.892  0.00  0.00    +0.000 A 
ATOM      3  C   UNL     1       4.688  -2.058  26.967  0.00  0.00    +0.000 A 
ATOM      4  C   UNL     1       5.674  -1.161  27.684  0.00  0.00    +0.000 A 
ATOM      5  C   UNL     1       6.447  -0.759  26.418  0.00  0.00    +0.000 A 
ATOM      6  C   UNL     1       6.218  -0.644  25.150  0.00  0.00    +0.000 A 
ATOM      7  C   UNL     1       4.845  -1.657  24.826  0.00  0.00    +0.000 A 
ATOM      8  C   UNL     1       5.557  -2.323  23.788  0.00  0.00    +0.000 C 
ATOM      9  N   UNL     1       6.456  -3.189  24.204  0.00  0.00    +0.000 N 
ATOM     10  C   UNL     1       7.826  -3.197  24.087  0.00  0.00    +0.000 C 
ATOM     11  O   UNL     1       8.182  -3.816  23.153  0.00  0.00    +0.000 OA
ATOM     12  C   UNL     1       5.951  -4.107  25.016  0.00  0.00    +0.000 C 
ENDROOT
BRANCH  10  13
ATOM     13  C   UNL     1       8.239  -1.950  24.213  0.00  0.00    +0.000 C 
ATOM     14  O   UNL     1       7.812  -1.207  23.361  0.00  0.00    +0.000 OA
ATOM     15  N   UNL     1       9.560  -1.693  24.484  0.00  0.00    +0.000 N 
ATOM     16  C   UNL     1      10.472  -1.933  23.356  0.00  0.00    +0.000 C 
ATOM     17  C   UNL     1       9.997  -1.373  22.067  0.00  0.00    +0.000 C 
ATOM     18  N   UNL     1       9.446  -0.110  21.960  0.00  0.00    +0.000 NA
ATOM     19  C   UNL     1       9.506   0.798  22.951  0.00  0.00    +0.000 C 
ATOM     20  C   UNL     1      10.235   0.651  24.228  0.00  0.00    +0.000 C 
ATOM     21  C   UNL     1       9.858  -0.439  25.178  0.00  0.00    +0.000 C 
BRANCH  18  22
ATOM     22  C   UNL     1       8.699   0.159  20.853  0.00  0.00    +0.000 C 
BRANCH  22  23
ATOM     23  C   UNL     1       7.338   0.079  20.446  0.00  0.00    +0.000 A 
ATOM     24  C   UNL     1       6.595   1.309  21.032  0.00  0.00    +0.000 A 
ATOM     25  C   UNL     1       5.513   2.055  20.349  0.00  0.00    +0.000 A 
ATOM     26  C   UNL     1       5.356   1.418  19.004  0.00  0.00    +0.000 A 
ATOM     27  C   UNL     1       5.893   0.386  18.251  0.00  0.00    +0.000 A 
ATOM     28  C   UNL     1       6.660  -0.518  19.329  0.00  0.00    +0.000 A 
ATOM     29  C   UNL     1       5.706  -1.756  19.481  0.00  0.00    +0.000 C 
ENDBRANCH  22  23
ENDBRANCH  18  22
ENDBRANCH  10  13
BRANCH   1  33
ATOM     30  C   UNL     1       5.264  -7.130  28.612  0.00  0.00    +0.000 A 
ATOM     31  C   UNL     1       3.991  -6.546  28.037  0.00  0.00    +0.000 A 
ATOM     32  C   UNL     1       3.701  -5.235  27.637  0.00  0.00    +0.000 A 
ATOM     33  C   UNL     1       5.137  -4.369  27.368  0.00  0.00    +0.000 A 
ATOM     34  C   UNL     1       6.342  -4.760  28.053  0.00  0.00    +0.000 A 
ATOM     35  C   UNL     1       6.443  -6.298  28.440  0.00  0.00    +0.000 A 
ENDBRANCH   1  33
TORSDOF 4
ENDMDL
MODEL 9
REMARK VINA RESULT:      -7.0      2.608      7.961
REMARK  Name = 
REMARK  5 active torsions:
REMARK  status: ('A' for Active; 'I' for Inactive)
REMARK    1  A    between atoms: C_7  and  C_8
REMARK    2  A    between atoms: C_24  and  C_26
REMARK    3  A    between atoms: N_35  and  C_36
REMARK    4  A    between atoms: C_36  and  C_39
REMARK    5  A    between atoms: C_48  and  C_49
REMARK                            x       y       z     vdW  Elec       q    Type
REMARK                         _______ _______ _______ _____ _____    ______ ____
ROOT
ATOM      1  C   UNL     1       8.029  -1.324  22.902  0.00  0.00    +0.000 C 
ATOM      2  C   UNL     1       9.054  -1.500  24.077  0.00  0.00    +0.000 A 
ATOM      3  C   UNL     1       9.280  -0.296  24.432  0.00  0.00    +0.000 A 
ATOM      4  C   UNL     1       8.978   0.865  25.355  0.00  0.00    +0.000 A 
ATOM      5  C   UNL     1       8.044   0.070  26.282  0.00  0.00    +0.000 A 
ATOM      6  C   UNL     1       7.881  -1.157  26.655  0.00  0.00    +0.000 A 
ATOM      7  C   UNL     1       8.604  -2.128  25.410  0.00  0.00    +0.000 A 
ATOM      8  C   UNL     1       7.406  -2.885  25.277  0.00  0.00    +0.000 C 
ATOM      9  N   UNL     1       6.436  -2.274  24.631  0.00  0.00    +0.000 N 
ATOM     10  C   UNL     1       5.199  -1.845  25.052  0.00  0.00    +0.000 C 
ATOM     11  O   UNL     1       4.362  -2.641  24.831  0.00  0.00    +0.000 OA
ATOM     12  C   UNL     1       6.800  -1.858  23.426  0.00  0.00    +0.000 C 
ENDROOT
BRANCH  10  13
ATOM     13  C   UNL     1       5.336  -1.398  26.285  0.00  0.00    +0.000 C 
ATOM     14  O   UNL     1       5.350  -2.271  27.121  0.00  0.00    +0.000 OA
ATOM     15  N   UNL     1       4.602  -0.316  26.705  0.00  0.00    +0.000 N 
ATOM     16  C   UNL     1       3.173  -0.592  26.910  0.00  0.00    +0.000 C 
ATOM     17  C   UNL     1       2.902  -1.838  27.668  0.00  0.00    +0.000 C 
ATOM     18  N   UNL     1       3.612  -2.194  28.798  0.00  0.00    +0.000 NA
ATOM     19  C   UNL     1       4.437  -1.345  29.438  0.00  0.00    +0.000 C 
ATOM     20  C   UNL     1       4.635   0.086  29.124  0.00  0.00    +0.000 C 
ATOM     21  C   UNL     1       5.172   0.486  27.789  0.00  0.00    +0.000 C 
BRANCH  18  22
ATOM     22  C   UNL     1       3.568  -3.500  29.185  0.00  0.00    +0.000 C 
BRANCH  22  23
ATOM     23  C   UNL     1       4.224  -4.722  28.871  0.00  0.00    +0.000 A 
ATOM     24  C   UNL     1       3.482  -5.361  27.665  0.00  0.00    +0.000 A 
ATOM     25  C   UNL     1       4.134  -6.113  26.568  0.00  0.00    +0.000 A 
ATOM     26  C   UNL     1       5.603  -6.060  26.844  0.00  0.00    +0.000 A 
ATOM     27  C   UNL     1       6.488  -5.546  27.779  0.00  0.00    +0.000 A 
ATOM     28  C   UNL     1       5.562  -5.215  29.043  0.00  0.00    +0.000 A 
ATOM     29  C   UNL     1       5.916  -6.373  30.042  0.00  0.00    +0.000 C 
ENDBRANCH  22  23
ENDBRANCH  18  22
ENDBRANCH  10  13
BRANCH   1  33
ATOM     30  C   UNL     1       7.045   0.856  19.672  0.00  0.00    +0.000 A 
ATOM     31  C   UNL     1       8.147  -0.177  19.783  0.00  0.00    +0.000 A 
ATOM     32  C   UNL     1       8.925  -0.551  20.887  0.00  0.00    +0.000 A 
ATOM     33  C   UNL     1       8.169  -0.072  22.331  0.00  0.00    +0.000 A 
ATOM     34  C   UNL     1       7.259   1.045  22.320  0.00  0.00    +0.000 A 
ATOM     35  C   UNL     1       6.505   1.303  20.945  0.00  0.00    +0.000 A 
ENDBRANCH   1  33
TORSDOF 4
ENDMDL
