MODEL 1
REMARK VINA RESULT:      -8.7      0.000      0.000
REMARK  Name = 
REMARK  3 active torsions:
REMARK  status: ('A' for Active; 'I' for Inactive)
REMARK    1  A    between atoms: C_7  and  N_8
REMARK    2  A    between atoms: C_19  and  C_21
REMARK    3  A    between atoms: C_28  and  C_29
REMARK                            x       y       z     vdW  Elec       q    Type
REMARK                         _______ _______ _______ _____ _____    ______ ____
ROOT
ATOM      1  N   UNL     1       5.960   2.927  21.220  0.00  0.00    +0.000 N 
ATOM      2  H   UNL     1       5.274   3.458  20.811  0.00  0.00    +0.000 HD
ATOM      3  C   UNL     1       5.790   2.859  22.539  0.00  0.00    +0.000 C 
ATOM      4  O   UNL     1       4.662   2.942  22.965  0.00  0.00    +0.000 OA
ATOM      5  N   UNL     1       6.916   3.132  23.238  0.00  0.00    +0.000 N 
ATOM      6  C   UNL     1       8.176   3.230  22.532  0.00  0.00    +0.000 C 
ATOM      7  C   UNL     1       9.335   2.794  23.471  0.00  0.00    +0.000 C 
ATOM      8  C   UNL     1       8.866   1.617  24.280  0.00  0.00    +0.000 C 
ATOM      9  C   UNL     1       7.949   2.084  25.326  0.00  0.00    +0.000 C 
ATOM     10  C   UNL     1       6.911   3.033  24.690  0.00  0.00    +0.000 C 
ENDROOT
BRANCH   1  14
ATOM     11  C   UNL     1       7.426   0.007  18.675  0.00  0.00    +0.000 A 
ATOM     12  C   UNL     1       7.900   0.299  20.087  0.00  0.00    +0.000 A 
ATOM     13  C   UNL     1       7.160   0.917  21.183  0.00  0.00    +0.000 A 
ATOM     14  C   UNL     1       5.878   1.621  20.645  0.00  0.00    +0.000 A 
ATOM     15  C   UNL     1       5.240   1.409  19.355  0.00  0.00    +0.000 A 
ATOM     16  C   UNL     1       6.224   0.746  18.311  0.00  0.00    +0.000 A 
ENDBRANCH   1  14
BRANCH   8  17
ATOM     17  C   UNL     1       9.736   0.486  24.394  0.00  0.00    +0.000 A 
ATOM     18  C   UNL     1      10.191   0.022  23.047  0.00  0.00    +0.000 A 
ATOM     19  C   UNL     1      10.194  -1.396  22.515  0.00  0.00    +0.000 A 
ATOM     20  C   UNL     1       9.780  -2.263  23.640  0.00  0.00    +0.000 A 
ATOM     21  C   UNL     1       9.091  -2.118  24.803  0.00  0.00    +0.000 A 
ATOM     22  C   UNL     1       9.379  -0.665  25.301  0.00  0.00    +0.000 A 
BRANCH  21  23
ATOM     23  C   UNL     1       7.821  -2.539  24.812  0.00  0.00    +0.000 C 
ATOM     24  O   UNL     1       7.175  -2.260  25.911  0.00  0.00    +0.000 OA
ATOM     25  N   UNL     1       7.241  -3.460  23.998  0.00  0.00    +0.000 N 
ATOM     26  C   UNL     1       7.683  -4.849  24.034  0.00  0.00    +0.000 C 
ATOM     27  C   UNL     1       7.415  -5.621  22.769  0.00  0.00    +0.000 C 
ATOM     28  S   UNL     1       6.401  -4.662  21.603  0.00  0.00    +0.000 S 
ATOM     29  C   UNL     1       5.159  -4.185  22.836  0.00  0.00    +0.000 C 
ATOM     30  C   UNL     1       5.766  -3.287  23.875  0.00  0.00    +0.000 C 
ENDBRANCH  21  23
ENDBRANCH   8  17
TORSDOF 3
ENDMDL
MODEL 2
REMARK VINA RESULT:      -8.7      1.912      2.526
REMARK  Name = 
REMARK  3 active torsions:
REMARK  status: ('A' for Active; 'I' for Inactive)
REMARK    1  A    between atoms: C_7  and  N_8
REMARK    2  A    between atoms: C_19  and  C_21
REMARK    3  A    between atoms: C_28  and  C_29
REMARK                            x       y       z     vdW  Elec       q    Type
REMARK                         _______ _______ _______ _____ _____    ______ ____
ROOT
ATOM      1  N   UNL     1       8.346   1.377  20.746  0.00  0.00    +0.000 N 
ATOM      2  H   UNL     1       8.143   1.952  20.006  0.00  0.00    +0.000 HD
ATOM      3  C   UNL     1       7.604   1.685  21.808  0.00  0.00    +0.000 C 
ATOM      4  O   UNL     1       6.512   2.165  21.611  0.00  0.00    +0.000 OA
ATOM      5  N   UNL     1       8.326   1.816  22.945  0.00  0.00    +0.000 N 
ATOM      6  C   UNL     1       9.712   1.399  22.950  0.00  0.00    +0.000 C 
ATOM      7  C   UNL     1      10.108   0.919  24.374  0.00  0.00    +0.000 C 
ATOM      8  C   UNL     1       8.952   0.146  24.946  0.00  0.00    +0.000 C 
ATOM      9  C   UNL     1       7.899   1.082  25.355  0.00  0.00    +0.000 C 
ATOM     10  C   UNL     1       7.652   2.084  24.207  0.00  0.00    +0.000 C 
ENDROOT
BRANCH   1  14
ATOM     11  C   UNL     1       5.659  -1.597  19.705  0.00  0.00    +0.000 A 
ATOM     12  C   UNL     1       6.193  -0.502  18.800  0.00  0.00    +0.000 A 
ATOM     13  C   UNL     1       7.449   0.234  18.910  0.00  0.00    +0.000 A 
ATOM     14  C   UNL     1       8.072   0.039  20.326  0.00  0.00    +0.000 A 
ATOM     15  C   UNL     1       7.739  -0.997  21.291  0.00  0.00    +0.000 A 
ATOM     16  C   UNL     1       6.330  -1.650  20.997  0.00  0.00    +0.000 A 
ENDBRANCH   1  14
BRANCH   8  17
ATOM     17  C   UNL     1       9.226  -1.110  25.576  0.00  0.00    +0.000 A 
ATOM     18  C   UNL     1       9.773  -2.095  24.593  0.00  0.00    +0.000 A 
ATOM     19  C   UNL     1       9.330  -3.528  24.383  0.00  0.00    +0.000 A 
ATOM     20  C   UNL     1       8.331  -3.813  25.437  0.00  0.00    +0.000 A 
ATOM     21  C   UNL     1       7.494  -3.094  26.232  0.00  0.00    +0.000 A 
ATOM     22  C   UNL     1       8.215  -1.735  26.505  0.00  0.00    +0.000 A 
BRANCH  21  23
ATOM     23  C   UNL     1       6.205  -3.054  25.876  0.00  0.00    +0.000 C 
ATOM     24  O   UNL     1       5.557  -2.021  26.339  0.00  0.00    +0.000 OA
ATOM     25  N   UNL     1       5.441  -4.067  25.390  0.00  0.00    +0.000 N 
ATOM     26  C   UNL     1       5.157  -5.231  26.220  0.00  0.00    +0.000 C 
ATOM     27  C   UNL     1       4.824  -6.481  25.448  0.00  0.00    +0.000 C 
ATOM     28  S   UNL     1       4.647  -6.141  23.671  0.00  0.00    +0.000 S 
ATOM     29  C   UNL     1       3.554  -4.711  23.895  0.00  0.00    +0.000 C 
ATOM     30  C   UNL     1       4.284  -3.592  24.580  0.00  0.00    +0.000 C 
ENDBRANCH  21  23
ENDBRANCH   8  17
TORSDOF 3
ENDMDL
MODEL 3
REMARK VINA RESULT:      -8.7      2.218      5.697
REMARK  Name = 
REMARK  3 active torsions:
REMARK  status: ('A' for Active; 'I' for Inactive)
REMARK    1  A    between atoms: C_7  and  N_8
REMARK    2  A    between atoms: C_19  and  C_21
REMARK    3  A    between atoms: C_28  and  C_29
REMARK                            x       y       z     vdW  Elec       q    Type
REMARK                         _______ _______ _______ _____ _____    ______ ____
ROOT
ATOM      1  N   UNL     1       5.033  -3.477  24.668  0.00  0.00    +0.000 N 
ATOM      2  H   UNL     1       4.275  -3.967  24.991  0.00  0.00    +0.000 HD
ATOM      3  C   UNL     1       6.138  -3.815  25.331  0.00  0.00    +0.000 C 
ATOM      4  O   UNL     1       6.204  -4.936  25.778  0.00  0.00    +0.000 OA
ATOM      5  N   UNL     1       6.842  -2.749  25.775  0.00  0.00    +0.000 N 
ATOM      6  C   UNL     1       6.481  -1.425  25.313  0.00  0.00    +0.000 C 
ATOM      7  C   UNL     1       7.743  -0.520  25.285  0.00  0.00    +0.000 C 
ATOM      8  C   UNL     1       8.900  -1.342  24.790  0.00  0.00    +0.000 C 
ATOM      9  C   UNL     1       9.345  -2.245  25.858  0.00  0.00    +0.000 C 
ATOM     10  C   UNL     1       8.111  -2.950  26.459  0.00  0.00    +0.000 C 
ENDROOT
BRANCH   1  14
ATOM     11  C   UNL     1       6.273  -6.036  21.658  0.00  0.00    +0.000 A 
ATOM     12  C   UNL     1       4.968  -6.109  22.427  0.00  0.00    +0.000 A 
ATOM     13  C   UNL     1       4.250  -5.032  23.102  0.00  0.00    +0.000 A 
ATOM     14  C   UNL     1       5.175  -3.790  23.281  0.00  0.00    +0.000 A 
ATOM     15  C   UNL     1       6.418  -3.517  22.575  0.00  0.00    +0.000 A 
ATOM     16  C   UNL     1       7.035  -4.825  21.935  0.00  0.00    +0.000 A 
ENDBRANCH   1  14
BRANCH   8  17
ATOM     17  C   UNL     1       9.747  -0.778  23.783  0.00  0.00    +0.000 A 
ATOM     18  C   UNL     1      10.422   0.459  24.282  0.00  0.00    +0.000 A 
ATOM     19  C   UNL     1      10.524   1.798  23.582  0.00  0.00    +0.000 A 
ATOM     20  C   UNL     1       9.934   1.610  22.238  0.00  0.00    +0.000 A 
ATOM     21  C   UNL     1       9.061   0.751  21.648  0.00  0.00    +0.000 A 
ATOM     22  C   UNL     1       9.252  -0.623  22.366  0.00  0.00    +0.000 A 
BRANCH  21  23
ATOM     23  C   UNL     1       7.810   1.190  21.465  0.00  0.00    +0.000 C 
ATOM     24  O   UNL     1       7.314   1.825  22.492  0.00  0.00    +0.000 OA
ATOM     25  N   UNL     1       6.917   0.797  20.520  0.00  0.00    +0.000 N 
ATOM     26  C   UNL     1       6.418  -0.573  20.510  0.00  0.00    +0.000 C 
ATOM     27  C   UNL     1       5.925  -1.047  19.169  0.00  0.00    +0.000 C 
ATOM     28  S   UNL     1       5.878   0.308  17.957  0.00  0.00    +0.000 S 
ATOM     29  C   UNL     1       5.015   1.467  19.055  0.00  0.00    +0.000 C 
ATOM     30  C   UNL     1       5.884   1.830  20.225  0.00  0.00    +0.000 C 
ENDBRANCH  21  23
ENDBRANCH   8  17
TORSDOF 3
ENDMDL
MODEL 4
REMARK VINA RESULT:      -8.5      2.711      3.681
REMARK  Name = 
REMARK  3 active torsions:
REMARK  status: ('A' for Active; 'I' for Inactive)
REMARK    1  A    between atoms: C_7  and  N_8
REMARK    2  A    between atoms: C_19  and  C_21
REMARK    3  A    between atoms: C_28  and  C_29
REMARK                            x       y       z     vdW  Elec       q    Type
REMARK                         _______ _______ _______ _____ _____    ______ ____
ROOT
ATOM      1  N   UNL     1       8.155   1.648  21.261  0.00  0.00    +0.000 N 
ATOM      2  H   UNL     1       8.091   2.563  20.981  0.00  0.00    +0.000 HD
ATOM      3  C   UNL     1       8.151   1.554  22.590  0.00  0.00    +0.000 C 
ATOM      4  O   UNL     1       7.563   2.407  23.212  0.00  0.00    +0.000 OA
ATOM      5  N   UNL     1       9.146   0.775  23.074  0.00  0.00    +0.000 N 
ATOM      6  C   UNL     1       9.924  -0.026  22.152  0.00  0.00    +0.000 C 
ATOM      7  C   UNL     1      10.420  -1.313  22.869  0.00  0.00    +0.000 C 
ATOM      8  C   UNL     1       9.313  -1.812  23.754  0.00  0.00    +0.000 C 
ATOM      9  C   UNL     1       9.225  -0.961  24.947  0.00  0.00    +0.000 C 
ATOM     10  C   UNL     1       9.238   0.518  24.503  0.00  0.00    +0.000 C 
ENDROOT
BRANCH   1  14
ATOM     11  C   UNL     1       5.769   0.622  18.036  0.00  0.00    +0.000 A 
ATOM     12  C   UNL     1       7.067  -0.047  18.451  0.00  0.00    +0.000 A 
ATOM     13  C   UNL     1       7.678  -0.098  19.776  0.00  0.00    +0.000 A 
ATOM     14  C   UNL     1       7.027   0.961  20.717  0.00  0.00    +0.000 A 
ATOM     15  C   UNL     1       5.758   1.643  20.518  0.00  0.00    +0.000 A 
ATOM     16  C   UNL     1       5.289   1.594  19.009  0.00  0.00    +0.000 A 
ENDBRANCH   1  14
BRANCH   8  17
ATOM     17  C   UNL     1       8.994  -3.207  23.714  0.00  0.00    +0.000 A 
ATOM     18  C   UNL     1       7.895  -3.478  22.737  0.00  0.00    +0.000 A 
ATOM     19  C   UNL     1       6.648  -4.308  22.961  0.00  0.00    +0.000 A 
ATOM     20  C   UNL     1       6.788  -4.915  24.304  0.00  0.00    +0.000 A 
ATOM     21  C   UNL     1       7.482  -4.654  25.443  0.00  0.00    +0.000 A 
ATOM     22  C   UNL     1       8.823  -3.989  24.993  0.00  0.00    +0.000 A 
BRANCH  21  23
ATOM     23  C   UNL     1       6.808  -4.078  26.445  0.00  0.00    +0.000 C 
ATOM     24  O   UNL     1       7.301  -2.934  26.831  0.00  0.00    +0.000 OA
ATOM     25  N   UNL     1       5.913  -4.655  27.290  0.00  0.00    +0.000 N 
ATOM     26  C   UNL     1       6.344  -5.703  28.206  0.00  0.00    +0.000 C 
ATOM     27  C   UNL     1       5.245  -6.632  28.653  0.00  0.00    +0.000 C 
ATOM     28  S   UNL     1       3.614  -6.053  28.095  0.00  0.00    +0.000 S 
ATOM     29  C   UNL     1       3.854  -4.346  28.660  0.00  0.00    +0.000 C 
ATOM     30  C   UNL     1       4.950  -3.681  27.877  0.00  0.00    +0.000 C 
ENDBRANCH  21  23
ENDBRANCH   8  17
TORSDOF 3
ENDMDL
MODEL 5
REMARK VINA RESULT:      -8.4      1.736      2.469
REMARK  Name = 
REMARK  3 active torsions:
REMARK  status: ('A' for Active; 'I' for Inactive)
REMARK    1  A    between atoms: C_7  and  N_8
REMARK    2  A    between atoms: C_19  and  C_21
REMARK    3  A    between atoms: C_28  and  C_29
REMARK                            x       y       z     vdW  Elec       q    Type
REMARK                         _______ _______ _______ _____ _____    ______ ____
ROOT
ATOM      1  N   UNL     1       8.354   2.111  21.206  0.00  0.00    +0.000 N 
ATOM      2  H   UNL     1       8.557   2.648  20.437  0.00  0.00    +0.000 HD
ATOM      3  C   UNL     1       7.975   2.870  22.232  0.00  0.00    +0.000 C 
ATOM      4  O   UNL     1       7.429   3.919  21.984  0.00  0.00    +0.000 OA
ATOM      5  N   UNL     1       8.621   2.574  23.383  0.00  0.00    +0.000 N 
ATOM      6  C   UNL     1       9.436   1.379  23.446  0.00  0.00    +0.000 C 
ATOM      7  C   UNL     1       9.445   0.829  24.899  0.00  0.00    +0.000 C 
ATOM      8  C   UNL     1       8.062   0.985  25.469  0.00  0.00    +0.000 C 
ATOM      9  C   UNL     1       7.835   2.394  25.808  0.00  0.00    +0.000 C 
ATOM     10  C   UNL     1       8.270   3.269  24.613  0.00  0.00    +0.000 C 
ENDROOT
BRANCH   1  14
ATOM     11  C   UNL     1       6.037   0.283  18.301  0.00  0.00    +0.000 A 
ATOM     12  C   UNL     1       7.406  -0.163  18.779  0.00  0.00    +0.000 A 
ATOM     13  C   UNL     1       8.042   0.087  20.069  0.00  0.00    +0.000 A 
ATOM     14  C   UNL     1       7.298   1.225  20.832  0.00  0.00    +0.000 A 
ATOM     15  C   UNL     1       5.959   1.726  20.563  0.00  0.00    +0.000 A 
ATOM     16  C   UNL     1       5.471   1.359  19.105  0.00  0.00    +0.000 A 
ENDBRANCH   1  14
BRANCH   8  17
ATOM     17  C   UNL     1       7.486  -0.130  26.157  0.00  0.00    +0.000 A 
ATOM     18  C   UNL     1       8.545  -1.078  26.623  0.00  0.00    +0.000 A 
ATOM     19  C   UNL     1       8.573  -2.583  26.455  0.00  0.00    +0.000 A 
ATOM     20  C   UNL     1       7.275  -2.957  25.849  0.00  0.00    +0.000 A 
ATOM     21  C   UNL     1       6.308  -2.343  25.117  0.00  0.00    +0.000 A 
ATOM     22  C   UNL     1       6.293  -0.851  25.580  0.00  0.00    +0.000 A 
BRANCH  21  23
ATOM     23  C   UNL     1       6.298  -2.587  23.801  0.00  0.00    +0.000 C 
ATOM     24  O   UNL     1       6.330  -1.513  23.061  0.00  0.00    +0.000 OA
ATOM     25  N   UNL     1       5.947  -3.736  23.167  0.00  0.00    +0.000 N 
ATOM     26  C   UNL     1       4.578  -4.228  23.250  0.00  0.00    +0.000 C 
ATOM     27  C   UNL     1       4.433  -5.711  23.029  0.00  0.00    +0.000 C 
ATOM     28  S   UNL     1       5.999  -6.461  22.491  0.00  0.00    +0.000 S 
ATOM     29  C   UNL     1       6.330  -5.225  21.205  0.00  0.00    +0.000 C 
ATOM     30  C   UNL     1       6.571  -3.876  21.821  0.00  0.00    +0.000 C 
ENDBRANCH  21  23
ENDBRANCH   8  17
TORSDOF 3
ENDMDL
MODEL 6
REMARK VINA RESULT:      -8.2      2.441      3.717
REMARK  Name = 
REMARK  3 active torsions:
REMARK  status: ('A' for Active; 'I' for Inactive)
REMARK    1  A    between atoms: C_7  and  N_8
REMARK    2  A    between atoms: C_19  and  C_21
REMARK    3  A    between atoms: C_28  and  C_29
REMARK                            x       y       z     vdW  Elec       q    Type
REMARK                         _______ _______ _______ _____ _____    ______ ____
ROOT
ATOM      1  N   UNL     1       8.453   1.751  21.148  0.00  0.00    +0.000 N 
ATOM      2  H   UNL     1       8.433   2.587  20.678  0.00  0.00    +0.000 HD
ATOM      3  C   UNL     1       8.597   1.942  22.458  0.00  0.00    +0.000 C 
ATOM      4  O   UNL     1       8.160   2.966  22.928  0.00  0.00    +0.000 OA
ATOM      5  N   UNL     1       9.572   1.180  23.005  0.00  0.00    +0.000 N 
ATOM      6  C   UNL     1      10.165   0.122  22.215  0.00  0.00    +0.000 C 
ATOM      7  C   UNL     1      10.630  -1.030  23.149  0.00  0.00    +0.000 C 
ATOM      8  C   UNL     1       9.596  -1.206  24.226  0.00  0.00    +0.000 C 
ATOM      9  C   UNL     1       9.722  -0.117  25.201  0.00  0.00    +0.000 C 
ATOM     10  C   UNL     1       9.808   1.223  24.440  0.00  0.00    +0.000 C 
ENDROOT
BRANCH   1  14
ATOM     11  C   UNL     1       5.512   0.533  18.498  0.00  0.00    +0.000 A 
ATOM     12  C   UNL     1       6.822  -0.177  18.786  0.00  0.00    +0.000 A 
ATOM     13  C   UNL     1       7.641  -0.117  19.993  0.00  0.00    +0.000 A 
ATOM     14  C   UNL     1       7.214   1.090  20.881  0.00  0.00    +0.000 A 
ATOM     15  C   UNL     1       5.969   1.838  20.799  0.00  0.00    +0.000 A 
ATOM     16  C   UNL     1       5.254   1.646  19.402  0.00  0.00    +0.000 A 
ENDBRANCH   1  14
BRANCH   8  17
ATOM     17  C   UNL     1       9.157  -2.535  24.528  0.00  0.00    +0.000 A 
ATOM     18  C   UNL     1       8.312  -3.085  23.424  0.00  0.00    +0.000 A 
ATOM     19  C   UNL     1       6.971  -3.777  23.549  0.00  0.00    +0.000 A 
ATOM     20  C   UNL     1       6.713  -3.925  24.999  0.00  0.00    +0.000 A 
ATOM     21  C   UNL     1       7.127  -3.325  26.147  0.00  0.00    +0.000 A 
ATOM     22  C   UNL     1       8.598  -2.864  25.890  0.00  0.00    +0.000 A 
BRANCH  21  23
ATOM     23  C   UNL     1       6.288  -2.448  26.708  0.00  0.00    +0.000 C 
ATOM     24  O   UNL     1       5.340  -2.997  27.417  0.00  0.00    +0.000 OA
ATOM     25  N   UNL     1       6.109  -1.140  26.387  0.00  0.00    +0.000 N 
ATOM     26  C   UNL     1       5.586  -0.774  25.077  0.00  0.00    +0.000 C 
ATOM     27  C   UNL     1       5.955   0.615  24.623  0.00  0.00    +0.000 C 
ATOM     28  S   UNL     1       6.778   1.552  25.947  0.00  0.00    +0.000 S 
ATOM     29  C   UNL     1       5.547   1.143  27.215  0.00  0.00    +0.000 C 
ATOM     30  C   UNL     1       5.568  -0.329  27.514  0.00  0.00    +0.000 C 
ENDBRANCH  21  23
ENDBRANCH   8  17
TORSDOF 3
ENDMDL
MODEL 7
REMARK VINA RESULT:      -8.2      2.455      6.021
REMARK  Name = 
REMARK  3 active torsions:
REMARK  status: ('A' for Active; 'I' for Inactive)
REMARK    1  A    between atoms: C_7  and  N_8
REMARK    2  A    between atoms: C_19  and  C_21
REMARK    3  A    between atoms: C_28  and  C_29
REMARK                            x       y       z     vdW  Elec       q    Type
REMARK                         _______ _______ _______ _____ _____    ______ ____
ROOT
ATOM      1  N   UNL     1       6.333  -2.565  26.828  0.00  0.00    +0.000 N 
ATOM      2  H   UNL     1       5.673  -2.896  27.440  0.00  0.00    +0.000 HD
ATOM      3  C   UNL     1       6.041  -2.916  25.576  0.00  0.00    +0.000 C 
ATOM      4  O   UNL     1       4.876  -3.066  25.291  0.00  0.00    +0.000 OA
ATOM      5  N   UNL     1       7.088  -3.463  24.917  0.00  0.00    +0.000 N 
ATOM      6  C   UNL     1       8.406  -3.400  25.514  0.00  0.00    +0.000 C 
ATOM      7  C   UNL     1       9.484  -3.357  24.395  0.00  0.00    +0.000 C 
ATOM      8  C   UNL     1       8.974  -2.479  23.287  0.00  0.00    +0.000 C 
ATOM      9  C   UNL     1       7.950  -3.205  22.526  0.00  0.00    +0.000 C 
ATOM     10  C   UNL     1       6.950  -3.837  23.518  0.00  0.00    +0.000 C 
ENDROOT
BRANCH   1  14
ATOM     11  C   UNL     1       4.642   1.133  26.045  0.00  0.00    +0.000 A 
ATOM     12  C   UNL     1       4.251   0.177  27.156  0.00  0.00    +0.000 A 
ATOM     13  C   UNL     1       5.067  -0.850  27.798  0.00  0.00    +0.000 A 
ATOM     14  C   UNL     1       6.342  -1.141  26.950  0.00  0.00    +0.000 A 
ATOM     15  C   UNL     1       6.905  -0.303  25.903  0.00  0.00    +0.000 A 
ATOM     16  C   UNL     1       5.847   0.726  25.335  0.00  0.00    +0.000 A 
ENDBRANCH   1  14
BRANCH   8  17
ATOM     17  C   UNL     1       9.862  -1.497  22.742  0.00  0.00    +0.000 A 
ATOM     18  C   UNL     1      10.405  -0.611  23.817  0.00  0.00    +0.000 A 
ATOM     19  C   UNL     1      10.473   0.902  23.816  0.00  0.00    +0.000 A 
ATOM     20  C   UNL     1      10.012   1.338  22.478  0.00  0.00    +0.000 A 
ATOM     21  C   UNL     1       9.253   0.824  21.474  0.00  0.00    +0.000 A 
ATOM     22  C   UNL     1       9.478  -0.721  21.506  0.00  0.00    +0.000 A 
BRANCH  21  23
ATOM     23  C   UNL     1       7.995   1.269  21.378  0.00  0.00    +0.000 C 
ATOM     24  O   UNL     1       7.584   1.933  22.424  0.00  0.00    +0.000 OA
ATOM     25  N   UNL     1       7.028   0.860  20.515  0.00  0.00    +0.000 N 
ATOM     26  C   UNL     1       6.521  -0.505  20.578  0.00  0.00    +0.000 C 
ATOM     27  C   UNL     1       5.921  -1.008  19.292  0.00  0.00    +0.000 C 
ATOM     28  S   UNL     1       5.789   0.319  18.055  0.00  0.00    +0.000 S 
ATOM     29  C   UNL     1       5.022   1.510  19.187  0.00  0.00    +0.000 C 
ATOM     30  C   UNL     1       5.982   1.894  20.276  0.00  0.00    +0.000 C 
ENDBRANCH  21  23
ENDBRANCH   8  17
TORSDOF 3
ENDMDL
MODEL 8
REMARK VINA RESULT:      -8.1      2.731      4.420
REMARK  Name = 
REMARK  3 active torsions:
REMARK  status: ('A' for Active; 'I' for Inactive)
REMARK    1  A    between atoms: C_7  and  N_8
REMARK    2  A    between atoms: C_19  and  C_21
REMARK    3  A    between atoms: C_28  and  C_29
REMARK                            x       y       z     vdW  Elec       q    Type
REMARK                         _______ _______ _______ _____ _____    ______ ____
ROOT
ATOM      1  N   UNL     1       9.114   2.497  22.547  0.00  0.00    +0.000 N 
ATOM      2  H   UNL     1       9.440   3.392  22.664  0.00  0.00    +0.000 HD
ATOM      3  C   UNL     1       9.273   1.783  23.660  0.00  0.00    +0.000 C 
ATOM      4  O   UNL     1       9.253   2.372  24.715  0.00  0.00    +0.000 OA
ATOM      5  N   UNL     1       9.852   0.579  23.444  0.00  0.00    +0.000 N 
ATOM      6  C   UNL     1      10.013   0.110  22.083  0.00  0.00    +0.000 C 
ATOM      7  C   UNL     1       9.957  -1.443  22.056  0.00  0.00    +0.000 C 
ATOM      8  C   UNL     1       8.897  -1.890  23.024  0.00  0.00    +0.000 C 
ATOM      9  C   UNL     1       9.402  -1.749  24.395  0.00  0.00    +0.000 C 
ATOM     10  C   UNL     1      10.033  -0.349  24.550  0.00  0.00    +0.000 C 
ENDROOT
BRANCH   1  14
ATOM     11  C   UNL     1       5.228   3.497  23.574  0.00  0.00    +0.000 A 
ATOM     12  C   UNL     1       6.301   4.441  23.064  0.00  0.00    +0.000 A 
ATOM     13  C   UNL     1       7.466   4.132  22.240  0.00  0.00    +0.000 A 
ATOM     14  C   UNL     1       7.726   2.595  22.221  0.00  0.00    +0.000 A 
ATOM     15  C   UNL     1       6.791   1.546  22.597  0.00  0.00    +0.000 A 
ATOM     16  C   UNL     1       5.618   2.095  23.504  0.00  0.00    +0.000 A 
ENDBRANCH   1  14
BRANCH   8  17
ATOM     17  C   UNL     1       7.963  -2.885  22.590  0.00  0.00    +0.000 A 
ATOM     18  C   UNL     1       6.578  -2.326  22.522  0.00  0.00    +0.000 A 
ATOM     19  C   UNL     1       5.311  -2.937  23.084  0.00  0.00    +0.000 A 
ATOM     20  C   UNL     1       5.688  -4.270  23.604  0.00  0.00    +0.000 A 
ATOM     21  C   UNL     1       6.824  -4.886  24.025  0.00  0.00    +0.000 A 
ATOM     22  C   UNL     1       7.989  -4.270  23.187  0.00  0.00    +0.000 A 
BRANCH  21  23
ATOM     23  C   UNL     1       6.999  -4.997  25.347  0.00  0.00    +0.000 C 
ATOM     24  O   UNL     1       8.235  -5.213  25.704  0.00  0.00    +0.000 OA
ATOM     25  N   UNL     1       6.056  -5.227  26.298  0.00  0.00    +0.000 N 
ATOM     26  C   UNL     1       5.321  -6.486  26.309  0.00  0.00    +0.000 C 
ATOM     27  C   UNL     1       3.977  -6.418  26.987  0.00  0.00    +0.000 C 
ATOM     28  S   UNL     1       3.728  -4.818  27.815  0.00  0.00    +0.000 S 
ATOM     29  C   UNL     1       5.339  -4.824  28.651  0.00  0.00    +0.000 C 
ATOM     30  C   UNL     1       6.453  -4.735  27.647  0.00  0.00    +0.000 C 
ENDBRANCH  21  23
ENDBRANCH   8  17
TORSDOF 3
ENDMDL
MODEL 9
REMARK VINA RESULT:      -7.9      3.245      7.562
REMARK  Name = 
REMARK  3 active torsions:
REMARK  status: ('A' for Active; 'I' for Inactive)
REMARK    1  A    between atoms: C_7  and  N_8
REMARK    2  A    between atoms: C_19  and  C_21
REMARK    3  A    between atoms: C_28  and  C_29
REMARK                            x       y       z     vdW  Elec       q    Type
REMARK                         _______ _______ _______ _____ _____    ______ ____
ROOT
ATOM      1  N   UNL     1       6.959  -4.408  27.206  0.00  0.00    +0.000 N 
ATOM      2  H   UNL     1       7.023  -5.032  27.933  0.00  0.00    +0.000 HD
ATOM      3  C   UNL     1       7.913  -4.630  26.303  0.00  0.00    +0.000 C 
ATOM      4  O   UNL     1       8.323  -5.760  26.183  0.00  0.00    +0.000 OA
ATOM      5  N   UNL     1       8.584  -3.510  25.949  0.00  0.00    +0.000 N 
ATOM      6  C   UNL     1       8.077  -2.222  26.375  0.00  0.00    +0.000 C 
ATOM      7  C   UNL     1       8.461  -1.138  25.329  0.00  0.00    +0.000 C 
ATOM      8  C   UNL     1       8.311  -1.735  23.958  0.00  0.00    +0.000 C 
ATOM      9  C   UNL     1       9.434  -2.644  23.700  0.00  0.00    +0.000 C 
ATOM     10  C   UNL     1       9.612  -3.573  24.920  0.00  0.00    +0.000 C 
ENDROOT
BRANCH   1  14
ATOM     11  C   UNL     1       4.307  -6.631  24.931  0.00  0.00    +0.000 A 
ATOM     12  C   UNL     1       4.608  -6.814  26.407  0.00  0.00    +0.000 A 
ATOM     13  C   UNL     1       5.104  -5.828  27.362  0.00  0.00    +0.000 A 
ATOM     14  C   UNL     1       5.671  -4.583  26.614  0.00  0.00    +0.000 A 
ATOM     15  C   UNL     1       5.425  -4.209  25.230  0.00  0.00    +0.000 A 
ATOM     16  C   UNL     1       4.912  -5.431  24.368  0.00  0.00    +0.000 A 
ENDBRANCH   1  14
BRANCH   8  17
ATOM     17  C   UNL     1       7.626  -0.970  22.961  0.00  0.00    +0.000 A 
ATOM     18  C   UNL     1       8.133  -1.297  21.592  0.00  0.00    +0.000 A 
ATOM     19  C   UNL     1       8.543  -0.324  20.506  0.00  0.00    +0.000 A 
ATOM     20  C   UNL     1       8.218   1.027  21.015  0.00  0.00    +0.000 A 
ATOM     21  C   UNL     1       8.027   1.612  22.228  0.00  0.00    +0.000 A 
ATOM     22  C   UNL     1       7.409   0.511  23.148  0.00  0.00    +0.000 A 
BRANCH  21  23
ATOM     23  C   UNL     1       9.039   2.337  22.717  0.00  0.00    +0.000 C 
ATOM     24  O   UNL     1      10.212   1.786  22.563  0.00  0.00    +0.000 OA
ATOM     25  N   UNL     1       8.977   3.368  23.600  0.00  0.00    +0.000 N 
ATOM     26  C   UNL     1       8.508   3.138  24.961  0.00  0.00    +0.000 C 
ATOM     27  C   UNL     1       7.950   4.359  25.643  0.00  0.00    +0.000 C 
ATOM     28  S   UNL     1       8.220   5.859  24.652  0.00  0.00    +0.000 S 
ATOM     29  C   UNL     1       9.976   5.527  24.343  0.00  0.00    +0.000 C 
ATOM     30  C   UNL     1      10.139   4.296  23.499  0.00  0.00    +0.000 C 
ENDBRANCH  21  23
ENDBRANCH   8  17
TORSDOF 3
ENDMDL
