MODEL 1
REMARK VINA RESULT:      -8.9      0.000      0.000
REMARK  Name = 
REMARK  5 active torsions:
REMARK  status: ('A' for Active; 'I' for Inactive)
REMARK    1  A    between atoms: C_7  and  C_8
REMARK    2  A    between atoms: C_10  and  C_11
REMARK    3  A    between atoms: C_16  and  C_17
REMARK    4  A    between atoms: C_22  and  C_23
REMARK    5  A    between atoms: C_33  and  C_35
REMARK                            x       y       z     vdW  Elec       q    Type
REMARK                         _______ _______ _______ _____ _____    ______ ____
ROOT
ATOM      1  C   UNL     1      10.545   0.316  23.606  0.00  0.00    +0.000 A 
ATOM      2  C   UNL     1      10.542  -0.962  22.834  0.00  0.00    +0.000 A 
ATOM      3  C   UNL     1       9.743  -2.158  23.154  0.00  0.00    +0.000 A 
ATOM      4  C   UNL     1       8.875  -1.967  24.393  0.00  0.00    +0.000 A 
ATOM      5  C   UNL     1       9.155  -0.975  25.456  0.00  0.00    +0.000 A 
ATOM      6  C   UNL     1      10.035   0.206  24.982  0.00  0.00    +0.000 A 
ENDROOT
BRANCH   4   7
ATOM      7  C   UNL     1       7.470  -2.289  24.093  0.00  0.00    +0.000 C 
ATOM      8  O   UNL     1       7.122  -2.243  22.924  0.00  0.00    +0.000 OA
ATOM      9  N   UNL     1       6.663  -2.491  25.097  0.00  0.00    +0.000 N 
ATOM     10  C   UNL     1       5.251  -2.043  24.986  0.00  0.00    +0.000 C 
ATOM     11  C   UNL     1       4.401  -3.282  24.750  0.00  0.00    +0.000 C 
ATOM     12  N   UNL     1       5.263  -4.338  24.180  0.00  0.00    +0.000 N 
ATOM     13  C   UNL     1       5.478  -4.414  22.864  0.00  0.00    +0.000 C 
ATOM     14  O   UNL     1       5.093  -3.442  22.144  0.00  0.00    +0.000 OA
ATOM     15  C   UNL     1       6.269  -4.851  25.128  0.00  0.00    +0.000 C 
ATOM     16  C   UNL     1       6.816  -3.689  25.946  0.00  0.00    +0.000 C 
BRANCH  13  17
ATOM     17  C   UNL     1       5.579  -5.726  22.145  0.00  0.00    +0.000 C 
ATOM     18 CL   UNL     1       7.322  -6.101  21.875  0.00  0.00    +0.000 Cl
ENDBRANCH  13  17
ENDBRANCH   4   7
BRANCH   1  24
ATOM     19  C   UNL     1       8.738   1.503  22.150  0.00  0.00    +0.000 A 
ATOM     20  N   UNL     1       8.105   2.652  22.528  0.00  0.00    +0.000 NA
ATOM     21  C   UNL     1       8.781   3.462  23.198  0.00  0.00    +0.000 A 
ATOM     22  C   UNL     1       8.283   3.892  24.544  0.00  0.00    +0.000 C 
ATOM     23  S   UNL     1      10.450   2.863  23.319  0.00  0.00    +0.000 S 
ATOM     24  C   UNL     1       9.981   1.190  22.601  0.00  0.00    +0.000 A 
BRANCH  19  28
ATOM     25  C   UNL     1       6.078   0.849  18.967  0.00  0.00    +0.000 A 
ATOM     26  C   UNL     1       5.843   1.745  20.174  0.00  0.00    +0.000 A 
ATOM     27  C   UNL     1       6.561   1.666  21.410  0.00  0.00    +0.000 A 
ATOM     28  C   UNL     1       7.755   0.707  21.371  0.00  0.00    +0.000 A 
ATOM     29  C   UNL     1       8.187  -0.123  20.266  0.00  0.00    +0.000 A 
ATOM     30  C   UNL     1       7.392   0.236  18.940  0.00  0.00    +0.000 A 
ENDBRANCH  19  28
ENDBRANCH   1  24
TORSDOF 4
ENDMDL
MODEL 2
REMARK VINA RESULT:      -8.7      1.535      1.924
REMARK  Name = 
REMARK  5 active torsions:
REMARK  status: ('A' for Active; 'I' for Inactive)
REMARK    1  A    between atoms: C_7  and  C_8
REMARK    2  A    between atoms: C_10  and  C_11
REMARK    3  A    between atoms: C_16  and  C_17
REMARK    4  A    between atoms: C_22  and  C_23
REMARK    5  A    between atoms: C_33  and  C_35
REMARK                            x       y       z     vdW  Elec       q    Type
REMARK                         _______ _______ _______ _____ _____    ______ ____
ROOT
ATOM      1  C   UNL     1      10.133   1.573  22.512  0.00  0.00    +0.000 A 
ATOM      2  C   UNL     1      10.021   0.236  21.857  0.00  0.00    +0.000 A 
ATOM      3  C   UNL     1       9.853  -1.051  22.553  0.00  0.00    +0.000 A 
ATOM      4  C   UNL     1       9.794  -0.893  24.068  0.00  0.00    +0.000 A 
ATOM      5  C   UNL     1      10.358   0.262  24.803  0.00  0.00    +0.000 A 
ATOM      6  C   UNL     1      10.508   1.533  23.934  0.00  0.00    +0.000 A 
ENDROOT
BRANCH   4   7
ATOM      7  C   UNL     1       8.587  -1.541  24.608  0.00  0.00    +0.000 C 
ATOM      8  O   UNL     1       7.522  -0.972  24.435  0.00  0.00    +0.000 OA
ATOM      9  N   UNL     1       8.743  -2.616  25.330  0.00  0.00    +0.000 N 
ATOM     10  C   UNL     1       7.830  -2.848  26.479  0.00  0.00    +0.000 C 
ATOM     11  C   UNL     1       6.841  -3.925  26.058  0.00  0.00    +0.000 C 
ATOM     12  N   UNL     1       6.771  -3.945  24.583  0.00  0.00    +0.000 N 
ATOM     13  C   UNL     1       5.943  -3.132  23.922  0.00  0.00    +0.000 C 
ATOM     14  O   UNL     1       5.372  -2.207  24.578  0.00  0.00    +0.000 OA
ATOM     15  C   UNL     1       8.011  -4.423  23.943  0.00  0.00    +0.000 C 
ATOM     16  C   UNL     1       9.207  -3.870  24.707  0.00  0.00    +0.000 C 
BRANCH  13  17
ATOM     17  C   UNL     1       5.213  -3.566  22.687  0.00  0.00    +0.000 C 
ATOM     18 CL   UNL     1       5.863  -2.644  21.280  0.00  0.00    +0.000 Cl
ENDBRANCH  13  17
ENDBRANCH   4   7
BRANCH   1  24
ATOM     19  C   UNL     1       7.624   1.786  21.836  0.00  0.00    +0.000 A 
ATOM     20  N   UNL     1       6.640   2.150  22.710  0.00  0.00    +0.000 NA
ATOM     21  C   UNL     1       6.962   2.967  23.599  0.00  0.00    +0.000 A 
ATOM     22  C   UNL     1       6.763   2.599  25.037  0.00  0.00    +0.000 C 
ATOM     23  S   UNL     1       8.637   3.493  23.322  0.00  0.00    +0.000 S 
ATOM     24  C   UNL     1       8.915   2.173  22.013  0.00  0.00    +0.000 A 
BRANCH  19  28
ATOM     25  C   UNL     1       5.947   0.671  18.152  0.00  0.00    +0.000 A 
ATOM     26  C   UNL     1       5.274   1.493  19.242  0.00  0.00    +0.000 A 
ATOM     27  C   UNL     1       5.687   1.539  20.612  0.00  0.00    +0.000 A 
ATOM     28  C   UNL     1       7.016   0.826  20.880  0.00  0.00    +0.000 A 
ATOM     29  C   UNL     1       7.841   0.106  19.933  0.00  0.00    +0.000 A 
ATOM     30  C   UNL     1       7.323   0.321  18.448  0.00  0.00    +0.000 A 
ENDBRANCH  19  28
ENDBRANCH   1  24
TORSDOF 4
ENDMDL
MODEL 3
REMARK VINA RESULT:      -7.8      3.115      6.894
REMARK  Name = 
REMARK  5 active torsions:
REMARK  status: ('A' for Active; 'I' for Inactive)
REMARK    1  A    between atoms: C_7  and  C_8
REMARK    2  A    between atoms: C_10  and  C_11
REMARK    3  A    between atoms: C_16  and  C_17
REMARK    4  A    between atoms: C_22  and  C_23
REMARK    5  A    between atoms: C_33  and  C_35
REMARK                            x       y       z     vdW  Elec       q    Type
REMARK                         _______ _______ _______ _____ _____    ______ ____
ROOT
ATOM      1  C   UNL     1       7.491  -3.760  26.106  0.00  0.00    +0.000 A 
ATOM      2  C   UNL     1       7.549  -2.350  26.592  0.00  0.00    +0.000 A 
ATOM      3  C   UNL     1       8.133  -1.212  25.861  0.00  0.00    +0.000 A 
ATOM      4  C   UNL     1       8.693  -1.616  24.502  0.00  0.00    +0.000 A 
ATOM      5  C   UNL     1       9.109  -2.993  24.153  0.00  0.00    +0.000 A 
ATOM      6  C   UNL     1       8.439  -4.080  25.028  0.00  0.00    +0.000 A 
ENDROOT
BRANCH   4   7
ATOM      7  C   UNL     1       8.129  -0.768  23.438  0.00  0.00    +0.000 C 
ATOM      8  O   UNL     1       7.127  -0.125  23.707  0.00  0.00    +0.000 OA
ATOM      9  N   UNL     1       8.663  -0.842  22.251  0.00  0.00    +0.000 N 
ATOM     10  C   UNL     1       7.786  -0.711  21.059  0.00  0.00    +0.000 C 
ATOM     11  C   UNL     1       8.011   0.679  20.484  0.00  0.00    +0.000 C 
ATOM     12  N   UNL     1       8.538   1.548  21.555  0.00  0.00    +0.000 N 
ATOM     13  C   UNL     1       7.715   2.187  22.392  0.00  0.00    +0.000 C 
ATOM     14  O   UNL     1       6.487   1.867  22.372  0.00  0.00    +0.000 OA
ATOM     15  C   UNL     1       9.902   1.188  21.986  0.00  0.00    +0.000 C 
ATOM     16  C   UNL     1      10.027  -0.329  22.016  0.00  0.00    +0.000 C 
BRANCH  13  17
ATOM     17  C   UNL     1       7.995   3.574  22.884  0.00  0.00    +0.000 C 
ATOM     18 CL   UNL     1       8.742   3.464  24.522  0.00  0.00    +0.000 Cl
ENDBRANCH  13  17
ENDBRANCH   4   7
BRANCH   1  24
ATOM     19  C   UNL     1       5.195  -4.769  25.393  0.00  0.00    +0.000 A 
ATOM     20  N   UNL     1       4.551  -5.743  26.100  0.00  0.00    +0.000 NA
ATOM     21  C   UNL     1       4.689  -5.709  27.342  0.00  0.00    +0.000 A 
ATOM     22  C   UNL     1       5.237  -6.911  28.049  0.00  0.00    +0.000 C 
ATOM     23  S   UNL     1       5.615  -4.258  27.783  0.00  0.00    +0.000 S 
ATOM     24  C   UNL     1       6.056  -3.903  25.990  0.00  0.00    +0.000 A 
BRANCH  19  28
ATOM     25  C   UNL     1       6.068  -4.737  21.286  0.00  0.00    +0.000 A 
ATOM     26  C   UNL     1       5.739  -3.529  22.151  0.00  0.00    +0.000 A 
ATOM     27  C   UNL     1       5.079  -3.581  23.420  0.00  0.00    +0.000 A 
ATOM     28  C   UNL     1       4.887  -5.003  23.959  0.00  0.00    +0.000 A 
ATOM     29  C   UNL     1       5.255  -6.249  23.319  0.00  0.00    +0.000 A 
ATOM     30  C   UNL     1       6.132  -5.985  22.022  0.00  0.00    +0.000 A 
ENDBRANCH  19  28
ENDBRANCH   1  24
TORSDOF 4
ENDMDL
MODEL 4
REMARK VINA RESULT:      -7.7      1.786      2.305
REMARK  Name = 
REMARK  5 active torsions:
REMARK  status: ('A' for Active; 'I' for Inactive)
REMARK    1  A    between atoms: C_7  and  C_8
REMARK    2  A    between atoms: C_10  and  C_11
REMARK    3  A    between atoms: C_16  and  C_17
REMARK    4  A    between atoms: C_22  and  C_23
REMARK    5  A    between atoms: C_33  and  C_35
REMARK                            x       y       z     vdW  Elec       q    Type
REMARK                         _______ _______ _______ _____ _____    ______ ____
ROOT
ATOM      1  C   UNL     1       9.525   1.925  22.954  0.00  0.00    +0.000 A 
ATOM      2  C   UNL     1      10.080   0.915  22.006  0.00  0.00    +0.000 A 
ATOM      3  C   UNL     1      10.103  -0.543  22.219  0.00  0.00    +0.000 A 
ATOM      4  C   UNL     1       9.477  -0.949  23.549  0.00  0.00    +0.000 A 
ATOM      5  C   UNL     1       9.352  -0.046  24.716  0.00  0.00    +0.000 A 
ATOM      6  C   UNL     1       9.378   1.455  24.340  0.00  0.00    +0.000 A 
ENDROOT
BRANCH   4   7
ATOM      7  C   UNL     1       8.432  -1.965  23.339  0.00  0.00    +0.000 C 
ATOM      8  O   UNL     1       8.789  -3.131  23.282  0.00  0.00    +0.000 OA
ATOM      9  N   UNL     1       7.216  -1.553  23.115  0.00  0.00    +0.000 N 
ATOM     10  C   UNL     1       6.358  -2.319  22.176  0.00  0.00    +0.000 C 
ATOM     11  C   UNL     1       5.362  -3.106  23.014  0.00  0.00    +0.000 C 
ATOM     12  N   UNL     1       5.922  -3.274  24.370  0.00  0.00    +0.000 N 
ATOM     13  C   UNL     1       6.742  -4.290  24.656  0.00  0.00    +0.000 C 
ATOM     14  O   UNL     1       7.185  -4.982  23.688  0.00  0.00    +0.000 OA
ATOM     15  C   UNL     1       6.010  -2.013  25.130  0.00  0.00    +0.000 C 
ATOM     16  C   UNL     1       6.443  -0.898  24.189  0.00  0.00    +0.000 C 
BRANCH  13  17
ATOM     17  C   UNL     1       6.699  -5.006  25.972  0.00  0.00    +0.000 C 
ATOM     18 CL   UNL     1       8.298  -4.813  26.783  0.00  0.00    +0.000 Cl
ENDBRANCH  13  17
ENDBRANCH   4   7
BRANCH   1  24
ATOM     19  C   UNL     1       7.207   1.969  21.763  0.00  0.00    +0.000 A 
ATOM     20  N   UNL     1       6.062   2.404  22.365  0.00  0.00    +0.000 NA
ATOM     21  C   UNL     1       6.188   3.333  23.191  0.00  0.00    +0.000 A 
ATOM     22  C   UNL     1       5.701   3.137  24.594  0.00  0.00    +0.000 C 
ATOM     23  S   UNL     1       7.879   3.878  23.195  0.00  0.00    +0.000 S 
ATOM     24  C   UNL     1       8.431   2.419  22.147  0.00  0.00    +0.000 A 
BRANCH  19  28
ATOM     25  C   UNL     1       6.094   0.406  18.028  0.00  0.00    +0.000 A 
ATOM     26  C   UNL     1       5.218   1.226  18.964  0.00  0.00    +0.000 A 
ATOM     27  C   UNL     1       5.462   1.418  20.361  0.00  0.00    +0.000 A 
ATOM     28  C   UNL     1       6.817   0.879  20.832  0.00  0.00    +0.000 A 
ATOM     29  C   UNL     1       7.816   0.188  20.045  0.00  0.00    +0.000 A 
ATOM     30  C   UNL     1       7.455   0.234  18.500  0.00  0.00    +0.000 A 
ENDBRANCH  19  28
ENDBRANCH   1  24
TORSDOF 4
ENDMDL
MODEL 5
REMARK VINA RESULT:      -7.4      2.566      4.317
REMARK  Name = 
REMARK  5 active torsions:
REMARK  status: ('A' for Active; 'I' for Inactive)
REMARK    1  A    between atoms: C_7  and  C_8
REMARK    2  A    between atoms: C_10  and  C_11
REMARK    3  A    between atoms: C_16  and  C_17
REMARK    4  A    between atoms: C_22  and  C_23
REMARK    5  A    between atoms: C_33  and  C_35
REMARK                            x       y       z     vdW  Elec       q    Type
REMARK                         _______ _______ _______ _____ _____    ______ ____
ROOT
ATOM      1  C   UNL     1       9.094   2.049  23.700  0.00  0.00    +0.000 A 
ATOM      2  C   UNL     1       9.383   1.424  22.376  0.00  0.00    +0.000 A 
ATOM      3  C   UNL     1       9.929   0.072  22.164  0.00  0.00    +0.000 A 
ATOM      4  C   UNL     1      10.179  -0.669  23.472  0.00  0.00    +0.000 A 
ATOM      5  C   UNL     1      10.381  -0.001  24.778  0.00  0.00    +0.000 A 
ATOM      6  C   UNL     1       9.784   1.425  24.840  0.00  0.00    +0.000 A 
ENDROOT
BRANCH   4   7
ATOM      7  C   UNL     1       9.512  -1.982  23.457  0.00  0.00    +0.000 C 
ATOM      8  O   UNL     1      10.205  -2.965  23.663  0.00  0.00    +0.000 OA
ATOM      9  N   UNL     1       8.254  -2.023  23.116  0.00  0.00    +0.000 N 
ATOM     10  C   UNL     1       7.757  -3.189  22.340  0.00  0.00    +0.000 C 
ATOM     11  C   UNL     1       6.969  -4.067  23.300  0.00  0.00    +0.000 C 
ATOM     12  N   UNL     1       7.425  -3.781  24.676  0.00  0.00    +0.000 N 
ATOM     13  C   UNL     1       8.480  -4.413  25.197  0.00  0.00    +0.000 C 
ATOM     14  O   UNL     1       9.200  -5.107  24.414  0.00  0.00    +0.000 OA
ATOM     15  C   UNL     1       7.058  -2.432  25.148  0.00  0.00    +0.000 C 
ATOM     16  C   UNL     1       7.223  -1.445  24.001  0.00  0.00    +0.000 C 
BRANCH  13  17
ATOM     17  C   UNL     1       8.532  -4.832  26.635  0.00  0.00    +0.000 C 
ATOM     18 CL   UNL     1       6.919  -5.494  27.098  0.00  0.00    +0.000 Cl
ENDBRANCH  13  17
ENDBRANCH   4   7
BRANCH   1  24
ATOM     19  C   UNL     1       6.673   2.882  24.193  0.00  0.00    +0.000 A 
ATOM     20  N   UNL     1       6.124   3.983  23.602  0.00  0.00    +0.000 NA
ATOM     21  C   UNL     1       6.474   4.214  22.425  0.00  0.00    +0.000 A 
ATOM     22  C   UNL     1       7.090   5.538  22.091  0.00  0.00    +0.000 C 
ATOM     23  S   UNL     1       7.516   2.889  21.860  0.00  0.00    +0.000 S 
ATOM     24  C   UNL     1       7.656   2.163  23.589  0.00  0.00    +0.000 A 
BRANCH  19  28
ATOM     25  C   UNL     1       6.514   1.443  28.134  0.00  0.00    +0.000 A 
ATOM     26  C   UNL     1       6.076   0.700  26.880  0.00  0.00    +0.000 A 
ATOM     27  C   UNL     1       5.773   1.314  25.623  0.00  0.00    +0.000 A 
ATOM     28  C   UNL     1       6.115   2.807  25.567  0.00  0.00    +0.000 A 
ATOM     29  C   UNL     1       6.653   3.632  26.628  0.00  0.00    +0.000 A 
ATOM     30  C   UNL     1       7.092   2.747  27.870  0.00  0.00    +0.000 A 
ENDBRANCH  19  28
ENDBRANCH   1  24
TORSDOF 4
ENDMDL
MODEL 6
REMARK VINA RESULT:      -7.3      3.363      6.265
REMARK  Name = 
REMARK  5 active torsions:
REMARK  status: ('A' for Active; 'I' for Inactive)
REMARK    1  A    between atoms: C_7  and  C_8
REMARK    2  A    between atoms: C_10  and  C_11
REMARK    3  A    between atoms: C_16  and  C_17
REMARK    4  A    between atoms: C_22  and  C_23
REMARK    5  A    between atoms: C_33  and  C_35
REMARK                            x       y       z     vdW  Elec       q    Type
REMARK                         _______ _______ _______ _____ _____    ______ ____
ROOT
ATOM      1  C   UNL     1       8.974  -0.818  25.541  0.00  0.00    +0.000 A 
ATOM      2  C   UNL     1       7.876  -0.084  26.236  0.00  0.00    +0.000 A 
ATOM      3  C   UNL     1       7.545   1.341  26.055  0.00  0.00    +0.000 A 
ATOM      4  C   UNL     1       8.460   2.030  25.047  0.00  0.00    +0.000 A 
ATOM      5  C   UNL     1       9.813   1.547  24.692  0.00  0.00    +0.000 A 
ATOM      6  C   UNL     1      10.023   0.039  24.969  0.00  0.00    +0.000 A 
ENDROOT
BRANCH   4   7
ATOM      7  C   UNL     1       7.665   2.706  24.008  0.00  0.00    +0.000 C 
ATOM      8  O   UNL     1       7.034   2.000  23.239  0.00  0.00    +0.000 OA
ATOM      9  N   UNL     1       7.774   4.001  23.902  0.00  0.00    +0.000 N 
ATOM     10  C   UNL     1       7.709   4.620  22.554  0.00  0.00    +0.000 C 
ATOM     11  C   UNL     1       6.337   5.265  22.420  0.00  0.00    +0.000 C 
ATOM     12  N   UNL     1       5.416   4.605  23.367  0.00  0.00    +0.000 N 
ATOM     13  C   UNL     1       4.763   3.490  23.030  0.00  0.00    +0.000 C 
ATOM     14  O   UNL     1       5.108   2.904  21.958  0.00  0.00    +0.000 OA
ATOM     15  C   UNL     1       5.731   4.882  24.782  0.00  0.00    +0.000 C 
ATOM     16  C   UNL     1       7.243   4.881  24.961  0.00  0.00    +0.000 C 
BRANCH  13  17
ATOM     17  C   UNL     1       3.352   3.228  23.461  0.00  0.00    +0.000 C 
ATOM     18 CL   UNL     1       2.318   3.085  21.990  0.00  0.00    +0.000 Cl
ENDBRANCH  13  17
ENDBRANCH   4   7
BRANCH   1  24
ATOM     19  C   UNL     1       8.344  -2.500  23.651  0.00  0.00    +0.000 A 
ATOM     20  N   UNL     1       8.599  -3.840  23.723  0.00  0.00    +0.000 NA
ATOM     21  C   UNL     1       8.532  -4.356  24.859  0.00  0.00    +0.000 A 
ATOM     22  C   UNL     1       9.724  -5.084  25.402  0.00  0.00    +0.000 C 
ATOM     23  S   UNL     1       7.975  -3.132  26.021  0.00  0.00    +0.000 S 
ATOM     24  C   UNL     1       8.175  -1.744  24.768  0.00  0.00    +0.000 A 
BRANCH  19  28
ATOM     25  C   UNL     1       7.858   0.080  20.374  0.00  0.00    +0.000 A 
ATOM     26  C   UNL     1       6.770  -0.744  21.049  0.00  0.00    +0.000 A 
ATOM     27  C   UNL     1       6.998  -1.882  21.885  0.00  0.00    +0.000 A 
ATOM     28  C   UNL     1       8.475  -2.114  22.223  0.00  0.00    +0.000 A 
ATOM     29  C   UNL     1       9.617  -1.350  21.767  0.00  0.00    +0.000 A 
ATOM     30  C   UNL     1       9.156  -0.033  21.011  0.00  0.00    +0.000 A 
ENDBRANCH  19  28
ENDBRANCH   1  24
TORSDOF 4
ENDMDL
MODEL 7
REMARK VINA RESULT:      -7.2      2.475      4.019
REMARK  Name = 
REMARK  5 active torsions:
REMARK  status: ('A' for Active; 'I' for Inactive)
REMARK    1  A    between atoms: C_7  and  C_8
REMARK    2  A    between atoms: C_10  and  C_11
REMARK    3  A    between atoms: C_16  and  C_17
REMARK    4  A    between atoms: C_22  and  C_23
REMARK    5  A    between atoms: C_33  and  C_35
REMARK                            x       y       z     vdW  Elec       q    Type
REMARK                         _______ _______ _______ _____ _____    ______ ____
ROOT
ATOM      1  C   UNL     1       8.213   0.540  21.346  0.00  0.00    +0.000 A 
ATOM      2  C   UNL     1       6.958  -0.251  21.511  0.00  0.00    +0.000 A 
ATOM      3  C   UNL     1       6.874  -1.639  21.997  0.00  0.00    +0.000 A 
ATOM      4  C   UNL     1       8.240  -2.223  22.338  0.00  0.00    +0.000 A 
ATOM      5  C   UNL     1       9.517  -1.726  21.777  0.00  0.00    +0.000 A 
ATOM      6  C   UNL     1       9.443  -0.264  21.275  0.00  0.00    +0.000 A 
ENDROOT
BRANCH   4   7
ATOM      7  C   UNL     1       8.245  -2.761  23.709  0.00  0.00    +0.000 C 
ATOM      8  O   UNL     1       8.017  -1.979  24.618  0.00  0.00    +0.000 OA
ATOM      9  N   UNL     1       8.600  -4.005  23.875  0.00  0.00    +0.000 N 
ATOM     10  C   UNL     1       9.364  -4.377  25.093  0.00  0.00    +0.000 C 
ATOM     11  C   UNL     1       8.401  -5.089  26.030  0.00  0.00    +0.000 C 
ATOM     12  N   UNL     1       7.025  -4.681  25.684  0.00  0.00    +0.000 N 
ATOM     13  C   UNL     1       6.483  -3.576  26.205  0.00  0.00    +0.000 C 
ATOM     14  O   UNL     1       7.247  -2.784  26.837  0.00  0.00    +0.000 OA
ATOM     15  C   UNL     1       6.576  -5.181  24.371  0.00  0.00    +0.000 C 
ATOM     16  C   UNL     1       7.735  -5.097  23.388  0.00  0.00    +0.000 C 
BRANCH  13  17
ATOM     17  C   UNL     1       5.039  -3.503  26.599  0.00  0.00    +0.000 C 
ATOM     18 CL   UNL     1       4.128  -2.656  25.293  0.00  0.00    +0.000 Cl
ENDBRANCH  13  17
ENDBRANCH   4   7
BRANCH   1  24
ATOM     19  C   UNL     1       7.385   1.629  23.565  0.00  0.00    +0.000 A 
ATOM     20  N   UNL     1       8.123   1.647  24.713  0.00  0.00    +0.000 NA
ATOM     21  C   UNL     1       9.361   1.736  24.575  0.00  0.00    +0.000 A 
ATOM     22  C   UNL     1      10.242   0.683  25.173  0.00  0.00    +0.000 C 
ATOM     23  S   UNL     1       9.738   1.951  22.851  0.00  0.00    +0.000 S 
ATOM     24  C   UNL     1       7.971   1.562  22.340  0.00  0.00    +0.000 A 
BRANCH  19  28
ATOM     25  C   UNL     1       4.221   1.759  26.322  0.00  0.00    +0.000 A 
ATOM     26  C   UNL     1       5.264   0.658  26.191  0.00  0.00    +0.000 A 
ATOM     27  C   UNL     1       6.078   0.429  25.037  0.00  0.00    +0.000 A 
ATOM     28  C   UNL     1       5.960   1.523  23.971  0.00  0.00    +0.000 A 
ATOM     29  C   UNL     1       5.111   2.696  23.996  0.00  0.00    +0.000 A 
ATOM     30  C   UNL     1       4.431   2.874  25.419  0.00  0.00    +0.000 A 
ENDBRANCH  19  28
ENDBRANCH   1  24
TORSDOF 4
ENDMDL
MODEL 8
REMARK VINA RESULT:      -7.2      2.965      6.817
REMARK  Name = 
REMARK  5 active torsions:
REMARK  status: ('A' for Active; 'I' for Inactive)
REMARK    1  A    between atoms: C_7  and  C_8
REMARK    2  A    between atoms: C_10  and  C_11
REMARK    3  A    between atoms: C_16  and  C_17
REMARK    4  A    between atoms: C_22  and  C_23
REMARK    5  A    between atoms: C_33  and  C_35
REMARK                            x       y       z     vdW  Elec       q    Type
REMARK                         _______ _______ _______ _____ _____    ______ ____
ROOT
ATOM      1  C   UNL     1       5.396  -2.357  26.738  0.00  0.00    +0.000 A 
ATOM      2  C   UNL     1       4.833  -1.130  26.101  0.00  0.00    +0.000 A 
ATOM      3  C   UNL     1       5.588  -0.157  25.292  0.00  0.00    +0.000 A 
ATOM      4  C   UNL     1       7.059  -0.531  25.150  0.00  0.00    +0.000 A 
ATOM      5  C   UNL     1       7.786  -1.409  26.095  0.00  0.00    +0.000 A 
ATOM      6  C   UNL     1       6.859  -2.351  26.900  0.00  0.00    +0.000 A 
ENDROOT
BRANCH   4   7
ATOM      7  C   UNL     1       7.449  -0.562  23.730  0.00  0.00    +0.000 C 
ATOM      8  O   UNL     1       6.666  -1.071  22.946  0.00  0.00    +0.000 OA
ATOM      9  N   UNL     1       8.646  -0.150  23.417  0.00  0.00    +0.000 N 
ATOM     10  C   UNL     1       9.373  -0.827  22.313  0.00  0.00    +0.000 C 
ATOM     11  C   UNL     1       9.324   0.099  21.107  0.00  0.00    +0.000 C 
ATOM     12  N   UNL     1       8.170   1.008  21.263  0.00  0.00    +0.000 N 
ATOM     13  C   UNL     1       6.950   0.650  20.853  0.00  0.00    +0.000 C 
ATOM     14  O   UNL     1       6.771  -0.561  20.518  0.00  0.00    +0.000 OA
ATOM     15  C   UNL     1       8.330   1.975  22.365  0.00  0.00    +0.000 C 
ATOM     16  C   UNL     1       8.998   1.278  23.542  0.00  0.00    +0.000 C 
BRANCH  13  17
ATOM     17  C   UNL     1       6.001   1.623  20.222  0.00  0.00    +0.000 C 
ATOM     18 CL   UNL     1       5.549   1.008  18.588  0.00  0.00    +0.000 Cl
ENDBRANCH  13  17
ENDBRANCH   4   7
BRANCH   1  24
ATOM     19  C   UNL     1       4.978  -4.374  25.140  0.00  0.00    +0.000 A 
ATOM     20  N   UNL     1       4.991  -5.675  25.555  0.00  0.00    +0.000 NA
ATOM     21  C   UNL     1       4.572  -5.892  26.712  0.00  0.00    +0.000 A 
ATOM     22  C   UNL     1       5.466  -6.583  27.696  0.00  0.00    +0.000 C 
ATOM     23  S   UNL     1       3.956  -4.373  27.400  0.00  0.00    +0.000 S 
ATOM     24  C   UNL     1       4.669  -3.357  25.988  0.00  0.00    +0.000 A 
BRANCH  19  28
ATOM     25  C   UNL     1       7.134  -5.952  21.901  0.00  0.00    +0.000 A 
ATOM     26  C   UNL     1       7.718  -5.320  23.156  0.00  0.00    +0.000 A 
ATOM     27  C   UNL     1       7.008  -4.457  24.050  0.00  0.00    +0.000 A 
ATOM     28  C   UNL     1       5.508  -4.360  23.753  0.00  0.00    +0.000 A 
ATOM     29  C   UNL     1       4.776  -4.995  22.677  0.00  0.00    +0.000 A 
ATOM     30  C   UNL     1       5.686  -6.046  21.912  0.00  0.00    +0.000 A 
ENDBRANCH  19  28
ENDBRANCH   1  24
TORSDOF 4
ENDMDL
MODEL 9
REMARK VINA RESULT:      -6.8      3.060      5.923
REMARK  Name = 
REMARK  5 active torsions:
REMARK  status: ('A' for Active; 'I' for Inactive)
REMARK    1  A    between atoms: C_7  and  C_8
REMARK    2  A    between atoms: C_10  and  C_11
REMARK    3  A    between atoms: C_16  and  C_17
REMARK    4  A    between atoms: C_22  and  C_23
REMARK    5  A    between atoms: C_33  and  C_35
REMARK                            x       y       z     vdW  Elec       q    Type
REMARK                         _______ _______ _______ _____ _____    ______ ____
ROOT
ATOM      1  C   UNL     1       9.837  -1.321  24.039  0.00  0.00    +0.000 A 
ATOM      2  C   UNL     1       8.765  -1.470  25.067  0.00  0.00    +0.000 A 
ATOM      3  C   UNL     1       8.049  -0.366  25.729  0.00  0.00    +0.000 A 
ATOM      4  C   UNL     1       8.514   1.004  25.248  0.00  0.00    +0.000 A 
ATOM      5  C   UNL     1       9.835   1.261  24.632  0.00  0.00    +0.000 A 
ATOM      6  C   UNL     1      10.482   0.001  24.008  0.00  0.00    +0.000 A 
ENDROOT
BRANCH   4   7
ATOM      7  C   UNL     1       7.367   1.810  24.797  0.00  0.00    +0.000 C 
ATOM      8  O   UNL     1       6.423   1.213  24.304  0.00  0.00    +0.000 OA
ATOM      9  N   UNL     1       7.475   3.108  24.847  0.00  0.00    +0.000 N 
ATOM     10  C   UNL     1       6.834   3.925  23.785  0.00  0.00    +0.000 C 
ATOM     11  C   UNL     1       5.582   4.545  24.387  0.00  0.00    +0.000 C 
ATOM     12  N   UNL     1       5.162   3.724  25.540  0.00  0.00    +0.000 N 
ATOM     13  C   UNL     1       4.376   2.656  25.375  0.00  0.00    +0.000 C 
ATOM     14  O   UNL     1       4.170   2.250  24.190  0.00  0.00    +0.000 OA
ATOM     15  C   UNL     1       6.096   3.789  26.680  0.00  0.00    +0.000 C 
ATOM     16  C   UNL     1       7.523   3.801  26.149  0.00  0.00    +0.000 C 
BRANCH  13  17
ATOM     17  C   UNL     1       3.303   2.294  26.358  0.00  0.00    +0.000 C 
ATOM     18 CL   UNL     1       3.733   0.718  27.123  0.00  0.00    +0.000 Cl
ENDBRANCH  13  17
ENDBRANCH   4   7
BRANCH   1  24
ATOM     19  C   UNL     1       7.866  -2.117  22.530  0.00  0.00    +0.000 A 
ATOM     20  N   UNL     1       7.258  -1.317  21.607  0.00  0.00    +0.000 NA
ATOM     21  C   UNL     1       7.986  -0.480  21.032  0.00  0.00    +0.000 A 
ATOM     22  C   UNL     1       7.627   0.973  21.101  0.00  0.00    +0.000 C 
ATOM     23  S   UNL     1       9.669  -0.725  21.550  0.00  0.00    +0.000 S 
ATOM     24  C   UNL     1       9.156  -1.916  22.910  0.00  0.00    +0.000 A 
BRANCH  19  28
ATOM     25  C   UNL     1       6.136  -4.558  25.476  0.00  0.00    +0.000 A 
ATOM     26  C   UNL     1       7.343  -4.897  24.613  0.00  0.00    +0.000 A 
ATOM     27  C   UNL     1       7.681  -4.251  23.381  0.00  0.00    +0.000 A 
ATOM     28  C   UNL     1       6.820  -3.022  23.071  0.00  0.00    +0.000 A 
ATOM     29  C   UNL     1       5.719  -2.495  23.849  0.00  0.00    +0.000 A 
ATOM     30  C   UNL     1       5.615  -3.223  25.255  0.00  0.00    +0.000 A 
ENDBRANCH  19  28
ENDBRANCH   1  24
TORSDOF 4
ENDMDL
