MODEL 1
REMARK VINA RESULT:      -9.1      0.000      0.000
REMARK  Name = 
REMARK  7 active torsions:
REMARK  status: ('A' for Active; 'I' for Inactive)
REMARK    1  A    between atoms: O_2  and  C_3
REMARK    2  A    between atoms: C_12  and  N_13
REMARK    3  A    between atoms: C_15  and  C_17
REMARK    4  A    between atoms: C_26  and  C_28
REMARK    5  A    between atoms: N_30  and  C_32
REMARK    6  A    between atoms: C_34  and  C_35
REMARK    7  A    between atoms: C_40  and  C_41
REMARK                            x       y       z     vdW  Elec       q    Type
REMARK                         _______ _______ _______ _____ _____    ______ ____
ROOT
ATOM      1  C   UNL     1       6.848  -3.232  22.313  0.00  0.00    +0.000 C 
ATOM      2  C   UNL     1       6.834  -4.604  21.688  0.00  0.00    +0.000 C 
ATOM      3  C   UNL     1       7.484  -5.607  22.647  0.00  0.00    +0.000 C 
ATOM      4  N   UNL     1       7.441  -5.022  23.997  0.00  0.00    +0.000 N 
ATOM      5  C   UNL     1       8.514  -5.001  24.760  0.00  0.00    +0.000 C 
ATOM      6  O   UNL     1       8.619  -5.569  25.814  0.00  0.00    +0.000 OA
ATOM      7  C   UNL     1       6.168  -4.432  24.381  0.00  0.00    +0.000 C 
ATOM      8  C   UNL     1       5.943  -3.188  23.535  0.00  0.00    +0.000 C 
ENDROOT
BRANCH   1  11
ATOM      9  N   UNL     1       6.160  -0.950  21.770  0.00  0.00    +0.000 N 
ATOM     10  H   UNL     1       5.231  -0.724  21.735  0.00  0.00    +0.000 HD
ATOM     11  C   UNL     1       6.328  -2.217  21.324  0.00  0.00    +0.000 C 
ATOM     12  O   UNL     1       5.551  -2.622  20.440  0.00  0.00    +0.000 OA
BRANCH   9  18
ATOM     13  C   UNL     1       6.798  -0.560  19.439  0.00  0.00    +0.000 A 
ATOM     14  C   UNL     1       5.906   0.298  18.556  0.00  0.00    +0.000 A 
ATOM     15  C   UNL     1       5.253   1.598  18.894  0.00  0.00    +0.000 A 
ATOM     16  C   UNL     1       5.681   1.882  20.289  0.00  0.00    +0.000 A 
ATOM     17  C   UNL     1       6.463   1.353  21.330  0.00  0.00    +0.000 A 
ATOM     18  C   UNL     1       6.791  -0.110  20.829  0.00  0.00    +0.000 A 
BRANCH  13  20
ATOM     19  H   UNL     1       8.569  -0.103  19.014  0.00  0.00    +0.000 HD
ATOM     20  O   UNL     1       7.897  -0.621  18.634  0.00  0.00    +0.000 OA
ENDBRANCH  13  20
ENDBRANCH   9  18
ENDBRANCH   1  11
BRANCH   5  21
ATOM     21  C   UNL     1       9.100  -3.752  24.830  0.00  0.00    +0.000 C 
ATOM     22  O   UNL     1      10.204  -3.822  24.338  0.00  0.00    +0.000 OA
ATOM     23  N   UNL     1       8.769  -3.123  25.895  0.00  0.00    +0.000 N 
ATOM     24  H   UNL     1       8.041  -3.415  26.387  0.00  0.00    +0.000 HD
BRANCH  23  25
ATOM     25  C   UNL     1       8.890  -1.752  25.871  0.00  0.00    +0.000 C 
ATOM     26  S   UNL     1       7.330  -1.269  26.524  0.00  0.00    +0.000 S 
ATOM     27  C   UNL     1       6.916  -0.031  25.553  0.00  0.00    +0.000 C 
ATOM     28  C   UNL     1       5.495  -0.138  25.111  0.00  0.00    +0.000 C 
ATOM     29  N   UNL     1       7.918   0.064  24.615  0.00  0.00    +0.000 NA
ATOM     30  C   UNL     1       8.990  -0.798  24.835  0.00  0.00    +0.000 C 
BRANCH  30  31
ATOM     31  C   UNL     1      10.255  -0.317  24.287  0.00  0.00    +0.000 A 
ATOM     32  C   UNL     1      10.070  -0.732  22.851  0.00  0.00    +0.000 A 
ATOM     33  C   UNL     1       9.849   0.148  21.668  0.00  0.00    +0.000 A 
ATOM     34  C   UNL     1      10.029   1.541  22.151  0.00  0.00    +0.000 A 
ATOM     35  C   UNL     1      10.457   2.198  23.329  0.00  0.00    +0.000 A 
ATOM     36  C   UNL     1      10.628   1.108  24.398  0.00  0.00    +0.000 A 
ENDBRANCH  30  31
ENDBRANCH  23  25
ENDBRANCH   5  21
TORSDOF 6
ENDMDL
MODEL 2
REMARK VINA RESULT:      -8.4      1.454      1.812
REMARK  Name = 
REMARK  7 active torsions:
REMARK  status: ('A' for Active; 'I' for Inactive)
REMARK    1  A    between atoms: O_2  and  C_3
REMARK    2  A    between atoms: C_12  and  N_13
REMARK    3  A    between atoms: C_15  and  C_17
REMARK    4  A    between atoms: C_26  and  C_28
REMARK    5  A    between atoms: N_30  and  C_32
REMARK    6  A    between atoms: C_34  and  C_35
REMARK    7  A    between atoms: C_40  and  C_41
REMARK                            x       y       z     vdW  Elec       q    Type
REMARK                         _______ _______ _______ _____ _____    ______ ____
ROOT
ATOM      1  C   UNL     1       6.880  -3.512  22.783  0.00  0.00    +0.000 C 
ATOM      2  C   UNL     1       7.287  -4.957  22.644  0.00  0.00    +0.000 C 
ATOM      3  C   UNL     1       8.003  -5.410  23.922  0.00  0.00    +0.000 C 
ATOM      4  N   UNL     1       7.616  -4.484  24.998  0.00  0.00    +0.000 N 
ATOM      5  C   UNL     1       8.524  -3.943  25.784  0.00  0.00    +0.000 C 
ATOM      6  O   UNL     1       8.599  -4.119  26.970  0.00  0.00    +0.000 OA
ATOM      7  C   UNL     1       6.196  -4.178  25.078  0.00  0.00    +0.000 C 
ATOM      8  C   UNL     1       5.814  -3.355  23.857  0.00  0.00    +0.000 C 
ENDROOT
BRANCH   1  11
ATOM      9  N   UNL     1       5.950  -1.715  21.413  0.00  0.00    +0.000 N 
ATOM     10  H   UNL     1       5.003  -1.642  21.294  0.00  0.00    +0.000 HD
ATOM     11  C   UNL     1       6.291  -3.023  21.483  0.00  0.00    +0.000 C 
ATOM     12  O   UNL     1       5.615  -3.828  20.818  0.00  0.00    +0.000 OA
BRANCH   9  18
ATOM     13  C   UNL     1       5.599  -0.821  19.161  0.00  0.00    +0.000 A 
ATOM     14  C   UNL     1       5.581   0.685  18.952  0.00  0.00    +0.000 A 
ATOM     15  C   UNL     1       6.513   1.705  19.521  0.00  0.00    +0.000 A 
ATOM     16  C   UNL     1       7.479   0.919  20.332  0.00  0.00    +0.000 A 
ATOM     17  C   UNL     1       7.784  -0.400  20.709  0.00  0.00    +0.000 A 
ATOM     18  C   UNL     1       6.520  -1.216  20.223  0.00  0.00    +0.000 A 
BRANCH  13  20
ATOM     19  H   UNL     1       5.355  -2.083  17.793  0.00  0.00    +0.000 HD
ATOM     20  O   UNL     1       5.679  -1.214  17.859  0.00  0.00    +0.000 OA
ENDBRANCH  13  20
ENDBRANCH   9  18
ENDBRANCH   1  11
BRANCH   5  21
ATOM     21  C   UNL     1       8.778  -2.619  25.480  0.00  0.00    +0.000 C 
ATOM     22  O   UNL     1       9.707  -2.581  24.704  0.00  0.00    +0.000 OA
ATOM     23  N   UNL     1       8.577  -1.848  26.481  0.00  0.00    +0.000 N 
ATOM     24  H   UNL     1       8.092  -2.159  27.205  0.00  0.00    +0.000 HD
BRANCH  23  25
ATOM     25  C   UNL     1       8.344  -0.519  26.205  0.00  0.00    +0.000 C 
ATOM     26  S   UNL     1       7.395  -0.050  27.609  0.00  0.00    +0.000 S 
ATOM     27  C   UNL     1       6.224   0.864  26.947  0.00  0.00    +0.000 C 
ATOM     28  C   UNL     1       4.881   0.510  27.495  0.00  0.00    +0.000 C 
ATOM     29  N   UNL     1       6.438   0.826  25.589  0.00  0.00    +0.000 NA
ATOM     30  C   UNL     1       7.601   0.156  25.213  0.00  0.00    +0.000 C 
BRANCH  30  31
ATOM     31  C   UNL     1       8.160   0.613  23.943  0.00  0.00    +0.000 A 
ATOM     32  C   UNL     1       7.517   1.974  23.873  0.00  0.00    +0.000 A 
ATOM     33  C   UNL     1       8.176   3.303  24.018  0.00  0.00    +0.000 A 
ATOM     34  C   UNL     1       9.636   3.037  24.067  0.00  0.00    +0.000 A 
ATOM     35  C   UNL     1      10.511   1.939  23.888  0.00  0.00    +0.000 A 
ATOM     36  C   UNL     1       9.622   0.692  23.752  0.00  0.00    +0.000 A 
ENDBRANCH  30  31
ENDBRANCH  23  25
ENDBRANCH   5  21
TORSDOF 6
ENDMDL
MODEL 3
REMARK VINA RESULT:      -8.1      3.099      5.690
REMARK  Name = 
REMARK  7 active torsions:
REMARK  status: ('A' for Active; 'I' for Inactive)
REMARK    1  A    between atoms: O_2  and  C_3
REMARK    2  A    between atoms: C_12  and  N_13
REMARK    3  A    between atoms: C_15  and  C_17
REMARK    4  A    between atoms: C_26  and  C_28
REMARK    5  A    between atoms: N_30  and  C_32
REMARK    6  A    between atoms: C_34  and  C_35
REMARK    7  A    between atoms: C_40  and  C_41
REMARK                            x       y       z     vdW  Elec       q    Type
REMARK                         _______ _______ _______ _____ _____    ______ ____
ROOT
ATOM      1  C   UNL     1       7.147  -3.333  23.084  0.00  0.00    +0.000 C 
ATOM      2  C   UNL     1       8.487  -2.651  23.196  0.00  0.00    +0.000 C 
ATOM      3  C   UNL     1       9.101  -2.957  24.567  0.00  0.00    +0.000 C 
ATOM      4  N   UNL     1       8.446  -4.169  25.085  0.00  0.00    +0.000 N 
ATOM      5  C   UNL     1       7.976  -4.210  26.314  0.00  0.00    +0.000 C 
ATOM      6  O   UNL     1       8.369  -4.950  27.176  0.00  0.00    +0.000 OA
ATOM      7  C   UNL     1       8.312  -5.261  24.135  0.00  0.00    +0.000 C 
ATOM      8  C   UNL     1       7.313  -4.845  23.065  0.00  0.00    +0.000 C 
ENDROOT
BRANCH   1  11
ATOM      9  N   UNL     1       6.080  -1.644  21.675  0.00  0.00    +0.000 N 
ATOM     10  H   UNL     1       5.127  -1.615  21.598  0.00  0.00    +0.000 HD
ATOM     11  C   UNL     1       6.479  -2.933  21.791  0.00  0.00    +0.000 C 
ATOM     12  O   UNL     1       5.807  -3.797  21.200  0.00  0.00    +0.000 OA
BRANCH   9  18
ATOM     13  C   UNL     1       5.614  -1.062  19.343  0.00  0.00    +0.000 A 
ATOM     14  C   UNL     1       5.346   0.388  18.977  0.00  0.00    +0.000 A 
ATOM     15  C   UNL     1       6.086   1.604  19.431  0.00  0.00    +0.000 A 
ATOM     16  C   UNL     1       7.160   1.081  20.315  0.00  0.00    +0.000 A 
ATOM     17  C   UNL     1       7.677  -0.121  20.827  0.00  0.00    +0.000 A 
ATOM     18  C   UNL     1       6.575  -1.184  20.437  0.00  0.00    +0.000 A 
BRANCH  13  20
ATOM     19  H   UNL     1       6.584  -1.262  17.748  0.00  0.00    +0.000 HD
ATOM     20  O   UNL     1       5.776  -1.571  18.089  0.00  0.00    +0.000 OA
ENDBRANCH  13  20
ENDBRANCH   9  18
ENDBRANCH   1  11
BRANCH   5  21
ATOM     21  C   UNL     1       6.599  -4.104  26.367  0.00  0.00    +0.000 C 
ATOM     22  O   UNL     1       6.311  -2.929  26.409  0.00  0.00    +0.000 OA
ATOM     23  N   UNL     1       6.068  -5.053  27.042  0.00  0.00    +0.000 N 
ATOM     24  H   UNL     1       6.566  -5.810  27.232  0.00  0.00    +0.000 HD
BRANCH  23  25
ATOM     25  C   UNL     1       4.742  -5.328  26.793  0.00  0.00    +0.000 C 
ATOM     26  S   UNL     1       3.990  -4.675  28.242  0.00  0.00    +0.000 S 
ATOM     27  C   UNL     1       2.898  -5.822  28.613  0.00  0.00    +0.000 C 
ATOM     28  C   UNL     1       2.924  -6.149  30.069  0.00  0.00    +0.000 C 
ATOM     29  N   UNL     1       3.073  -6.824  27.686  0.00  0.00    +0.000 NA
ATOM     30  C   UNL     1       3.995  -6.522  26.687  0.00  0.00    +0.000 C 
BRANCH  30  31
ATOM     31  C   UNL     1       3.754  -7.224  25.429  0.00  0.00    +0.000 A 
ATOM     32  C   UNL     1       2.255  -7.086  25.361  0.00  0.00    +0.000 A 
ATOM     33  C   UNL     1       1.457  -6.251  24.418  0.00  0.00    +0.000 A 
ATOM     34  C   UNL     1       2.423  -5.711  23.427  0.00  0.00    +0.000 A 
ATOM     35  C   UNL     1       3.787  -5.880  23.089  0.00  0.00    +0.000 A 
ATOM     36  C   UNL     1       4.399  -6.772  24.180  0.00  0.00    +0.000 A 
ENDBRANCH  30  31
ENDBRANCH  23  25
ENDBRANCH   5  21
TORSDOF 6
ENDMDL
MODEL 4
REMARK VINA RESULT:      -8.0      1.979      3.299
REMARK  Name = 
REMARK  7 active torsions:
REMARK  status: ('A' for Active; 'I' for Inactive)
REMARK    1  A    between atoms: O_2  and  C_3
REMARK    2  A    between atoms: C_12  and  N_13
REMARK    3  A    between atoms: C_15  and  C_17
REMARK    4  A    between atoms: C_26  and  C_28
REMARK    5  A    between atoms: N_30  and  C_32
REMARK    6  A    between atoms: C_34  and  C_35
REMARK    7  A    between atoms: C_40  and  C_41
REMARK                            x       y       z     vdW  Elec       q    Type
REMARK                         _______ _______ _______ _____ _____    ______ ____
ROOT
ATOM      1  C   UNL     1       6.345  -3.626  22.629  0.00  0.00    +0.000 C 
ATOM      2  C   UNL     1       6.927  -4.912  22.098  0.00  0.00    +0.000 C 
ATOM      3  C   UNL     1       7.046  -5.928  23.240  0.00  0.00    +0.000 C 
ATOM      4  N   UNL     1       6.124  -5.506  24.306  0.00  0.00    +0.000 N 
ATOM      5  C   UNL     1       6.523  -5.438  25.559  0.00  0.00    +0.000 C 
ATOM      6  O   UNL     1       6.083  -6.103  26.458  0.00  0.00    +0.000 OA
ATOM      7  C   UNL     1       4.792  -5.124  23.864  0.00  0.00    +0.000 C 
ATOM      8  C   UNL     1       4.903  -3.831  23.070  0.00  0.00    +0.000 C 
ENDROOT
BRANCH   1  11
ATOM      9  N   UNL     1       6.560  -1.298  21.918  0.00  0.00    +0.000 N 
ATOM     10  H   UNL     1       5.779  -0.779  21.731  0.00  0.00    +0.000 HD
ATOM     11  C   UNL     1       6.344  -2.581  21.542  0.00  0.00    +0.000 C 
ATOM     12  O   UNL     1       5.606  -2.773  20.559  0.00  0.00    +0.000 OA
BRANCH   9  18
ATOM     13  C   UNL     1       7.386   0.565  20.561  0.00  0.00    +0.000 A 
ATOM     14  C   UNL     1       8.396   1.531  21.158  0.00  0.00    +0.000 A 
ATOM     15  C   UNL     1       9.610   1.210  21.968  0.00  0.00    +0.000 A 
ATOM     16  C   UNL     1       9.622  -0.274  22.052  0.00  0.00    +0.000 A 
ATOM     17  C   UNL     1       8.905  -1.407  21.633  0.00  0.00    +0.000 A 
ATOM     18  C   UNL     1       7.563  -0.796  21.063  0.00  0.00    +0.000 A 
BRANCH  13  20
ATOM     19  H   UNL     1       8.376   1.071  19.048  0.00  0.00    +0.000 HD
ATOM     20  O   UNL     1       7.478   0.942  19.254  0.00  0.00    +0.000 OA
ENDBRANCH  13  20
ENDBRANCH   9  18
ENDBRANCH   1  11
BRANCH   5  21
ATOM     21  C   UNL     1       6.740  -4.141  25.984  0.00  0.00    +0.000 C 
ATOM     22  O   UNL     1       7.922  -4.009  26.210  0.00  0.00    +0.000 OA
ATOM     23  N   UNL     1       5.766  -3.695  26.685  0.00  0.00    +0.000 N 
ATOM     24  H   UNL     1       4.952  -4.135  26.665  0.00  0.00    +0.000 HD
BRANCH  23  25
ATOM     25  C   UNL     1       5.638  -2.327  26.771  0.00  0.00    +0.000 C 
ATOM     26  S   UNL     1       4.422  -2.187  28.034  0.00  0.00    +0.000 S 
ATOM     27  C   UNL     1       3.449  -1.020  27.452  0.00  0.00    +0.000 C 
ATOM     28  C   UNL     1       2.010  -1.389  27.594  0.00  0.00    +0.000 C 
ATOM     29  N   UNL     1       3.951  -0.694  26.213  0.00  0.00    +0.000 NA
ATOM     30  C   UNL     1       5.147  -1.335  25.895  0.00  0.00    +0.000 C 
BRANCH  30  31
ATOM     31  C   UNL     1       5.980  -0.593  24.953  0.00  0.00    +0.000 A 
ATOM     32  C   UNL     1       5.458   0.796  25.212  0.00  0.00    +0.000 A 
ATOM     33  C   UNL     1       6.162   1.926  25.884  0.00  0.00    +0.000 A 
ATOM     34  C   UNL     1       7.561   1.473  26.094  0.00  0.00    +0.000 A 
ATOM     35  C   UNL     1       8.377   0.377  25.726  0.00  0.00    +0.000 A 
ATOM     36  C   UNL     1       7.453  -0.647  25.049  0.00  0.00    +0.000 A 
ENDBRANCH  30  31
ENDBRANCH  23  25
ENDBRANCH   5  21
TORSDOF 6
ENDMDL
MODEL 5
REMARK VINA RESULT:      -7.9      2.354      3.472
REMARK  Name = 
REMARK  7 active torsions:
REMARK  status: ('A' for Active; 'I' for Inactive)
REMARK    1  A    between atoms: O_2  and  C_3
REMARK    2  A    between atoms: C_12  and  N_13
REMARK    3  A    between atoms: C_15  and  C_17
REMARK    4  A    between atoms: C_26  and  C_28
REMARK    5  A    between atoms: N_30  and  C_32
REMARK    6  A    between atoms: C_34  and  C_35
REMARK    7  A    between atoms: C_40  and  C_41
REMARK                            x       y       z     vdW  Elec       q    Type
REMARK                         _______ _______ _______ _____ _____    ______ ____
ROOT
ATOM      1  C   UNL     1       7.385  -2.224  23.626  0.00  0.00    +0.000 C 
ATOM      2  C   UNL     1       8.428  -3.289  23.851  0.00  0.00    +0.000 C 
ATOM      3  C   UNL     1       9.210  -2.975  25.131  0.00  0.00    +0.000 C 
ATOM      4  N   UNL     1       8.384  -2.067  25.943  0.00  0.00    +0.000 N 
ATOM      5  C   UNL     1       8.894  -0.970  26.462  0.00  0.00    +0.000 C 
ATOM      6  O   UNL     1       8.986  -0.744  27.639  0.00  0.00    +0.000 OA
ATOM      7  C   UNL     1       6.985  -2.443  26.070  0.00  0.00    +0.000 C 
ATOM      8  C   UNL     1       6.320  -2.277  24.711  0.00  0.00    +0.000 C 
ENDROOT
BRANCH   1  11
ATOM      9  N   UNL     1       6.148  -1.379  21.695  0.00  0.00    +0.000 N 
ATOM     10  H   UNL     1       5.200  -1.496  21.642  0.00  0.00    +0.000 HD
ATOM     11  C   UNL     1       6.698  -2.456  22.303  0.00  0.00    +0.000 C 
ATOM     12  O   UNL     1       6.147  -3.558  22.126  0.00  0.00    +0.000 OA
BRANCH   9  18
ATOM     13  C   UNL     1       5.591  -1.402  19.311  0.00  0.00    +0.000 A 
ATOM     14  C   UNL     1       5.557  -0.092  18.541  0.00  0.00    +0.000 A 
ATOM     15  C   UNL     1       6.541   1.031  18.592  0.00  0.00    +0.000 A 
ATOM     16  C   UNL     1       7.577   0.578  19.557  0.00  0.00    +0.000 A 
ATOM     17  C   UNL     1       7.912  -0.506  20.385  0.00  0.00    +0.000 A 
ATOM     18  C   UNL     1       6.606  -1.397  20.361  0.00  0.00    +0.000 A 
BRANCH  13  20
ATOM     19  H   UNL     1       6.327  -2.775  18.262  0.00  0.00    +0.000 HD
ATOM     20  O   UNL     1       5.547  -2.268  18.259  0.00  0.00    +0.000 OA
ENDBRANCH  13  20
ENDBRANCH   9  18
ENDBRANCH   1  11
BRANCH   5  21
ATOM     21  C   UNL     1       8.513   0.173  25.784  0.00  0.00    +0.000 C 
ATOM     22  O   UNL     1       9.454   0.553  25.124  0.00  0.00    +0.000 OA
ATOM     23  N   UNL     1       7.710   0.895  26.471  0.00  0.00    +0.000 N 
ATOM     24  H   UNL     1       7.286   0.530  27.208  0.00  0.00    +0.000 HD
BRANCH  23  25
ATOM     25  C   UNL     1       6.916   1.778  25.774  0.00  0.00    +0.000 C 
ATOM     26  S   UNL     1       5.789   2.272  27.029  0.00  0.00    +0.000 S 
ATOM     27  C   UNL     1       4.365   2.262  26.242  0.00  0.00    +0.000 C 
ATOM     28  C   UNL     1       3.303   1.592  27.046  0.00  0.00    +0.000 C 
ATOM     29  N   UNL     1       4.642   1.816  24.970  0.00  0.00    +0.000 NA
ATOM     30  C   UNL     1       5.998   1.635  24.710  0.00  0.00    +0.000 C 
BRANCH  30  31
ATOM     31  C   UNL     1       6.353   1.777  23.301  0.00  0.00    +0.000 A 
ATOM     32  C   UNL     1       5.310   2.784  22.891  0.00  0.00    +0.000 A 
ATOM     33  C   UNL     1       5.515   4.215  22.526  0.00  0.00    +0.000 A 
ATOM     34  C   UNL     1       6.986   4.418  22.467  0.00  0.00    +0.000 A 
ATOM     35  C   UNL     1       8.159   3.630  22.532  0.00  0.00    +0.000 A 
ATOM     36  C   UNL     1       7.710   2.210  22.908  0.00  0.00    +0.000 A 
ENDBRANCH  30  31
ENDBRANCH  23  25
ENDBRANCH   5  21
TORSDOF 6
ENDMDL
MODEL 6
REMARK VINA RESULT:      -7.7      2.146      4.710
REMARK  Name = 
REMARK  7 active torsions:
REMARK  status: ('A' for Active; 'I' for Inactive)
REMARK    1  A    between atoms: O_2  and  C_3
REMARK    2  A    between atoms: C_12  and  N_13
REMARK    3  A    between atoms: C_15  and  C_17
REMARK    4  A    between atoms: C_26  and  C_28
REMARK    5  A    between atoms: N_30  and  C_32
REMARK    6  A    between atoms: C_34  and  C_35
REMARK    7  A    between atoms: C_40  and  C_41
REMARK                            x       y       z     vdW  Elec       q    Type
REMARK                         _______ _______ _______ _____ _____    ______ ____
ROOT
ATOM      1  C   UNL     1       8.431  -0.031  23.003  0.00  0.00    +0.000 C 
ATOM      2  C   UNL     1       8.925   1.329  23.423  0.00  0.00    +0.000 C 
ATOM      3  C   UNL     1       9.127   1.352  24.942  0.00  0.00    +0.000 C 
ATOM      4  N   UNL     1       9.255  -0.043  25.392  0.00  0.00    +0.000 N 
ATOM      5  C   UNL     1       8.561  -0.490  26.418  0.00  0.00    +0.000 C 
ATOM      6  O   UNL     1       9.035  -0.892  27.447  0.00  0.00    +0.000 OA
ATOM      7  C   UNL     1      10.142  -0.877  24.596  0.00  0.00    +0.000 C 
ATOM      8  C   UNL     1       9.502  -1.088  23.231  0.00  0.00    +0.000 C 
ENDROOT
BRANCH   1  11
ATOM      9  N   UNL     1       6.799  -0.039  21.183  0.00  0.00    +0.000 N 
ATOM     10  H   UNL     1       6.607  -0.850  20.713  0.00  0.00    +0.000 HD
ATOM     11  C   UNL     1       8.108  -0.023  21.529  0.00  0.00    +0.000 C 
ATOM     12  O   UNL     1       8.911  -0.584  20.761  0.00  0.00    +0.000 OA
BRANCH   9  18
ATOM     13  C   UNL     1       6.158   0.609  18.911  0.00  0.00    +0.000 A 
ATOM     14  C   UNL     1       4.738   1.080  18.643  0.00  0.00    +0.000 A 
ATOM     15  C   UNL     1       3.914   2.028  19.452  0.00  0.00    +0.000 A 
ATOM     16  C   UNL     1       4.799   2.427  20.578  0.00  0.00    +0.000 A 
ATOM     17  C   UNL     1       6.089   2.215  21.094  0.00  0.00    +0.000 A 
ATOM     18  C   UNL     1       6.623   0.996  20.241  0.00  0.00    +0.000 A 
BRANCH  13  20
ATOM     19  H   UNL     1       7.536   0.529  17.638  0.00  0.00    +0.000 HD
ATOM     20  O   UNL     1       6.732   0.986  17.733  0.00  0.00    +0.000 OA
ENDBRANCH  13  20
ENDBRANCH   9  18
ENDBRANCH   1  11
BRANCH   5  21
ATOM     21  C   UNL     1       7.495  -1.284  26.041  0.00  0.00    +0.000 C 
ATOM     22  O   UNL     1       6.543  -0.566  25.833  0.00  0.00    +0.000 OA
ATOM     23  N   UNL     1       7.494  -2.410  26.650  0.00  0.00    +0.000 N 
ATOM     24  H   UNL     1       8.261  -2.694  27.082  0.00  0.00    +0.000 HD
BRANCH  23  25
ATOM     25  C   UNL     1       6.798  -3.438  26.055  0.00  0.00    +0.000 C 
ATOM     26  S   UNL     1       5.748  -3.935  27.375  0.00  0.00    +0.000 S 
ATOM     27  C   UNL     1       5.820  -5.558  27.285  0.00  0.00    +0.000 C 
ATOM     28  C   UNL     1       6.016  -6.170  28.631  0.00  0.00    +0.000 C 
ATOM     29  N   UNL     1       6.708  -5.839  26.272  0.00  0.00    +0.000 NA
ATOM     30  C   UNL     1       7.161  -4.718  25.580  0.00  0.00    +0.000 C 
BRANCH  30  31
ATOM     31  C   UNL     1       7.559  -4.995  24.203  0.00  0.00    +0.000 A 
ATOM     32  C   UNL     1       6.412  -5.881  23.794  0.00  0.00    +0.000 A 
ATOM     33  C   UNL     1       5.312  -5.568  22.838  0.00  0.00    +0.000 A 
ATOM     34  C   UNL     1       5.664  -4.265  22.218  0.00  0.00    +0.000 A 
ATOM     35  C   UNL     1       6.761  -3.371  22.201  0.00  0.00    +0.000 A 
ATOM     36  C   UNL     1       7.763  -3.891  23.243  0.00  0.00    +0.000 A 
ENDBRANCH  30  31
ENDBRANCH  23  25
ENDBRANCH   5  21
TORSDOF 6
ENDMDL
MODEL 7
REMARK VINA RESULT:      -7.7      3.148      5.418
REMARK  Name = 
REMARK  7 active torsions:
REMARK  status: ('A' for Active; 'I' for Inactive)
REMARK    1  A    between atoms: O_2  and  C_3
REMARK    2  A    between atoms: C_12  and  N_13
REMARK    3  A    between atoms: C_15  and  C_17
REMARK    4  A    between atoms: C_26  and  C_28
REMARK    5  A    between atoms: N_30  and  C_32
REMARK    6  A    between atoms: C_34  and  C_35
REMARK    7  A    between atoms: C_40  and  C_41
REMARK                            x       y       z     vdW  Elec       q    Type
REMARK                         _______ _______ _______ _____ _____    ______ ____
ROOT
ATOM      1  C   UNL     1       7.223  -3.199  23.193  0.00  0.00    +0.000 C 
ATOM      2  C   UNL     1       8.604  -2.599  23.130  0.00  0.00    +0.000 C 
ATOM      3  C   UNL     1       9.355  -2.908  24.430  0.00  0.00    +0.000 C 
ATOM      4  N   UNL     1       8.695  -4.064  25.058  0.00  0.00    +0.000 N 
ATOM      5  C   UNL     1       8.369  -4.046  26.334  0.00  0.00    +0.000 C 
ATOM      6  O   UNL     1       8.816  -4.787  27.168  0.00  0.00    +0.000 OA
ATOM      7  C   UNL     1       8.388  -5.169  24.164  0.00  0.00    +0.000 C 
ATOM      8  C   UNL     1       7.297  -4.719  23.203  0.00  0.00    +0.000 C 
ENDROOT
BRANCH   1  11
ATOM      9  N   UNL     1       6.363  -1.467  21.698  0.00  0.00    +0.000 N 
ATOM     10  H   UNL     1       5.454  -1.178  21.770  0.00  0.00    +0.000 HD
ATOM     11  C   UNL     1       6.434  -2.791  21.974  0.00  0.00    +0.000 C 
ATOM     12  O   UNL     1       5.458  -3.495  21.657  0.00  0.00    +0.000 OA
BRANCH   9  18
ATOM     13  C   UNL     1       5.601  -1.366  19.374  0.00  0.00    +0.000 A 
ATOM     14  C   UNL     1       5.355  -0.012  18.729  0.00  0.00    +0.000 A 
ATOM     15  C   UNL     1       6.211   1.211  18.801  0.00  0.00    +0.000 A 
ATOM     16  C   UNL     1       7.372   0.807  19.636  0.00  0.00    +0.000 A 
ATOM     17  C   UNL     1       7.897  -0.293  20.334  0.00  0.00    +0.000 A 
ATOM     18  C   UNL     1       6.699  -1.325  20.336  0.00  0.00    +0.000 A 
BRANCH  13  20
ATOM     19  H   UNL     1       4.690  -2.459  18.149  0.00  0.00    +0.000 HD
ATOM     20  O   UNL     1       5.558  -2.144  18.255  0.00  0.00    +0.000 OA
ENDBRANCH  13  20
ENDBRANCH   9  18
ENDBRANCH   1  11
BRANCH   5  21
ATOM     21  C   UNL     1       7.016  -3.854  26.540  0.00  0.00    +0.000 C 
ATOM     22  O   UNL     1       6.802  -2.663  26.570  0.00  0.00    +0.000 OA
ATOM     23  N   UNL     1       6.514  -4.748  27.308  0.00  0.00    +0.000 N 
ATOM     24  H   UNL     1       6.987  -5.527  27.468  0.00  0.00    +0.000 HD
BRANCH  23  25
ATOM     25  C   UNL     1       5.155  -4.948  27.223  0.00  0.00    +0.000 C 
ATOM     26  S   UNL     1       5.094  -6.386  26.213  0.00  0.00    +0.000 S 
ATOM     27  C   UNL     1       3.878  -6.041  25.189  0.00  0.00    +0.000 C 
ATOM     28  C   UNL     1       4.242  -6.372  23.780  0.00  0.00    +0.000 C 
ATOM     29  N   UNL     1       3.469  -4.766  25.506  0.00  0.00    +0.000 NA
ATOM     30  C   UNL     1       4.097  -4.227  26.627  0.00  0.00    +0.000 C 
BRANCH  30  31
ATOM     31  C   UNL     1       3.297  -3.225  27.326  0.00  0.00    +0.000 A 
ATOM     32  C   UNL     1       2.179  -4.107  27.815  0.00  0.00    +0.000 A 
ATOM     33  C   UNL     1       1.892  -4.524  29.218  0.00  0.00    +0.000 A 
ATOM     34  C   UNL     1       2.823  -3.748  30.077  0.00  0.00    +0.000 A 
ATOM     35  C   UNL     1       3.753  -2.692  29.932  0.00  0.00    +0.000 A 
ATOM     36  C   UNL     1       3.882  -2.428  28.424  0.00  0.00    +0.000 A 
ENDBRANCH  30  31
ENDBRANCH  23  25
ENDBRANCH   5  21
TORSDOF 6
ENDMDL
MODEL 8
REMARK VINA RESULT:      -7.6      2.896      5.762
REMARK  Name = 
REMARK  7 active torsions:
REMARK  status: ('A' for Active; 'I' for Inactive)
REMARK    1  A    between atoms: O_2  and  C_3
REMARK    2  A    between atoms: C_12  and  N_13
REMARK    3  A    between atoms: C_15  and  C_17
REMARK    4  A    between atoms: C_26  and  C_28
REMARK    5  A    between atoms: N_30  and  C_32
REMARK    6  A    between atoms: C_34  and  C_35
REMARK    7  A    between atoms: C_40  and  C_41
REMARK                            x       y       z     vdW  Elec       q    Type
REMARK                         _______ _______ _______ _____ _____    ______ ____
ROOT
ATOM      1  C   UNL     1       7.594   1.300  22.443  0.00  0.00    +0.000 C 
ATOM      2  C   UNL     1       8.750   2.187  22.055  0.00  0.00    +0.000 C 
ATOM      3  C   UNL     1      10.039   1.359  22.018  0.00  0.00    +0.000 C 
ATOM      4  N   UNL     1       9.653  -0.055  21.878  0.00  0.00    +0.000 N 
ATOM      5  C   UNL     1      10.174  -0.979  22.658  0.00  0.00    +0.000 C 
ATOM      6  O   UNL     1      10.854  -1.895  22.279  0.00  0.00    +0.000 OA
ATOM      7  C   UNL     1       8.634  -0.327  20.877  0.00  0.00    +0.000 C 
ATOM      8  C   UNL     1       7.319   0.269  21.357  0.00  0.00    +0.000 C 
ENDROOT
BRANCH   1  11
ATOM      9  N   UNL     1       5.417   1.686  23.484  0.00  0.00    +0.000 N 
ATOM     10  H   UNL     1       4.613   1.472  23.011  0.00  0.00    +0.000 HD
ATOM     11  C   UNL     1       6.346   2.131  22.606  0.00  0.00    +0.000 C 
ATOM     12  O   UNL     1       5.941   2.762  21.613  0.00  0.00    +0.000 OA
BRANCH   9  18
ATOM     13  C   UNL     1       3.679   2.969  24.635  0.00  0.00    +0.000 A 
ATOM     14  C   UNL     1       3.387   2.682  26.099  0.00  0.00    +0.000 A 
ATOM     15  C   UNL     1       4.364   2.468  27.209  0.00  0.00    +0.000 A 
ATOM     16  C   UNL     1       5.697   2.614  26.567  0.00  0.00    +0.000 A 
ATOM     17  C   UNL     1       6.299   2.879  25.325  0.00  0.00    +0.000 A 
ATOM     18  C   UNL     1       5.091   2.782  24.310  0.00  0.00    +0.000 A 
BRANCH  13  20
ATOM     19  H   UNL     1       3.587   4.811  24.284  0.00  0.00    +0.000 HD
ATOM     20  O   UNL     1       2.987   4.137  24.507  0.00  0.00    +0.000 OA
ENDBRANCH  13  20
ENDBRANCH   9  18
ENDBRANCH   1  11
BRANCH   5  21
ATOM     21  C   UNL     1       9.303  -1.405  23.642  0.00  0.00    +0.000 C 
ATOM     22  O   UNL     1       9.531  -0.773  24.649  0.00  0.00    +0.000 OA
ATOM     23  N   UNL     1       9.056  -2.658  23.557  0.00  0.00    +0.000 N 
ATOM     24  H   UNL     1       9.263  -3.111  22.777  0.00  0.00    +0.000 HD
BRANCH  23  25
ATOM     25  C   UNL     1       7.896  -3.105  24.148  0.00  0.00    +0.000 C 
ATOM     26  S   UNL     1       8.006  -4.832  23.834  0.00  0.00    +0.000 S 
ATOM     27  C   UNL     1       6.485  -5.203  23.393  0.00  0.00    +0.000 C 
ATOM     28  C   UNL     1       6.467  -6.070  22.179  0.00  0.00    +0.000 C 
ATOM     29  N   UNL     1       5.792  -4.014  23.393  0.00  0.00    +0.000 NA
ATOM     30  C   UNL     1       6.524  -2.926  23.864  0.00  0.00    +0.000 C 
BRANCH  30  31
ATOM     31  C   UNL     1       5.701  -1.870  24.445  0.00  0.00    +0.000 A 
ATOM     32  C   UNL     1       4.596  -2.715  25.023  0.00  0.00    +0.000 A 
ATOM     33  C   UNL     1       4.307  -2.982  26.461  0.00  0.00    +0.000 A 
ATOM     34  C   UNL     1       5.218  -2.099  27.235  0.00  0.00    +0.000 A 
ATOM     35  C   UNL     1       6.129  -1.047  26.980  0.00  0.00    +0.000 A 
ATOM     36  C   UNL     1       6.263  -0.947  25.453  0.00  0.00    +0.000 A 
ENDBRANCH  30  31
ENDBRANCH  23  25
ENDBRANCH   5  21
TORSDOF 6
ENDMDL
MODEL 9
REMARK VINA RESULT:      -7.6      2.780      4.514
REMARK  Name = 
REMARK  7 active torsions:
REMARK  status: ('A' for Active; 'I' for Inactive)
REMARK    1  A    between atoms: O_2  and  C_3
REMARK    2  A    between atoms: C_12  and  N_13
REMARK    3  A    between atoms: C_15  and  C_17
REMARK    4  A    between atoms: C_26  and  C_28
REMARK    5  A    between atoms: N_30  and  C_32
REMARK    6  A    between atoms: C_34  and  C_35
REMARK    7  A    between atoms: C_40  and  C_41
REMARK                            x       y       z     vdW  Elec       q    Type
REMARK                         _______ _______ _______ _____ _____    ______ ____
ROOT
ATOM      1  C   UNL     1       7.800   0.016  22.025  0.00  0.00    +0.000 C 
ATOM      2  C   UNL     1       9.004  -0.147  21.133  0.00  0.00    +0.000 C 
ATOM      3  C   UNL     1       9.948  -1.193  21.736  0.00  0.00    +0.000 C 
ATOM      4  N   UNL     1       9.159  -2.018  22.665  0.00  0.00    +0.000 N 
ATOM      5  C   UNL     1       9.595  -2.270  23.882  0.00  0.00    +0.000 C 
ATOM      6  O   UNL     1       9.860  -3.364  24.304  0.00  0.00    +0.000 OA
ATOM      7  C   UNL     1       7.871  -2.466  22.162  0.00  0.00    +0.000 C 
ATOM      8  C   UNL     1       6.960  -1.253  22.031  0.00  0.00    +0.000 C 
ENDROOT
BRANCH   1  11
ATOM      9  N   UNL     1       5.987   1.623  22.347  0.00  0.00    +0.000 N 
ATOM     10  H   UNL     1       5.120   1.448  21.983  0.00  0.00    +0.000 HD
ATOM     11  C   UNL     1       6.930   1.134  21.507  0.00  0.00    +0.000 C 
ATOM     12  O   UNL     1       6.676   1.148  20.289  0.00  0.00    +0.000 OA
BRANCH   9  18
ATOM     13  C   UNL     1       4.967   3.815  22.735  0.00  0.00    +0.000 A 
ATOM     14  C   UNL     1       5.185   4.512  24.068  0.00  0.00    +0.000 A 
ATOM     15  C   UNL     1       6.458   4.651  24.838  0.00  0.00    +0.000 A 
ATOM     16  C   UNL     1       7.478   3.965  24.001  0.00  0.00    +0.000 A 
ATOM     17  C   UNL     1       7.623   3.273  22.787  0.00  0.00    +0.000 A 
ATOM     18  C   UNL     1       6.129   3.027  22.331  0.00  0.00    +0.000 A 
BRANCH  13  20
ATOM     19  H   UNL     1       3.526   4.897  22.210  0.00  0.00    +0.000 HD
ATOM     20  O   UNL     1       4.438   4.857  22.034  0.00  0.00    +0.000 OA
ENDBRANCH  13  20
ENDBRANCH   9  18
ENDBRANCH   1  11
BRANCH   5  21
ATOM     21  C   UNL     1       8.945  -1.529  24.850  0.00  0.00    +0.000 C 
ATOM     22  O   UNL     1       9.740  -0.752  25.330  0.00  0.00    +0.000 OA
ATOM     23  N   UNL     1       8.066  -2.218  25.476  0.00  0.00    +0.000 N 
ATOM     24  H   UNL     1       7.778  -3.021  25.117  0.00  0.00    +0.000 HD
BRANCH  23  25
ATOM     25  C   UNL     1       7.063  -1.519  26.109  0.00  0.00    +0.000 C 
ATOM     26  S   UNL     1       5.975  -2.827  26.552  0.00  0.00    +0.000 S 
ATOM     27  C   UNL     1       4.516  -2.204  26.191  0.00  0.00    +0.000 C 
ATOM     28  C   UNL     1       3.672  -3.186  25.451  0.00  0.00    +0.000 C 
ATOM     29  N   UNL     1       4.761  -0.965  25.643  0.00  0.00    +0.000 NA
ATOM     30  C   UNL     1       6.100  -0.582  25.672  0.00  0.00    +0.000 C 
BRANCH  30  31
ATOM     31  C   UNL     1       6.298   0.864  25.696  0.00  0.00    +0.000 A 
ATOM     32  C   UNL     1       4.871   1.300  25.901  0.00  0.00    +0.000 A 
ATOM     33  C   UNL     1       4.269   1.910  27.120  0.00  0.00    +0.000 A 
ATOM     34  C   UNL     1       5.397   2.178  28.048  0.00  0.00    +0.000 A 
ATOM     35  C   UNL     1       6.812   2.131  28.023  0.00  0.00    +0.000 A 
ATOM     36  C   UNL     1       7.203   1.482  26.687  0.00  0.00    +0.000 A 
ENDBRANCH  30  31
ENDBRANCH  23  25
ENDBRANCH   5  21
TORSDOF 6
ENDMDL
