MODEL 1
REMARK VINA RESULT:      -8.7      0.000      0.000
REMARK  Name = 
REMARK  7 active torsions:
REMARK  status: ('A' for Active; 'I' for Inactive)
REMARK    1  A    between atoms: C_7  and  C_8
REMARK    2  A    between atoms: N_10  and  C_12
REMARK    3  A    between atoms: C_21  and  C_23
REMARK    4  A    between atoms: C_23  and  C_26
REMARK    5  A    between atoms: N_35  and  S_36
REMARK    6  A    between atoms: S_36  and  C_39
REMARK    7  A    between atoms: C_44  and  C_45
REMARK                            x       y       z     vdW  Elec       q    Type
REMARK                         _______ _______ _______ _____ _____    ______ ____
ROOT
ATOM      1  C   UNL     1       5.867  -3.003  23.148  0.00  0.00    +0.000 C 
ENDROOT
BRANCH   1   6
ATOM      2  C   UNL     1       9.016   0.575  21.309  0.00  0.00    +0.000 C 
ATOM      3  C   UNL     1       7.857   0.411  20.374  0.00  0.00    +0.000 C 
ATOM      4  C   UNL     1       6.700  -0.371  20.921  0.00  0.00    +0.000 C 
ATOM      5  N   UNL     1       7.153  -1.550  21.657  0.00  0.00    +0.000 N 
ATOM      6  C   UNL     1       6.266  -2.578  21.770  0.00  0.00    +0.000 C 
ATOM      7  O   UNL     1       5.878  -3.150  20.771  0.00  0.00    +0.000 OA
ATOM      8  C   UNL     1       8.568  -1.883  21.596  0.00  0.00    +0.000 C 
ATOM      9  C   UNL     1       9.395  -0.688  22.032  0.00  0.00    +0.000 C 
BRANCH   2  12
ATOM     10  C   UNL     1       8.457   1.496  23.515  0.00  0.00    +0.000 C 
ATOM     11  O   UNL     1       7.932   0.536  24.005  0.00  0.00    +0.000 OA
ATOM     12  N   UNL     1       8.800   1.648  22.255  0.00  0.00    +0.000 N 
ATOM     13  H   UNL     1       8.929   2.559  22.017  0.00  0.00    +0.000 HD
BRANCH  10  17
ATOM     14  C   UNL     1      10.737   4.945  23.718  0.00  0.00    +0.000 A 
ATOM     15  C   UNL     1      11.193   3.585  23.357  0.00  0.00    +0.000 A 
ATOM     16  C   UNL     1      10.682   2.266  23.744  0.00  0.00    +0.000 A 
ATOM     17  C   UNL     1       9.259   2.431  24.347  0.00  0.00    +0.000 A 
ATOM     18  C   UNL     1       8.621   3.662  24.795  0.00  0.00    +0.000 A 
ATOM     19  C   UNL     1       9.372   4.954  24.244  0.00  0.00    +0.000 A 
ENDBRANCH  10  17
ENDBRANCH   2  12
ENDBRANCH   1   6
BRANCH   1  20
ATOM     20  C   UNL     1       6.841  -4.041  23.666  0.00  0.00    +0.000 C 
ATOM     21  O   UNL     1       6.746  -5.190  23.254  0.00  0.00    +0.000 OA
ATOM     22  N   UNL     1       7.835  -3.650  24.461  0.00  0.00    +0.000 N 
ATOM     23  C   UNL     1       7.604  -2.671  25.529  0.00  0.00    +0.000 C 
ATOM     24  C   UNL     1       8.282  -3.173  26.798  0.00  0.00    +0.000 C 
ATOM     25  N   UNL     1       8.294  -4.592  26.870  0.00  0.00    +0.000 NA
ATOM     26  C   UNL     1       9.109  -5.161  25.874  0.00  0.00    +0.000 C 
ATOM     27  C   UNL     1       9.080  -4.395  24.555  0.00  0.00    +0.000 C 
BRANCH  25  28
ATOM     28  S   UNL     1       6.868  -5.255  27.081  0.00  0.00    +0.000 S 
ATOM     29  O   UNL     1       7.002  -6.075  28.366  0.00  0.00    +0.000 OA
ATOM     30  O   UNL     1       6.448  -6.131  26.064  0.00  0.00    +0.000 OA
BRANCH  28  31
ATOM     31  C   UNL     1       5.582  -4.142  27.548  0.00  0.00    +0.000 A 
ATOM     32  C   UNL     1       5.153  -4.633  28.871  0.00  0.00    +0.000 A 
ATOM     33  C   UNL     1       3.819  -5.045  29.286  0.00  0.00    +0.000 A 
ATOM     34  C   UNL     1       2.901  -5.265  28.035  0.00  0.00    +0.000 A 
ATOM     35  C   UNL     1       2.587  -6.821  28.148  0.00  0.00    +0.000 C 
ATOM     36  C   UNL     1       3.080  -4.585  26.751  0.00  0.00    +0.000 A 
ATOM     37  C   UNL     1       4.519  -3.987  26.555  0.00  0.00    +0.000 A 
ENDBRANCH  28  31
ENDBRANCH  25  28
ENDBRANCH   1  20
TORSDOF 6
ENDMDL
MODEL 2
REMARK VINA RESULT:      -8.7      1.230      1.622
REMARK  Name = 
REMARK  7 active torsions:
REMARK  status: ('A' for Active; 'I' for Inactive)
REMARK    1  A    between atoms: C_7  and  C_8
REMARK    2  A    between atoms: N_10  and  C_12
REMARK    3  A    between atoms: C_21  and  C_23
REMARK    4  A    between atoms: C_23  and  C_26
REMARK    5  A    between atoms: N_35  and  S_36
REMARK    6  A    between atoms: S_36  and  C_39
REMARK    7  A    between atoms: C_44  and  C_45
REMARK                            x       y       z     vdW  Elec       q    Type
REMARK                         _______ _______ _______ _____ _____    ______ ____
ROOT
ATOM      1  C   UNL     1       6.220  -2.379  23.217  0.00  0.00    +0.000 C 
ENDROOT
BRANCH   1   6
ATOM      2  C   UNL     1       9.889   1.071  22.356  0.00  0.00    +0.000 C 
ATOM      3  C   UNL     1       8.758   1.306  21.402  0.00  0.00    +0.000 C 
ATOM      4  C   UNL     1       7.485   0.581  21.727  0.00  0.00    +0.000 C 
ATOM      5  N   UNL     1       7.748  -0.795  22.147  0.00  0.00    +0.000 N 
ATOM      6  C   UNL     1       6.728  -1.685  21.992  0.00  0.00    +0.000 C 
ATOM      7  O   UNL     1       6.309  -1.932  20.879  0.00  0.00    +0.000 OA
ATOM      8  C   UNL     1       9.107  -1.295  22.014  0.00  0.00    +0.000 C 
ATOM      9  C   UNL     1      10.066  -0.372  22.741  0.00  0.00    +0.000 C 
BRANCH   2  12
ATOM     10  C   UNL     1      10.318   3.084  23.694  0.00  0.00    +0.000 C 
ATOM     11  O   UNL     1      11.246   3.535  23.085  0.00  0.00    +0.000 OA
ATOM     12  N   UNL     1       9.778   1.895  23.539  0.00  0.00    +0.000 N 
ATOM     13  H   UNL     1       9.262   1.626  24.291  0.00  0.00    +0.000 HD
BRANCH  10  17
ATOM     14  C   UNL     1       6.962   5.476  23.306  0.00  0.00    +0.000 A 
ATOM     15  C   UNL     1       8.371   5.859  23.072  0.00  0.00    +0.000 A 
ATOM     16  C   UNL     1       9.615   5.342  23.653  0.00  0.00    +0.000 A 
ATOM     17  C   UNL     1       9.325   3.981  24.343  0.00  0.00    +0.000 A 
ATOM     18  C   UNL     1       8.027   3.419  24.692  0.00  0.00    +0.000 A 
ATOM     19  C   UNL     1       6.838   4.160  23.934  0.00  0.00    +0.000 A 
ENDBRANCH  10  17
ENDBRANCH   2  12
ENDBRANCH   1   6
BRANCH   1  20
ATOM     20  C   UNL     1       7.179  -3.481  23.616  0.00  0.00    +0.000 C 
ATOM     21  O   UNL     1       7.100  -4.562  23.043  0.00  0.00    +0.000 OA
ATOM     22  N   UNL     1       8.144  -3.208  24.490  0.00  0.00    +0.000 N 
ATOM     23  C   UNL     1       7.875  -2.389  25.677  0.00  0.00    +0.000 C 
ATOM     24  C   UNL     1       8.512  -3.066  26.885  0.00  0.00    +0.000 C 
ATOM     25  N   UNL     1       8.525  -4.481  26.757  0.00  0.00    +0.000 NA
ATOM     26  C   UNL     1       9.374  -4.906  25.718  0.00  0.00    +0.000 C 
ATOM     27  C   UNL     1       9.388  -3.963  24.520  0.00  0.00    +0.000 C 
BRANCH  25  28
ATOM     28  S   UNL     1       7.095  -5.163  26.825  0.00  0.00    +0.000 S 
ATOM     29  O   UNL     1       7.121  -6.006  28.102  0.00  0.00    +0.000 OA
ATOM     30  O   UNL     1       6.780  -6.025  25.759  0.00  0.00    +0.000 OA
BRANCH  28  31
ATOM     31  C   UNL     1       5.757  -4.074  27.192  0.00  0.00    +0.000 A 
ATOM     32  C   UNL     1       5.360  -4.452  28.562  0.00  0.00    +0.000 A 
ATOM     33  C   UNL     1       4.050  -4.885  29.029  0.00  0.00    +0.000 A 
ATOM     34  C   UNL     1       3.138  -5.274  27.815  0.00  0.00    +0.000 A 
ATOM     35  C   UNL     1       2.902  -6.824  28.086  0.00  0.00    +0.000 C 
ATOM     36  C   UNL     1       3.276  -4.716  26.468  0.00  0.00    +0.000 A 
ATOM     37  C   UNL     1       4.682  -4.072  26.199  0.00  0.00    +0.000 A 
ENDBRANCH  28  31
ENDBRANCH  25  28
ENDBRANCH   1  20
TORSDOF 6
ENDMDL
MODEL 3
REMARK VINA RESULT:      -8.4      2.808      7.813
REMARK  Name = 
REMARK  7 active torsions:
REMARK  status: ('A' for Active; 'I' for Inactive)
REMARK    1  A    between atoms: C_7  and  C_8
REMARK    2  A    between atoms: N_10  and  C_12
REMARK    3  A    between atoms: C_21  and  C_23
REMARK    4  A    between atoms: C_23  and  C_26
REMARK    5  A    between atoms: N_35  and  S_36
REMARK    6  A    between atoms: S_36  and  C_39
REMARK    7  A    between atoms: C_44  and  C_45
REMARK                            x       y       z     vdW  Elec       q    Type
REMARK                         _______ _______ _______ _____ _____    ______ ____
ROOT
ATOM      1  C   UNL     1       9.790  -3.114  23.848  0.00  0.00    +0.000 C 
ENDROOT
BRANCH   1   6
ATOM      2  C   UNL     1       5.352  -5.623  24.183  0.00  0.00    +0.000 C 
ATOM      3  C   UNL     1       6.070  -5.715  25.495  0.00  0.00    +0.000 C 
ATOM      4  C   UNL     1       7.231  -4.779  25.655  0.00  0.00    +0.000 C 
ATOM      5  N   UNL     1       8.040  -4.720  24.438  0.00  0.00    +0.000 N 
ATOM      6  C   UNL     1       9.339  -4.335  24.587  0.00  0.00    +0.000 C 
ATOM      7  O   UNL     1      10.095  -5.014  25.251  0.00  0.00    +0.000 OA
ATOM      8  C   UNL     1       7.733  -5.664  23.375  0.00  0.00    +0.000 C 
ATOM      9  C   UNL     1       6.269  -5.548  22.994  0.00  0.00    +0.000 C 
BRANCH   2  12
ATOM     10  C   UNL     1       3.254  -4.498  24.784  0.00  0.00    +0.000 C 
ATOM     11  O   UNL     1       2.624  -5.442  25.170  0.00  0.00    +0.000 OA
ATOM     12  N   UNL     1       4.410  -4.526  24.158  0.00  0.00    +0.000 N 
ATOM     13  H   UNL     1       4.594  -3.717  23.693  0.00  0.00    +0.000 HD
BRANCH  10  17
ATOM     14  C   UNL     1       3.311  -2.190  28.221  0.00  0.00    +0.000 A 
ATOM     15  C   UNL     1       2.186  -2.995  27.696  0.00  0.00    +0.000 A 
ATOM     16  C   UNL     1       1.844  -3.387  26.325  0.00  0.00    +0.000 A 
ATOM     17  C   UNL     1       3.079  -3.160  25.410  0.00  0.00    +0.000 A 
ATOM     18  C   UNL     1       4.278  -2.387  25.709  0.00  0.00    +0.000 A 
ATOM     19  C   UNL     1       4.415  -2.086  27.267  0.00  0.00    +0.000 A 
ENDBRANCH  10  17
ENDBRANCH   2  12
ENDBRANCH   1   6
BRANCH   1  20
ATOM     20  C   UNL     1       9.253  -1.874  24.532  0.00  0.00    +0.000 C 
ATOM     21  O   UNL     1       8.299  -1.991  25.292  0.00  0.00    +0.000 OA
ATOM     22  N   UNL     1       9.900  -0.721  24.374  0.00  0.00    +0.000 N 
ATOM     23  C   UNL     1      10.424  -0.326  23.062  0.00  0.00    +0.000 C 
ATOM     24  C   UNL     1      10.061   1.135  22.819  0.00  0.00    +0.000 C 
ATOM     25  N   UNL     1       8.832   1.488  23.436  0.00  0.00    +0.000 NA
ATOM     26  C   UNL     1       8.920   1.453  24.840  0.00  0.00    +0.000 C 
ATOM     27  C   UNL     1       9.825   0.342  25.364  0.00  0.00    +0.000 C 
BRANCH  25  28
ATOM     28  S   UNL     1       7.550   0.811  22.791  0.00  0.00    +0.000 S 
ATOM     29  O   UNL     1       6.913   1.909  21.936  0.00  0.00    +0.000 OA
ATOM     30  O   UNL     1       6.574   0.367  23.701  0.00  0.00    +0.000 OA
BRANCH  28  31
ATOM     31  C   UNL     1       7.880  -0.402  21.555  0.00  0.00    +0.000 A 
ATOM     32  C   UNL     1       8.148   0.394  20.342  0.00  0.00    +0.000 A 
ATOM     33  C   UNL     1       7.470   0.325  19.055  0.00  0.00    +0.000 A 
ATOM     34  C   UNL     1       6.125  -0.468  19.189  0.00  0.00    +0.000 A 
ATOM     35  C   UNL     1       5.061   0.659  18.829  0.00  0.00    +0.000 C 
ATOM     36  C   UNL     1       5.873  -1.503  20.194  0.00  0.00    +0.000 A 
ATOM     37  C   UNL     1       6.851  -1.433  21.420  0.00  0.00    +0.000 A 
ENDBRANCH  28  31
ENDBRANCH  25  28
ENDBRANCH   1  20
TORSDOF 6
ENDMDL
MODEL 4
REMARK VINA RESULT:      -8.3      2.561      8.395
REMARK  Name = 
REMARK  7 active torsions:
REMARK  status: ('A' for Active; 'I' for Inactive)
REMARK    1  A    between atoms: C_7  and  C_8
REMARK    2  A    between atoms: N_10  and  C_12
REMARK    3  A    between atoms: C_21  and  C_23
REMARK    4  A    between atoms: C_23  and  C_26
REMARK    5  A    between atoms: N_35  and  S_36
REMARK    6  A    between atoms: S_36  and  C_39
REMARK    7  A    between atoms: C_44  and  C_45
REMARK                            x       y       z     vdW  Elec       q    Type
REMARK                         _______ _______ _______ _____ _____    ______ ____
ROOT
ATOM      1  C   UNL     1       5.363  -3.642  22.817  0.00  0.00    +0.000 C 
ENDROOT
BRANCH   1   6
ATOM      2  C   UNL     1       2.048  -6.607  25.332  0.00  0.00    +0.000 C 
ATOM      3  C   UNL     1       3.330  -7.358  25.135  0.00  0.00    +0.000 C 
ATOM      4  C   UNL     1       4.497  -6.526  24.693  0.00  0.00    +0.000 C 
ATOM      5  N   UNL     1       4.106  -5.564  23.663  0.00  0.00    +0.000 N 
ATOM      6  C   UNL     1       5.095  -5.115  22.841  0.00  0.00    +0.000 C 
ATOM      7  O   UNL     1       5.678  -5.897  22.118  0.00  0.00    +0.000 OA
ATOM      8  C   UNL     1       2.765  -5.672  23.110  0.00  0.00    +0.000 C 
ATOM      9  C   UNL     1       1.743  -5.629  24.231  0.00  0.00    +0.000 C 
BRANCH   2  12
ATOM     10  C   UNL     1       1.886  -6.544  27.782  0.00  0.00    +0.000 C 
ATOM     11  O   UNL     1       1.455  -7.644  27.982  0.00  0.00    +0.000 OA
ATOM     12  N   UNL     1       2.002  -5.944  26.617  0.00  0.00    +0.000 N 
ATOM     13  H   UNL     1       2.088  -5.000  26.698  0.00  0.00    +0.000 HD
BRANCH  10  17
ATOM     14  C   UNL     1       5.756  -5.370  28.668  0.00  0.00    +0.000 A 
ATOM     15  C   UNL     1       5.147  -6.700  28.885  0.00  0.00    +0.000 A 
ATOM     16  C   UNL     1       3.754  -7.092  29.126  0.00  0.00    +0.000 A 
ATOM     17  C   UNL     1       2.823  -5.907  28.745  0.00  0.00    +0.000 A 
ATOM     18  C   UNL     1       3.199  -4.519  28.511  0.00  0.00    +0.000 A 
ATOM     19  C   UNL     1       4.768  -4.361  28.286  0.00  0.00    +0.000 A 
ENDBRANCH  10  17
ENDBRANCH   2  12
ENDBRANCH   1   6
BRANCH   1  20
ATOM     20  C   UNL     1       5.932  -3.204  24.151  0.00  0.00    +0.000 C 
ATOM     21  O   UNL     1       5.223  -2.544  24.901  0.00  0.00    +0.000 OA
ATOM     22  N   UNL     1       7.136  -3.642  24.511  0.00  0.00    +0.000 N 
ATOM     23  C   UNL     1       8.238  -3.699  23.544  0.00  0.00    +0.000 C 
ATOM     24  C   UNL     1       9.486  -3.121  24.201  0.00  0.00    +0.000 C 
ATOM     25  N   UNL     1       9.171  -2.105  25.142  0.00  0.00    +0.000 NA
ATOM     26  C   UNL     1       8.481  -2.617  26.256  0.00  0.00    +0.000 C 
ATOM     27  C   UNL     1       7.525  -3.753  25.909  0.00  0.00    +0.000 C 
BRANCH  25  28
ATOM     28  S   UNL     1       8.595  -0.770  24.505  0.00  0.00    +0.000 S 
ATOM     29  O   UNL     1       9.570   0.326  24.939  0.00  0.00    +0.000 OA
ATOM     30  O   UNL     1       7.314  -0.391  24.943  0.00  0.00    +0.000 OA
BRANCH  28  31
ATOM     31  C   UNL     1       8.740  -0.649  22.751  0.00  0.00    +0.000 A 
ATOM     32  C   UNL     1       9.746   0.412  22.553  0.00  0.00    +0.000 A 
ATOM     33  C   UNL     1       9.607   1.651  21.800  0.00  0.00    +0.000 A 
ATOM     34  C   UNL     1       8.097   1.938  21.495  0.00  0.00    +0.000 A 
ATOM     35  C   UNL     1       7.868   3.293  22.296  0.00  0.00    +0.000 C 
ATOM     36  C   UNL     1       7.068   0.903  21.378  0.00  0.00    +0.000 A 
ATOM     37  C   UNL     1       7.473  -0.459  22.046  0.00  0.00    +0.000 A 
ENDBRANCH  28  31
ENDBRANCH  25  28
ENDBRANCH   1  20
TORSDOF 6
ENDMDL
MODEL 5
REMARK VINA RESULT:      -8.2      2.583      7.929
REMARK  Name = 
REMARK  7 active torsions:
REMARK  status: ('A' for Active; 'I' for Inactive)
REMARK    1  A    between atoms: C_7  and  C_8
REMARK    2  A    between atoms: N_10  and  C_12
REMARK    3  A    between atoms: C_21  and  C_23
REMARK    4  A    between atoms: C_23  and  C_26
REMARK    5  A    between atoms: N_35  and  S_36
REMARK    6  A    between atoms: S_36  and  C_39
REMARK    7  A    between atoms: C_44  and  C_45
REMARK                            x       y       z     vdW  Elec       q    Type
REMARK                         _______ _______ _______ _____ _____    ______ ____
ROOT
ATOM      1  C   UNL     1       6.407   1.540  26.714  0.00  0.00    +0.000 C 
ENDROOT
BRANCH   1   6
ATOM      2  C   UNL     1       4.589  -3.182  27.422  0.00  0.00    +0.000 C 
ATOM      3  C   UNL     1       4.173  -2.692  26.069  0.00  0.00    +0.000 C 
ATOM      4  C   UNL     1       4.879  -1.458  25.591  0.00  0.00    +0.000 C 
ATOM      5  N   UNL     1       5.013  -0.471  26.662  0.00  0.00    +0.000 N 
ATOM      6  C   UNL     1       5.164   0.828  26.279  0.00  0.00    +0.000 C 
ATOM      7  O   UNL     1       4.277   1.380  25.660  0.00  0.00    +0.000 OA
ATOM      8  C   UNL     1       4.316  -0.730  27.912  0.00  0.00    +0.000 C 
ATOM      9  C   UNL     1       4.717  -2.091  28.449  0.00  0.00    +0.000 C 
BRANCH   2  12
ATOM     10  C   UNL     1       5.877  -5.252  27.127  0.00  0.00    +0.000 C 
ATOM     11  O   UNL     1       4.999  -6.055  27.267  0.00  0.00    +0.000 OA
ATOM     12  N   UNL     1       5.807  -3.960  27.364  0.00  0.00    +0.000 N 
ATOM     13  H   UNL     1       6.663  -3.560  27.468  0.00  0.00    +0.000 HD
BRANCH  10  17
ATOM     14  C   UNL     1       8.342  -3.811  24.129  0.00  0.00    +0.000 A 
ATOM     15  C   UNL     1       7.000  -4.413  23.978  0.00  0.00    +0.000 A 
ATOM     16  C   UNL     1       6.290  -5.398  24.802  0.00  0.00    +0.000 A 
ATOM     17  C   UNL     1       6.997  -5.506  26.182  0.00  0.00    +0.000 A 
ATOM     18  C   UNL     1       8.319  -5.013  26.545  0.00  0.00    +0.000 A 
ATOM     19  C   UNL     1       8.871  -3.961  25.485  0.00  0.00    +0.000 A 
ENDBRANCH  10  17
ENDBRANCH   2  12
ENDBRANCH   1   6
BRANCH   1  20
ATOM     20  C   UNL     1       7.174   2.020  25.500  0.00  0.00    +0.000 C 
ATOM     21  O   UNL     1       6.664   2.874  24.785  0.00  0.00    +0.000 OA
ATOM     22  N   UNL     1       8.418   1.583  25.312  0.00  0.00    +0.000 N 
ATOM     23  C   UNL     1       8.765   0.176  25.542  0.00  0.00    +0.000 C 
ATOM     24  C   UNL     1       9.613  -0.309  24.372  0.00  0.00    +0.000 C 
ATOM     25  N   UNL     1       9.266   0.342  23.158  0.00  0.00    +0.000 NA
ATOM     26  C   UNL     1       9.587   1.712  23.186  0.00  0.00    +0.000 C 
ATOM     27  C   UNL     1       9.394   2.352  24.556  0.00  0.00    +0.000 C 
BRANCH  25  28
ATOM     28  S   UNL     1       7.834  -0.038  22.590  0.00  0.00    +0.000 S 
ATOM     29  O   UNL     1       7.264   1.275  22.049  0.00  0.00    +0.000 OA
ATOM     30  O   UNL     1       6.919  -0.537  23.533  0.00  0.00    +0.000 OA
BRANCH  28  31
ATOM     31  C   UNL     1       7.841  -1.010  21.119  0.00  0.00    +0.000 A 
ATOM     32  C   UNL     1       8.189  -0.044  20.059  0.00  0.00    +0.000 A 
ATOM     33  C   UNL     1       7.434   0.278  18.856  0.00  0.00    +0.000 A 
ATOM     34  C   UNL     1       5.968  -0.265  18.969  0.00  0.00    +0.000 A 
ATOM     35  C   UNL     1       5.131   1.088  18.937  0.00  0.00    +0.000 C 
ATOM     36  C   UNL     1       5.577  -1.420  19.779  0.00  0.00    +0.000 A 
ATOM     37  C   UNL     1       6.621  -1.785  20.893  0.00  0.00    +0.000 A 
ENDBRANCH  28  31
ENDBRANCH  25  28
ENDBRANCH   1  20
TORSDOF 6
ENDMDL
MODEL 6
REMARK VINA RESULT:      -8.2      1.908      2.713
REMARK  Name = 
REMARK  7 active torsions:
REMARK  status: ('A' for Active; 'I' for Inactive)
REMARK    1  A    between atoms: C_7  and  C_8
REMARK    2  A    between atoms: N_10  and  C_12
REMARK    3  A    between atoms: C_21  and  C_23
REMARK    4  A    between atoms: C_23  and  C_26
REMARK    5  A    between atoms: N_35  and  S_36
REMARK    6  A    between atoms: S_36  and  C_39
REMARK    7  A    between atoms: C_44  and  C_45
REMARK                            x       y       z     vdW  Elec       q    Type
REMARK                         _______ _______ _______ _____ _____    ______ ____
ROOT
ATOM      1  C   UNL     1       7.500  -1.874  22.923  0.00  0.00    +0.000 C 
ENDROOT
BRANCH   1   6
ATOM      2  C   UNL     1      10.300   2.295  23.865  0.00  0.00    +0.000 C 
ATOM      3  C   UNL     1      10.071   2.178  22.390  0.00  0.00    +0.000 C 
ATOM      4  C   UNL     1       9.018   1.191  21.982  0.00  0.00    +0.000 C 
ATOM      5  N   UNL     1       9.119  -0.046  22.755  0.00  0.00    +0.000 N 
ATOM      6  C   UNL     1       8.594  -1.167  22.185  0.00  0.00    +0.000 C 
ATOM      7  O   UNL     1       9.059  -1.588  21.145  0.00  0.00    +0.000 OA
ATOM      8  C   UNL     1      10.274  -0.209  23.624  0.00  0.00    +0.000 C 
ATOM      9  C   UNL     1      10.370   0.970  24.574  0.00  0.00    +0.000 C 
BRANCH   2  12
ATOM     10  C   UNL     1       9.185   4.441  24.289  0.00  0.00    +0.000 C 
ATOM     11  O   UNL     1      10.013   5.187  23.850  0.00  0.00    +0.000 OA
ATOM     12  N   UNL     1       9.320   3.150  24.499  0.00  0.00    +0.000 N 
ATOM     13  H   UNL     1       8.672   2.807  25.105  0.00  0.00    +0.000 HD
BRANCH  10  17
ATOM     14  C   UNL     1       5.408   3.240  23.093  0.00  0.00    +0.000 A 
ATOM     15  C   UNL     1       6.450   3.887  22.266  0.00  0.00    +0.000 A 
ATOM     16  C   UNL     1       7.535   4.803  22.633  0.00  0.00    +0.000 A 
ATOM     17  C   UNL     1       7.737   4.759  24.173  0.00  0.00    +0.000 A 
ATOM     18  C   UNL     1       6.835   4.200  25.172  0.00  0.00    +0.000 A 
ATOM     19  C   UNL     1       5.743   3.244  24.517  0.00  0.00    +0.000 A 
ENDBRANCH  10  17
ENDBRANCH   2  12
ENDBRANCH   1   6
BRANCH   1  20
ATOM     20  C   UNL     1       7.968  -3.256  23.331  0.00  0.00    +0.000 C 
ATOM     21  O   UNL     1       7.782  -4.188  22.558  0.00  0.00    +0.000 OA
ATOM     22  N   UNL     1       8.663  -3.393  24.458  0.00  0.00    +0.000 N 
ATOM     23  C   UNL     1       8.278  -2.667  25.673  0.00  0.00    +0.000 C 
ATOM     24  C   UNL     1       8.320  -3.638  26.848  0.00  0.00    +0.000 C 
ATOM     25  N   UNL     1       7.996  -4.964  26.454  0.00  0.00    +0.000 NA
ATOM     26  C   UNL     1       8.973  -5.513  25.604  0.00  0.00    +0.000 C 
ATOM     27  C   UNL     1       9.594  -4.493  24.655  0.00  0.00    +0.000 C 
BRANCH  25  28
ATOM     28  S   UNL     1       6.484  -5.175  26.023  0.00  0.00    +0.000 S 
ATOM     29  O   UNL     1       5.935  -6.212  27.006  0.00  0.00    +0.000 OA
ATOM     30  O   UNL     1       6.286  -5.679  24.726  0.00  0.00    +0.000 OA
BRANCH  28  31
ATOM     31  C   UNL     1       5.409  -3.818  26.360  0.00  0.00    +0.000 A 
ATOM     32  C   UNL     1       4.611  -4.278  27.513  0.00  0.00    +0.000 A 
ATOM     33  C   UNL     1       3.162  -4.383  27.617  0.00  0.00    +0.000 A 
ATOM     34  C   UNL     1       2.505  -4.292  26.198  0.00  0.00    +0.000 A 
ATOM     35  C   UNL     1       1.835  -5.730  26.072  0.00  0.00    +0.000 C 
ATOM     36  C   UNL     1       3.097  -3.591  25.057  0.00  0.00    +0.000 A 
ATOM     37  C   UNL     1       4.641  -3.347  25.208  0.00  0.00    +0.000 A 
ENDBRANCH  28  31
ENDBRANCH  25  28
ENDBRANCH   1  20
TORSDOF 6
ENDMDL
MODEL 7
REMARK VINA RESULT:      -8.2      2.700      8.216
REMARK  Name = 
REMARK  7 active torsions:
REMARK  status: ('A' for Active; 'I' for Inactive)
REMARK    1  A    between atoms: C_7  and  C_8
REMARK    2  A    between atoms: N_10  and  C_12
REMARK    3  A    between atoms: C_21  and  C_23
REMARK    4  A    between atoms: C_23  and  C_26
REMARK    5  A    between atoms: N_35  and  S_36
REMARK    6  A    between atoms: S_36  and  C_39
REMARK    7  A    between atoms: C_44  and  C_45
REMARK                            x       y       z     vdW  Elec       q    Type
REMARK                         _______ _______ _______ _____ _____    ______ ____
ROOT
ATOM      1  C   UNL     1       7.273  -3.955  23.986  0.00  0.00    +0.000 C 
ENDROOT
BRANCH   1   6
ATOM      2  C   UNL     1       3.551  -6.157  26.707  0.00  0.00    +0.000 C 
ATOM      3  C   UNL     1       4.759  -5.981  27.576  0.00  0.00    +0.000 C 
ATOM      4  C   UNL     1       5.820  -5.078  27.021  0.00  0.00    +0.000 C 
ATOM      5  N   UNL     1       6.036  -5.322  25.596  0.00  0.00    +0.000 N 
ATOM      6  C   UNL     1       7.251  -4.963  25.092  0.00  0.00    +0.000 C 
ATOM      7  O   UNL     1       8.257  -5.506  25.504  0.00  0.00    +0.000 OA
ATOM      8  C   UNL     1       5.369  -6.467  24.996  0.00  0.00    +0.000 C 
ATOM      9  C   UNL     1       3.876  -6.383  25.256  0.00  0.00    +0.000 C 
BRANCH   2  12
ATOM     10  C   UNL     1       1.929  -4.775  27.928  0.00  0.00    +0.000 C 
ATOM     11  O   UNL     1       1.664  -5.524  28.825  0.00  0.00    +0.000 OA
ATOM     12  N   UNL     1       2.621  -5.057  26.846  0.00  0.00    +0.000 N 
ATOM     13  H   UNL     1       2.475  -4.432  26.144  0.00  0.00    +0.000 HD
BRANCH  10  17
ATOM     14  C   UNL     1       4.192  -1.344  28.421  0.00  0.00    +0.000 A 
ATOM     15  C   UNL     1       3.788  -2.313  29.463  0.00  0.00    +0.000 A 
ATOM     16  C   UNL     1       2.623  -3.200  29.550  0.00  0.00    +0.000 A 
ATOM     17  C   UNL     1       1.961  -3.305  28.148  0.00  0.00    +0.000 A 
ATOM     18  C   UNL     1       2.187  -2.448  26.992  0.00  0.00    +0.000 A 
ATOM     19  C   UNL     1       3.513  -1.580  27.147  0.00  0.00    +0.000 A 
ENDBRANCH  10  17
ENDBRANCH   2  12
ENDBRANCH   1   6
BRANCH   1  20
ATOM     20  C   UNL     1       7.402  -2.562  24.565  0.00  0.00    +0.000 C 
ATOM     21  O   UNL     1       6.409  -2.038  25.056  0.00  0.00    +0.000 OA
ATOM     22  N   UNL     1       8.607  -1.999  24.625  0.00  0.00    +0.000 N 
ATOM     23  C   UNL     1       9.548  -2.114  23.506  0.00  0.00    +0.000 C 
ATOM     24  C   UNL     1      10.154  -0.740  23.241  0.00  0.00    +0.000 C 
ATOM     25  N   UNL     1       9.245   0.309  23.545  0.00  0.00    +0.000 NA
ATOM     26  C   UNL     1       8.971   0.385  24.922  0.00  0.00    +0.000 C 
ATOM     27  C   UNL     1       8.928  -0.976  25.609  0.00  0.00    +0.000 C 
BRANCH  25  28
ATOM     28  S   UNL     1       7.997   0.404  22.569  0.00  0.00    +0.000 S 
ATOM     29  O   UNL     1       8.213   1.697  21.779  0.00  0.00    +0.000 OA
ATOM     30  O   UNL     1       6.741   0.499  23.195  0.00  0.00    +0.000 OA
BRANCH  28  31
ATOM     31  C   UNL     1       7.976  -0.771  21.255  0.00  0.00    +0.000 A 
ATOM     32  C   UNL     1       8.283   0.034  20.057  0.00  0.00    +0.000 A 
ATOM     33  C   UNL     1       7.492   0.172  18.842  0.00  0.00    +0.000 A 
ATOM     34  C   UNL     1       6.037  -0.361  19.074  0.00  0.00    +0.000 A 
ATOM     35  C   UNL     1       5.182   0.965  18.871  0.00  0.00    +0.000 C 
ATOM     36  C   UNL     1       5.682  -1.390  20.053  0.00  0.00    +0.000 A 
ATOM     37  C   UNL     1       6.760  -1.581  21.179  0.00  0.00    +0.000 A 
ENDBRANCH  28  31
ENDBRANCH  25  28
ENDBRANCH   1  20
TORSDOF 6
ENDMDL
MODEL 8
REMARK VINA RESULT:      -8.1      2.676      3.844
REMARK  Name = 
REMARK  7 active torsions:
REMARK  status: ('A' for Active; 'I' for Inactive)
REMARK    1  A    between atoms: C_7  and  C_8
REMARK    2  A    between atoms: N_10  and  C_12
REMARK    3  A    between atoms: C_21  and  C_23
REMARK    4  A    between atoms: C_23  and  C_26
REMARK    5  A    between atoms: N_35  and  S_36
REMARK    6  A    between atoms: S_36  and  C_39
REMARK    7  A    between atoms: C_44  and  C_45
REMARK                            x       y       z     vdW  Elec       q    Type
REMARK                         _______ _______ _______ _____ _____    ______ ____
ROOT
ATOM      1  C   UNL     1       8.944  -2.428  24.105  0.00  0.00    +0.000 C 
ENDROOT
BRANCH   1   6
ATOM      2  C   UNL     1       9.823   2.523  23.197  0.00  0.00    +0.000 C 
ATOM      3  C   UNL     1      10.084   1.739  21.947  0.00  0.00    +0.000 C 
ATOM      4  C   UNL     1       9.580   0.327  21.961  0.00  0.00    +0.000 C 
ATOM      5  N   UNL     1       9.850  -0.324  23.243  0.00  0.00    +0.000 N 
ATOM      6  C   UNL     1       9.910  -1.685  23.235  0.00  0.00    +0.000 C 
ATOM      7  O   UNL     1      10.769  -2.246  22.585  0.00  0.00    +0.000 OA
ATOM      8  C   UNL     1      10.689   0.384  24.197  0.00  0.00    +0.000 C 
ATOM      9  C   UNL     1      10.114   1.763  24.461  0.00  0.00    +0.000 C 
BRANCH   2  12
ATOM     10  C   UNL     1       8.163   4.329  23.293  0.00  0.00    +0.000 C 
ATOM     11  O   UNL     1       8.862   5.223  23.678  0.00  0.00    +0.000 OA
ATOM     12  N   UNL     1       8.478   3.054  23.231  0.00  0.00    +0.000 N 
ATOM     13  H   UNL     1       7.714   2.490  23.177  0.00  0.00    +0.000 HD
BRANCH  10  17
ATOM     14  C   UNL     1       4.078   4.373  22.621  0.00  0.00    +0.000 A 
ATOM     15  C   UNL     1       5.000   3.225  22.483  0.00  0.00    +0.000 A 
ATOM     16  C   UNL     1       6.432   3.175  22.167  0.00  0.00    +0.000 A 
ATOM     17  C   UNL     1       7.041   4.593  22.353  0.00  0.00    +0.000 A 
ATOM     18  C   UNL     1       6.328   5.857  22.482  0.00  0.00    +0.000 A 
ATOM     19  C   UNL     1       4.787   5.637  22.820  0.00  0.00    +0.000 A 
ENDBRANCH  10  17
ENDBRANCH   2  12
ENDBRANCH   1   6
BRANCH   1  20
ATOM     20  C   UNL     1       8.084  -3.338  23.255  0.00  0.00    +0.000 C 
ATOM     21  O   UNL     1       7.755  -2.956  22.137  0.00  0.00    +0.000 OA
ATOM     22  N   UNL     1       7.808  -4.562  23.699  0.00  0.00    +0.000 N 
ATOM     23  C   UNL     1       7.460  -4.791  25.105  0.00  0.00    +0.000 C 
ATOM     24  C   UNL     1       6.247  -5.714  25.157  0.00  0.00    +0.000 C 
ATOM     25  N   UNL     1       5.390  -5.529  24.040  0.00  0.00    +0.000 NA
ATOM     26  C   UNL     1       5.998  -5.935  22.838  0.00  0.00    +0.000 C 
ATOM     27  C   UNL     1       7.496  -5.655  22.791  0.00  0.00    +0.000 C 
BRANCH  25  28
ATOM     28  S   UNL     1       4.631  -4.136  24.012  0.00  0.00    +0.000 S 
ATOM     29  O   UNL     1       4.688  -3.684  22.551  0.00  0.00    +0.000 OA
ATOM     30  O   UNL     1       5.205  -3.115  24.791  0.00  0.00    +0.000 OA
BRANCH  28  31
ATOM     31  C   UNL     1       2.885  -4.224  24.249  0.00  0.00    +0.000 A 
ATOM     32  C   UNL     1       2.662  -3.496  25.512  0.00  0.00    +0.000 A 
ATOM     33  C   UNL     1       2.020  -3.980  26.726  0.00  0.00    +0.000 A 
ATOM     34  C   UNL     1       1.893  -5.542  26.691  0.00  0.00    +0.000 A 
ATOM     35  C   UNL     1       2.810  -5.957  27.923  0.00  0.00    +0.000 C 
ATOM     36  C   UNL     1       1.807  -6.335  25.464  0.00  0.00    +0.000 A 
ATOM     37  C   UNL     1       2.329  -5.576  24.191  0.00  0.00    +0.000 A 
ENDBRANCH  28  31
ENDBRANCH  25  28
ENDBRANCH   1  20
TORSDOF 6
ENDMDL
MODEL 9
REMARK VINA RESULT:      -8.1      2.748      8.555
REMARK  Name = 
REMARK  7 active torsions:
REMARK  status: ('A' for Active; 'I' for Inactive)
REMARK    1  A    between atoms: C_7  and  C_8
REMARK    2  A    between atoms: N_10  and  C_12
REMARK    3  A    between atoms: C_21  and  C_23
REMARK    4  A    between atoms: C_23  and  C_26
REMARK    5  A    between atoms: N_35  and  S_36
REMARK    6  A    between atoms: S_36  and  C_39
REMARK    7  A    between atoms: C_44  and  C_45
REMARK                            x       y       z     vdW  Elec       q    Type
REMARK                         _______ _______ _______ _____ _____    ______ ____
ROOT
ATOM      1  C   UNL     1       8.781  -1.675  24.809  0.00  0.00    +0.000 C 
ENDROOT
BRANCH   1   6
ATOM      2  C   UNL     1       5.394  -4.798  22.599  0.00  0.00    +0.000 C 
ATOM      3  C   UNL     1       6.367  -5.611  23.395  0.00  0.00    +0.000 C 
ATOM      4  C   UNL     1       7.228  -4.831  24.344  0.00  0.00    +0.000 C 
ATOM      5  N   UNL     1       7.714  -3.595  23.730  0.00  0.00    +0.000 N 
ATOM      6  C   UNL     1       8.854  -3.063  24.252  0.00  0.00    +0.000 C 
ATOM      7  O   UNL     1       9.892  -3.691  24.196  0.00  0.00    +0.000 OA
ATOM      8  C   UNL     1       7.467  -3.403  22.310  0.00  0.00    +0.000 C 
ATOM      9  C   UNL     1       5.983  -3.539  22.025  0.00  0.00    +0.000 C 
BRANCH   2  12
ATOM     10  C   UNL     1       3.113  -5.231  23.398  0.00  0.00    +0.000 C 
ATOM     11  O   UNL     1       2.773  -6.053  22.595  0.00  0.00    +0.000 OA
ATOM     12  N   UNL     1       4.199  -4.492  23.355  0.00  0.00    +0.000 N 
ATOM     13  H   UNL     1       4.141  -3.722  23.911  0.00  0.00    +0.000 HD
BRANCH  10  17
ATOM     14  C   UNL     1       4.041  -5.249  27.432  0.00  0.00    +0.000 A 
ATOM     15  C   UNL     1       4.014  -6.406  26.510  0.00  0.00    +0.000 A 
ATOM     16  C   UNL     1       3.234  -6.644  25.292  0.00  0.00    +0.000 A 
ATOM     17  C   UNL     1       2.632  -5.297  24.803  0.00  0.00    +0.000 A 
ATOM     18  C   UNL     1       2.530  -4.047  25.546  0.00  0.00    +0.000 A 
ATOM     19  C   UNL     1       3.472  -4.043  26.831  0.00  0.00    +0.000 A 
ENDBRANCH  10  17
ENDBRANCH   2  12
ENDBRANCH   1   6
BRANCH   1  20
ATOM     20  C   UNL     1       9.545  -0.723  23.914  0.00  0.00    +0.000 C 
ATOM     21  O   UNL     1      10.726  -0.508  24.160  0.00  0.00    +0.000 OA
ATOM     22  N   UNL     1       8.944  -0.239  22.828  0.00  0.00    +0.000 N 
ATOM     23  C   UNL     1       7.547   0.204  22.876  0.00  0.00    +0.000 C 
ATOM     24  C   UNL     1       7.443   1.547  22.162  0.00  0.00    +0.000 C 
ATOM     25  N   UNL     1       8.632   2.314  22.294  0.00  0.00    +0.000 NA
ATOM     26  C   UNL     1       9.715   1.722  21.619  0.00  0.00    +0.000 C 
ATOM     27  C   UNL     1       9.700   0.198  21.665  0.00  0.00    +0.000 C 
BRANCH  25  28
ATOM     28  S   UNL     1       8.917   2.844  23.762  0.00  0.00    +0.000 S 
ATOM     29  O   UNL     1      10.416   2.625  23.976  0.00  0.00    +0.000 OA
ATOM     30  O   UNL     1       8.242   2.168  24.794  0.00  0.00    +0.000 OA
BRANCH  28  31
ATOM     31  C   UNL     1       8.820   4.593  23.963  0.00  0.00    +0.000 A 
ATOM     32  C   UNL     1       8.562   4.769  25.405  0.00  0.00    +0.000 A 
ATOM     33  C   UNL     1       7.451   5.464  26.040  0.00  0.00    +0.000 A 
ATOM     34  C   UNL     1       6.304   5.721  25.004  0.00  0.00    +0.000 A 
ATOM     35  C   UNL     1       5.122   4.855  25.626  0.00  0.00    +0.000 C 
ATOM     36  C   UNL     1       6.511   5.858  23.561  0.00  0.00    +0.000 A 
ATOM     37  C   UNL     1       7.876   5.260  23.066  0.00  0.00    +0.000 A 
ENDBRANCH  28  31
ENDBRANCH  25  28
ENDBRANCH   1  20
TORSDOF 6
ENDMDL
