MODEL 1
REMARK VINA RESULT:      -8.6      0.000      0.000
REMARK  Name = 
REMARK  4 active torsions:
REMARK  status: ('A' for Active; 'I' for Inactive)
REMARK    1  A    between atoms: C_7  and  C_8
REMARK    2  A    between atoms: N_23  and  S_24
REMARK    3  A    between atoms: S_24  and  C_27
REMARK    4  A    between atoms: N_36  and  C_37
REMARK                            x       y       z     vdW  Elec       q    Type
REMARK                         _______ _______ _______ _____ _____    ______ ____
ROOT
ATOM      1  C   UNL     1       7.107  -0.029  22.071  0.00  0.00    +0.000 C 
ATOM      2  C   UNL     1       7.559   1.009  23.201  0.00  0.00    +0.000 A 
ATOM      3  C   UNL     1       7.047   1.928  23.605  0.00  0.00    +0.000 A 
ATOM      4  C   UNL     1       7.264   3.358  23.488  0.00  0.00    +0.000 A 
ATOM      5  C   UNL     1       8.679   3.369  23.079  0.00  0.00    +0.000 A 
ATOM      6  C   UNL     1       9.701   2.528  22.539  0.00  0.00    +0.000 A 
ATOM      7  C   UNL     1       9.140   1.203  22.730  0.00  0.00    +0.000 A 
ATOM      8  C   UNL     1       9.959   0.033  23.149  0.00  0.00    +0.000 C 
ATOM      9  N   UNL     1       9.312  -1.122  22.859  0.00  0.00    +0.000 N 
ATOM     10  C   UNL     1       8.166  -1.071  22.149  0.00  0.00    +0.000 C 
ENDROOT
BRANCH   1  14
ATOM     11  C   UNL     1       5.644   0.330  18.442  0.00  0.00    +0.000 A 
ATOM     12  C   UNL     1       7.043  -0.152  18.688  0.00  0.00    +0.000 A 
ATOM     13  C   UNL     1       7.958   0.132  19.828  0.00  0.00    +0.000 A 
ATOM     14  C   UNL     1       7.121   0.913  20.919  0.00  0.00    +0.000 A 
ATOM     15  C   UNL     1       6.015   1.814  20.618  0.00  0.00    +0.000 A 
ATOM     16  C   UNL     1       5.285   1.492  19.282  0.00  0.00    +0.000 A 
ENDBRANCH   1  14
BRANCH   9  17
ATOM     17  S   UNL     1       9.150  -2.133  24.117  0.00  0.00    +0.000 S 
ATOM     18  O   UNL     1       9.585  -1.252  25.107  0.00  0.00    +0.000 OA
ATOM     19  O   UNL     1       9.979  -3.348  24.014  0.00  0.00    +0.000 OA
BRANCH  17  20
ATOM     20  C   UNL     1       7.631  -2.817  24.108  0.00  0.00    +0.000 A 
ATOM     21  C   UNL     1       7.757  -4.296  23.749  0.00  0.00    +0.000 A 
ATOM     22  C   UNL     1       6.929  -5.337  24.436  0.00  0.00    +0.000 A 
ATOM     23  C   UNL     1       6.251  -4.902  25.636  0.00  0.00    +0.000 A 
ATOM     24  C   UNL     1       5.866  -3.451  25.837  0.00  0.00    +0.000 A 
ATOM     25  C   UNL     1       6.468  -2.440  24.857  0.00  0.00    +0.000 A 
ATOM     26  N   UNL     1       4.720  -3.322  26.408  0.00  0.00    +0.000 N 
ATOM     27  C   UNL     1       4.041  -3.766  25.332  0.00  0.00    +0.000 C 
ATOM     28  C   UNL     1       4.929  -4.041  27.541  0.00  0.00    +0.000 C 
ATOM     29  C   UNL     1       6.077  -4.739  27.876  0.00  0.00    +0.000 C 
ATOM     30  C   UNL     1       7.009  -5.377  27.032  0.00  0.00    +0.000 C 
ENDBRANCH  17  20
ENDBRANCH   9  17
TORSDOF 3
ENDMDL
MODEL 2
REMARK VINA RESULT:      -8.4      1.620      1.841
REMARK  Name = 
REMARK  4 active torsions:
REMARK  status: ('A' for Active; 'I' for Inactive)
REMARK    1  A    between atoms: C_7  and  C_8
REMARK    2  A    between atoms: N_23  and  S_24
REMARK    3  A    between atoms: S_24  and  C_27
REMARK    4  A    between atoms: N_36  and  C_37
REMARK                            x       y       z     vdW  Elec       q    Type
REMARK                         _______ _______ _______ _____ _____    ______ ____
ROOT
ATOM      1  C   UNL     1       7.254  -0.790  22.811  0.00  0.00    +0.000 C 
ATOM      2  C   UNL     1       7.973  -0.285  24.147  0.00  0.00    +0.000 A 
ATOM      3  C   UNL     1       7.795   0.631  24.778  0.00  0.00    +0.000 A 
ATOM      4  C   UNL     1       8.510   1.872  25.010  0.00  0.00    +0.000 A 
ATOM      5  C   UNL     1       9.860   1.474  24.576  0.00  0.00    +0.000 A 
ATOM      6  C   UNL     1      10.550   0.478  23.817  0.00  0.00    +0.000 A 
ATOM      7  C   UNL     1       9.547  -0.563  23.693  0.00  0.00    +0.000 A 
ATOM      8  C   UNL     1       9.871  -2.012  23.789  0.00  0.00    +0.000 C 
ATOM      9  N   UNL     1       8.877  -2.754  23.244  0.00  0.00    +0.000 N 
ATOM     10  C   UNL     1       7.870  -2.128  22.600  0.00  0.00    +0.000 C 
ENDROOT
BRANCH   1  14
ATOM     11  C   UNL     1       6.401   0.774  19.309  0.00  0.00    +0.000 A 
ATOM     12  C   UNL     1       7.567  -0.149  19.500  0.00  0.00    +0.000 A 
ATOM     13  C   UNL     1       8.381  -0.411  20.721  0.00  0.00    +0.000 A 
ATOM     14  C   UNL     1       7.672   0.330  21.924  0.00  0.00    +0.000 A 
ATOM     15  C   UNL     1       6.909   1.566  21.796  0.00  0.00    +0.000 A 
ATOM     16  C   UNL     1       6.284   1.778  20.387  0.00  0.00    +0.000 A 
ENDBRANCH   1  14
BRANCH   9  17
ATOM     17  S   UNL     1       8.291  -3.910  24.219  0.00  0.00    +0.000 S 
ATOM     18  O   UNL     1       8.922  -3.488  25.389  0.00  0.00    +0.000 OA
ATOM     19  O   UNL     1       8.667  -5.276  23.814  0.00  0.00    +0.000 OA
BRANCH  17  20
ATOM     20  C   UNL     1       6.635  -4.005  24.059  0.00  0.00    +0.000 A 
ATOM     21  C   UNL     1       6.279  -5.331  23.391  0.00  0.00    +0.000 A 
ATOM     22  C   UNL     1       5.097  -6.135  23.836  0.00  0.00    +0.000 A 
ATOM     23  C   UNL     1       4.516  -5.741  25.100  0.00  0.00    +0.000 A 
ATOM     24  C   UNL     1       4.632  -4.318  25.607  0.00  0.00    +0.000 A 
ATOM     25  C   UNL     1       5.615  -3.406  24.869  0.00  0.00    +0.000 A 
ATOM     26  N   UNL     1       3.557  -3.916  26.190  0.00  0.00    +0.000 N 
ATOM     27  C   UNL     1       2.853  -3.870  25.042  0.00  0.00    +0.000 C 
ATOM     28  C   UNL     1       3.422  -4.875  27.142  0.00  0.00    +0.000 C 
ATOM     29  C   UNL     1       4.235  -5.981  27.322  0.00  0.00    +0.000 C 
ATOM     30  C   UNL     1       4.957  -6.720  26.363  0.00  0.00    +0.000 C 
ENDBRANCH  17  20
ENDBRANCH   9  17
TORSDOF 3
ENDMDL
MODEL 3
REMARK VINA RESULT:      -8.0      3.071      4.825
REMARK  Name = 
REMARK  4 active torsions:
REMARK  status: ('A' for Active; 'I' for Inactive)
REMARK    1  A    between atoms: C_7  and  C_8
REMARK    2  A    between atoms: N_23  and  S_24
REMARK    3  A    between atoms: S_24  and  C_27
REMARK    4  A    between atoms: N_36  and  C_37
REMARK                            x       y       z     vdW  Elec       q    Type
REMARK                         _______ _______ _______ _____ _____    ______ ____
ROOT
ATOM      1  C   UNL     1       7.045  -1.804  22.903  0.00  0.00    +0.000 C 
ATOM      2  C   UNL     1       6.471  -2.144  24.356  0.00  0.00    +0.000 A 
ATOM      3  C   UNL     1       5.958  -1.490  25.117  0.00  0.00    +0.000 A 
ATOM      4  C   UNL     1       6.332  -0.917  26.397  0.00  0.00    +0.000 A 
ATOM      5  C   UNL     1       7.447  -1.810  26.760  0.00  0.00    +0.000 A 
ATOM      6  C   UNL     1       8.360  -2.754  26.197  0.00  0.00    +0.000 A 
ATOM      7  C   UNL     1       7.748  -3.048  24.915  0.00  0.00    +0.000 A 
ATOM      8  C   UNL     1       7.718  -4.415  24.329  0.00  0.00    +0.000 C 
ATOM      9  N   UNL     1       7.476  -4.351  22.997  0.00  0.00    +0.000 N 
ATOM     10  C   UNL     1       7.444  -3.144  22.394  0.00  0.00    +0.000 C 
ENDROOT
BRANCH   1  14
ATOM     11  C   UNL     1       9.312   1.051  21.438  0.00  0.00    +0.000 A 
ATOM     12  C   UNL     1       9.815  -0.351  21.605  0.00  0.00    +0.000 A 
ATOM     13  C   UNL     1       9.393  -1.403  22.573  0.00  0.00    +0.000 A 
ATOM     14  C   UNL     1       8.114  -0.859  23.327  0.00  0.00    +0.000 A 
ATOM     15  C   UNL     1       7.861   0.548  23.610  0.00  0.00    +0.000 A 
ATOM     16  C   UNL     1       8.542   1.525  22.608  0.00  0.00    +0.000 A 
ENDBRANCH   1  14
BRANCH   9  17
ATOM     17  S   UNL     1       6.232  -5.263  22.496  0.00  0.00    +0.000 S 
ATOM     18  O   UNL     1       6.984  -6.333  22.011  0.00  0.00    +0.000 OA
ATOM     19  O   UNL     1       5.400  -4.620  21.463  0.00  0.00    +0.000 OA
BRANCH  17  20
ATOM     20  C   UNL     1       5.110  -5.417  23.718  0.00  0.00    +0.000 A 
ATOM     21  C   UNL     1       3.987  -4.408  23.488  0.00  0.00    +0.000 A 
ATOM     22  C   UNL     1       2.555  -4.766  23.733  0.00  0.00    +0.000 A 
ATOM     23  C   UNL     1       2.285  -6.176  23.898  0.00  0.00    +0.000 A 
ATOM     24  C   UNL     1       3.347  -7.122  24.420  0.00  0.00    +0.000 A 
ATOM     25  C   UNL     1       4.775  -6.575  24.494  0.00  0.00    +0.000 A 
ATOM     26  N   UNL     1       2.863  -8.014  25.212  0.00  0.00    +0.000 N 
ATOM     27  C   UNL     1       2.610  -7.124  26.193  0.00  0.00    +0.000 C 
ATOM     28  C   UNL     1       1.919  -8.568  24.409  0.00  0.00    +0.000 C 
ATOM     29  C   UNL     1       1.596  -8.175  23.122  0.00  0.00    +0.000 C 
ATOM     30  C   UNL     1       1.654  -6.891  22.542  0.00  0.00    +0.000 C 
ENDBRANCH  17  20
ENDBRANCH   9  17
TORSDOF 3
ENDMDL
MODEL 4
REMARK VINA RESULT:      -8.0      2.611      6.753
REMARK  Name = 
REMARK  4 active torsions:
REMARK  status: ('A' for Active; 'I' for Inactive)
REMARK    1  A    between atoms: C_7  and  C_8
REMARK    2  A    between atoms: N_23  and  S_24
REMARK    3  A    between atoms: S_24  and  C_27
REMARK    4  A    between atoms: N_36  and  C_37
REMARK                            x       y       z     vdW  Elec       q    Type
REMARK                         _______ _______ _______ _____ _____    ______ ____
ROOT
ATOM      1  C   UNL     1       8.613  -3.031  22.884  0.00  0.00    +0.000 C 
ATOM      2  C   UNL     1       9.063  -2.892  24.412  0.00  0.00    +0.000 A 
ATOM      3  C   UNL     1       9.390  -3.670  25.157  0.00  0.00    +0.000 A 
ATOM      4  C   UNL     1       8.798  -4.276  26.336  0.00  0.00    +0.000 A 
ATOM      5  C   UNL     1       7.785  -3.257  26.665  0.00  0.00    +0.000 A 
ATOM      6  C   UNL     1       7.082  -2.147  26.102  0.00  0.00    +0.000 A 
ATOM      7  C   UNL     1       7.870  -1.852  24.919  0.00  0.00    +0.000 A 
ATOM      8  C   UNL     1       8.157  -0.464  24.466  0.00  0.00    +0.000 C 
ATOM      9  N   UNL     1       8.536  -0.463  23.165  0.00  0.00    +0.000 N 
ATOM     10  C   UNL     1       8.466  -1.612  22.461  0.00  0.00    +0.000 C 
ENDROOT
BRANCH   1  14
ATOM     11  C   UNL     1       6.212  -5.487  20.976  0.00  0.00    +0.000 A 
ATOM     12  C   UNL     1       5.880  -4.036  21.156  0.00  0.00    +0.000 A 
ATOM     13  C   UNL     1       6.301  -3.091  22.229  0.00  0.00    +0.000 A 
ATOM     14  C   UNL     1       7.382  -3.835  23.111  0.00  0.00    +0.000 A 
ATOM     15  C   UNL     1       7.406  -5.274  23.343  0.00  0.00    +0.000 A 
ATOM     16  C   UNL     1       6.746  -6.107  22.206  0.00  0.00    +0.000 A 
ENDBRANCH   1  14
BRANCH   9  17
ATOM     17  S   UNL     1       9.944   0.288  22.877  0.00  0.00    +0.000 S 
ATOM     18  O   UNL     1      10.392  -0.561  21.865  0.00  0.00    +0.000 OA
ATOM     19  O   UNL     1      10.846   0.330  24.043  0.00  0.00    +0.000 OA
BRANCH  17  20
ATOM     20  C   UNL     1       9.686   1.918  22.652  0.00  0.00    +0.000 A 
ATOM     21  C   UNL     1       8.341   2.114  21.957  0.00  0.00    +0.000 A 
ATOM     22  C   UNL     1       7.417   3.226  22.347  0.00  0.00    +0.000 A 
ATOM     23  C   UNL     1       7.733   3.890  23.591  0.00  0.00    +0.000 A 
ATOM     24  C   UNL     1       9.153   3.937  24.117  0.00  0.00    +0.000 A 
ATOM     25  C   UNL     1      10.170   3.023  23.427  0.00  0.00    +0.000 A 
ATOM     26  N   UNL     1       9.438   5.068  24.661  0.00  0.00    +0.000 N 
ATOM     27  C   UNL     1       9.429   5.729  23.487  0.00  0.00    +0.000 C 
ATOM     28  C   UNL     1       8.456   5.143  25.598  0.00  0.00    +0.000 C 
ATOM     29  C   UNL     1       7.435   4.230  25.798  0.00  0.00    +0.000 C 
ATOM     30  C   UNL     1       6.785   3.402  24.861  0.00  0.00    +0.000 C 
ENDBRANCH  17  20
ENDBRANCH   9  17
TORSDOF 3
ENDMDL
MODEL 5
REMARK VINA RESULT:      -7.7      2.115      7.196
REMARK  Name = 
REMARK  4 active torsions:
REMARK  status: ('A' for Active; 'I' for Inactive)
REMARK    1  A    between atoms: C_7  and  C_8
REMARK    2  A    between atoms: N_23  and  S_24
REMARK    3  A    between atoms: S_24  and  C_27
REMARK    4  A    between atoms: N_36  and  C_37
REMARK                            x       y       z     vdW  Elec       q    Type
REMARK                         _______ _______ _______ _____ _____    ______ ____
ROOT
ATOM      1  C   UNL     1       5.055  -4.226  24.501  0.00  0.00    +0.000 C 
ATOM      2  C   UNL     1       5.987  -4.059  23.213  0.00  0.00    +0.000 A 
ATOM      3  C   UNL     1       5.749  -4.147  22.115  0.00  0.00    +0.000 A 
ATOM      4  C   UNL     1       6.042  -5.117  21.076  0.00  0.00    +0.000 A 
ATOM      5  C   UNL     1       7.202  -5.797  21.680  0.00  0.00    +0.000 A 
ATOM      6  C   UNL     1       7.868  -5.987  22.930  0.00  0.00    +0.000 A 
ATOM      7  C   UNL     1       7.295  -4.933  23.747  0.00  0.00    +0.000 A 
ATOM      8  C   UNL     1       8.096  -4.138  24.716  0.00  0.00    +0.000 C 
ATOM      9  N   UNL     1       7.282  -3.535  25.616  0.00  0.00    +0.000 N 
ATOM     10  C   UNL     1       5.965  -3.829  25.609  0.00  0.00    +0.000 C 
ENDROOT
BRANCH   1  14
ATOM     11  C   UNL     1       2.504  -6.928  25.779  0.00  0.00    +0.000 A 
ATOM     12  C   UNL     1       3.884  -6.807  26.354  0.00  0.00    +0.000 A 
ATOM     13  C   UNL     1       5.133  -6.294  25.725  0.00  0.00    +0.000 A 
ATOM     14  C   UNL     1       4.733  -5.669  24.329  0.00  0.00    +0.000 A 
ATOM     15  C   UNL     1       3.630  -6.141  23.501  0.00  0.00    +0.000 A 
ATOM     16  C   UNL     1       2.490  -6.832  24.304  0.00  0.00    +0.000 A 
ENDBRANCH   1  14
BRANCH   9  17
ATOM     17  S   UNL     1       7.499  -1.933  25.749  0.00  0.00    +0.000 S 
ATOM     18  O   UNL     1       8.696  -1.978  26.465  0.00  0.00    +0.000 OA
ATOM     19  O   UNL     1       6.415  -1.243  26.471  0.00  0.00    +0.000 OA
BRANCH  17  20
ATOM     20  C   UNL     1       7.357  -1.212  24.255  0.00  0.00    +0.000 A 
ATOM     21  C   UNL     1       6.314  -0.100  24.340  0.00  0.00    +0.000 A 
ATOM     22  C   UNL     1       6.512   1.209  23.640  0.00  0.00    +0.000 A 
ATOM     23  C   UNL     1       7.849   1.458  23.150  0.00  0.00    +0.000 A 
ATOM     24  C   UNL     1       8.775   0.316  22.784  0.00  0.00    +0.000 A 
ATOM     25  C   UNL     1       8.339  -1.086  23.217  0.00  0.00    +0.000 A 
ATOM     26  N   UNL     1       9.480   0.573  21.739  0.00  0.00    +0.000 N 
ATOM     27  C   UNL     1       8.422   0.505  20.907  0.00  0.00    +0.000 C 
ATOM     28  C   UNL     1      10.085   1.726  22.128  0.00  0.00    +0.000 C 
ATOM     29  C   UNL     1       9.888   2.399  23.321  0.00  0.00    +0.000 C 
ATOM     30  C   UNL     1       8.728   2.476  24.119  0.00  0.00    +0.000 C 
ENDBRANCH  17  20
ENDBRANCH   9  17
TORSDOF 3
ENDMDL
MODEL 6
REMARK VINA RESULT:      -7.6      1.936      2.925
REMARK  Name = 
REMARK  4 active torsions:
REMARK  status: ('A' for Active; 'I' for Inactive)
REMARK    1  A    between atoms: C_7  and  C_8
REMARK    2  A    between atoms: N_23  and  S_24
REMARK    3  A    between atoms: S_24  and  C_27
REMARK    4  A    between atoms: N_36  and  C_37
REMARK                            x       y       z     vdW  Elec       q    Type
REMARK                         _______ _______ _______ _____ _____    ______ ____
ROOT
ATOM      1  C   UNL     1       7.185   0.151  23.405  0.00  0.00    +0.000 C 
ATOM      2  C   UNL     1       7.846   1.140  24.474  0.00  0.00    +0.000 A 
ATOM      3  C   UNL     1       7.654   2.230  24.686  0.00  0.00    +0.000 A 
ATOM      4  C   UNL     1       8.381   3.464  24.451  0.00  0.00    +0.000 A 
ATOM      5  C   UNL     1       9.744   2.930  24.280  0.00  0.00    +0.000 A 
ATOM      6  C   UNL     1      10.451   1.717  24.009  0.00  0.00    +0.000 A 
ATOM      7  C   UNL     1       9.435   0.709  24.250  0.00  0.00    +0.000 A 
ATOM      8  C   UNL     1       9.727  -0.585  24.922  0.00  0.00    +0.000 C 
ATOM      9  N   UNL     1       8.747  -1.484  24.658  0.00  0.00    +0.000 N 
ATOM     10  C   UNL     1       7.785  -1.162  23.769  0.00  0.00    +0.000 C 
ENDROOT
BRANCH   1  14
ATOM     11  C   UNL     1       6.619   0.135  19.517  0.00  0.00    +0.000 A 
ATOM     12  C   UNL     1       7.771  -0.584  20.152  0.00  0.00    +0.000 A 
ATOM     13  C   UNL     1       8.481  -0.299  21.430  0.00  0.00    +0.000 A 
ATOM     14  C   UNL     1       7.668   0.835  22.175  0.00  0.00    +0.000 A 
ATOM     15  C   UNL     1       6.910   1.882  21.501  0.00  0.00    +0.000 A 
ATOM     16  C   UNL     1       6.405   1.483  20.085  0.00  0.00    +0.000 A 
ENDBRANCH   1  14
BRANCH   9  17
ATOM     17  S   UNL     1       8.090  -2.166  25.975  0.00  0.00    +0.000 S 
ATOM     18  O   UNL     1       7.718  -0.985  26.616  0.00  0.00    +0.000 OA
ATOM     19  O   UNL     1       9.037  -2.981  26.758  0.00  0.00    +0.000 OA
BRANCH  17  20
ATOM     20  C   UNL     1       7.000  -3.342  25.525  0.00  0.00    +0.000 A 
ATOM     21  C   UNL     1       5.616  -2.710  25.394  0.00  0.00    +0.000 A 
ATOM     22  C   UNL     1       4.687  -3.092  24.284  0.00  0.00    +0.000 A 
ATOM     23  C   UNL     1       5.283  -3.844  23.204  0.00  0.00    +0.000 A 
ATOM     24  C   UNL     1       6.501  -4.715  23.433  0.00  0.00    +0.000 A 
ATOM     25  C   UNL     1       7.226  -4.540  24.771  0.00  0.00    +0.000 A 
ATOM     26  N   UNL     1       6.451  -5.814  22.766  0.00  0.00    +0.000 N 
ATOM     27  C   UNL     1       5.456  -6.322  23.519  0.00  0.00    +0.000 C 
ATOM     28  C   UNL     1       6.298  -5.329  21.506  0.00  0.00    +0.000 C 
ATOM     29  C   UNL     1       6.178  -3.999  21.143  0.00  0.00    +0.000 C 
ATOM     30  C   UNL     1       5.614  -2.927  21.864  0.00  0.00    +0.000 C 
ENDBRANCH  17  20
ENDBRANCH   9  17
TORSDOF 3
ENDMDL
MODEL 7
REMARK VINA RESULT:      -7.5      1.950      6.632
REMARK  Name = 
REMARK  4 active torsions:
REMARK  status: ('A' for Active; 'I' for Inactive)
REMARK    1  A    between atoms: C_7  and  C_8
REMARK    2  A    between atoms: N_23  and  S_24
REMARK    3  A    between atoms: S_24  and  C_27
REMARK    4  A    between atoms: N_36  and  C_37
REMARK                            x       y       z     vdW  Elec       q    Type
REMARK                         _______ _______ _______ _____ _____    ______ ____
ROOT
ATOM      1  C   UNL     1       7.730  -3.023  24.520  0.00  0.00    +0.000 C 
ATOM      2  C   UNL     1       7.895  -3.516  26.032  0.00  0.00    +0.000 A 
ATOM      3  C   UNL     1       8.351  -4.456  26.455  0.00  0.00    +0.000 A 
ATOM      4  C   UNL     1       7.831  -5.658  27.078  0.00  0.00    +0.000 A 
ATOM      5  C   UNL     1       6.507  -5.173  27.506  0.00  0.00    +0.000 A 
ATOM      6  C   UNL     1       5.567  -4.121  27.276  0.00  0.00    +0.000 A 
ATOM      7  C   UNL     1       6.371  -3.137  26.576  0.00  0.00    +0.000 A 
ATOM      8  C   UNL     1       6.251  -1.675  26.821  0.00  0.00    +0.000 C 
ATOM      9  N   UNL     1       6.785  -0.979  25.788  0.00  0.00    +0.000 N 
ATOM     10  C   UNL     1       7.190  -1.647  24.687  0.00  0.00    +0.000 C 
ENDROOT
BRANCH   1  14
ATOM     11  C   UNL     1       6.369  -4.621  21.198  0.00  0.00    +0.000 A 
ATOM     12  C   UNL     1       5.580  -3.605  21.969  0.00  0.00    +0.000 A 
ATOM     13  C   UNL     1       5.606  -3.288  23.424  0.00  0.00    +0.000 A 
ATOM     14  C   UNL     1       6.807  -4.097  24.059  0.00  0.00    +0.000 A 
ATOM     15  C   UNL     1       7.275  -5.391  23.578  0.00  0.00    +0.000 A 
ATOM     16  C   UNL     1       6.991  -5.641  22.068  0.00  0.00    +0.000 A 
ENDBRANCH   1  14
BRANCH   9  17
ATOM     17  S   UNL     1       7.898   0.118  26.221  0.00  0.00    +0.000 S 
ATOM     18  O   UNL     1       8.882  -0.783  26.628  0.00  0.00    +0.000 OA
ATOM     19  O   UNL     1       7.455   1.022  27.298  0.00  0.00    +0.000 OA
BRANCH  17  20
ATOM     20  C   UNL     1       8.123   1.220  24.992  0.00  0.00    +0.000 A 
ATOM     21  C   UNL     1       9.593   1.209  24.581  0.00  0.00    +0.000 A 
ATOM     22  C   UNL     1      10.001   1.304  23.144  0.00  0.00    +0.000 A 
ATOM     23  C   UNL     1       8.942   1.101  22.181  0.00  0.00    +0.000 A 
ATOM     24  C   UNL     1       7.499   1.409  22.526  0.00  0.00    +0.000 A 
ATOM     25  C   UNL     1       7.188   1.670  24.003  0.00  0.00    +0.000 A 
ATOM     26  N   UNL     1       6.861   1.935  21.540  0.00  0.00    +0.000 N 
ATOM     27  C   UNL     1       7.540   3.096  21.612  0.00  0.00    +0.000 C 
ATOM     28  C   UNL     1       7.053   0.984  20.589  0.00  0.00    +0.000 C 
ATOM     29  C   UNL     1       7.798  -0.175  20.719  0.00  0.00    +0.000 C 
ATOM     30  C   UNL     1       8.944  -0.413  21.506  0.00  0.00    +0.000 C 
ENDBRANCH  17  20
ENDBRANCH   9  17
TORSDOF 3
ENDMDL
MODEL 8
REMARK VINA RESULT:      -7.4      1.883      6.715
REMARK  Name = 
REMARK  4 active torsions:
REMARK  status: ('A' for Active; 'I' for Inactive)
REMARK    1  A    between atoms: C_7  and  C_8
REMARK    2  A    between atoms: N_23  and  S_24
REMARK    3  A    between atoms: S_24  and  C_27
REMARK    4  A    between atoms: N_36  and  C_37
REMARK                            x       y       z     vdW  Elec       q    Type
REMARK                         _______ _______ _______ _____ _____    ______ ____
ROOT
ATOM      1  C   UNL     1       7.647  -3.780  24.122  0.00  0.00    +0.000 C 
ATOM      2  C   UNL     1       7.217  -3.629  25.654  0.00  0.00    +0.000 A 
ATOM      3  C   UNL     1       6.971  -4.407  26.431  0.00  0.00    +0.000 A 
ATOM      4  C   UNL     1       5.755  -4.861  27.081  0.00  0.00    +0.000 A 
ATOM      5  C   UNL     1       4.888  -3.693  26.846  0.00  0.00    +0.000 A 
ATOM      6  C   UNL     1       4.773  -2.524  26.031  0.00  0.00    +0.000 A 
ATOM      7  C   UNL     1       6.108  -2.405  25.473  0.00  0.00    +0.000 A 
ATOM      8  C   UNL     1       6.795  -1.098  25.295  0.00  0.00    +0.000 C 
ATOM      9  N   UNL     1       7.811  -1.217  24.406  0.00  0.00    +0.000 N 
ATOM     10  C   UNL     1       7.962  -2.378  23.736  0.00  0.00    +0.000 C 
ENDROOT
BRANCH   1  14
ATOM     11  C   UNL     1       6.240  -5.655  20.969  0.00  0.00    +0.000 A 
ATOM     12  C   UNL     1       6.017  -4.188  21.182  0.00  0.00    +0.000 A 
ATOM     13  C   UNL     1       5.957  -3.411  22.452  0.00  0.00    +0.000 A 
ATOM     14  C   UNL     1       6.385  -4.388  23.619  0.00  0.00    +0.000 A 
ATOM     15  C   UNL     1       6.141  -5.825  23.621  0.00  0.00    +0.000 A 
ATOM     16  C   UNL     1       6.036  -6.448  22.199  0.00  0.00    +0.000 A 
ENDBRANCH   1  14
BRANCH   9  17
ATOM     17  S   UNL     1       9.244  -0.690  24.951  0.00  0.00    +0.000 S 
ATOM     18  O   UNL     1      10.004  -1.778  24.523  0.00  0.00    +0.000 OA
ATOM     19  O   UNL     1       9.288  -0.487  26.411  0.00  0.00    +0.000 OA
BRANCH  17  20
ATOM     20  C   UNL     1       9.513   0.870  24.434  0.00  0.00    +0.000 A 
ATOM     21  C   UNL     1      10.187   0.828  23.065  0.00  0.00    +0.000 A 
ATOM     22  C   UNL     1       9.813   1.791  21.982  0.00  0.00    +0.000 A 
ATOM     23  C   UNL     1       8.596   2.538  22.206  0.00  0.00    +0.000 A 
ATOM     24  C   UNL     1       8.100   2.827  23.608  0.00  0.00    +0.000 A 
ATOM     25  C   UNL     1       8.782   2.063  24.747  0.00  0.00    +0.000 A 
ATOM     26  N   UNL     1       7.595   4.006  23.717  0.00  0.00    +0.000 N 
ATOM     27  C   UNL     1       8.789   4.618  23.586  0.00  0.00    +0.000 C 
ATOM     28  C   UNL     1       6.642   3.955  22.750  0.00  0.00    +0.000 C 
ATOM     29  C   UNL     1       6.395   2.899  21.890  0.00  0.00    +0.000 C 
ATOM     30  C   UNL     1       7.294   1.947  21.367  0.00  0.00    +0.000 C 
ENDBRANCH  17  20
ENDBRANCH   9  17
TORSDOF 3
ENDMDL
MODEL 9
REMARK VINA RESULT:      -7.4      2.080      4.145
REMARK  Name = 
REMARK  4 active torsions:
REMARK  status: ('A' for Active; 'I' for Inactive)
REMARK    1  A    between atoms: C_7  and  C_8
REMARK    2  A    between atoms: N_23  and  S_24
REMARK    3  A    between atoms: S_24  and  C_27
REMARK    4  A    between atoms: N_36  and  C_37
REMARK                            x       y       z     vdW  Elec       q    Type
REMARK                         _______ _______ _______ _____ _____    ______ ____
ROOT
ATOM      1  C   UNL     1       9.254   1.508  24.563  0.00  0.00    +0.000 C 
ATOM      2  C   UNL     1       8.987   0.361  23.482  0.00  0.00    +0.000 A 
ATOM      3  C   UNL     1       9.639  -0.036  22.653  0.00  0.00    +0.000 A 
ATOM      4  C   UNL     1       9.634   0.067  21.205  0.00  0.00    +0.000 A 
ATOM      5  C   UNL     1       8.227   0.441  20.980  0.00  0.00    +0.000 A 
ATOM      6  C   UNL     1       7.079   0.961  21.656  0.00  0.00    +0.000 A 
ATOM      7  C   UNL     1       7.442   0.791  23.051  0.00  0.00    +0.000 A 
ATOM      8  C   UNL     1       6.469   0.360  24.090  0.00  0.00    +0.000 C 
ATOM      9  N   UNL     1       6.930   0.672  25.326  0.00  0.00    +0.000 N 
ATOM     10  C   UNL     1       8.054   1.410  25.438  0.00  0.00    +0.000 C 
ENDROOT
BRANCH   1  14
ATOM     11  C   UNL     1      10.400   5.265  24.479  0.00  0.00    +0.000 A 
ATOM     12  C   UNL     1       8.957   4.880  24.620  0.00  0.00    +0.000 A 
ATOM     13  C   UNL     1       8.251   3.654  24.154  0.00  0.00    +0.000 A 
ATOM     14  C   UNL     1       9.353   2.654  23.619  0.00  0.00    +0.000 A 
ATOM     15  C   UNL     1      10.607   3.064  22.999  0.00  0.00    +0.000 A 
ATOM     16  C   UNL     1      11.106   4.466  23.455  0.00  0.00    +0.000 A 
ENDBRANCH   1  14
BRANCH   9  17
ATOM     17  S   UNL     1       6.969  -0.575  26.362  0.00  0.00    +0.000 S 
ATOM     18  O   UNL     1       5.713  -0.369  26.931  0.00  0.00    +0.000 OA
ATOM     19  O   UNL     1       8.070  -0.501  27.339  0.00  0.00    +0.000 OA
BRANCH  17  20
ATOM     20  C   UNL     1       7.389  -1.972  25.558  0.00  0.00    +0.000 A 
ATOM     21  C   UNL     1       8.580  -2.612  26.267  0.00  0.00    +0.000 A 
ATOM     22  C   UNL     1       8.672  -4.095  26.451  0.00  0.00    +0.000 A 
ATOM     23  C   UNL     1       7.454  -4.831  26.198  0.00  0.00    +0.000 A 
ATOM     24  C   UNL     1       6.404  -4.304  25.243  0.00  0.00    +0.000 A 
ATOM     25  C   UNL     1       6.560  -2.851  24.786  0.00  0.00    +0.000 A 
ATOM     26  N   UNL     1       5.868  -5.239  24.540  0.00  0.00    +0.000 N 
ATOM     27  C   UNL     1       6.987  -5.451  23.819  0.00  0.00    +0.000 C 
ATOM     28  C   UNL     1       5.416  -6.059  25.524  0.00  0.00    +0.000 C 
ATOM     29  C   UNL     1       5.586  -5.883  26.887  0.00  0.00    +0.000 C 
ATOM     30  C   UNL     1       6.648  -5.268  27.580  0.00  0.00    +0.000 C 
ENDBRANCH  17  20
ENDBRANCH   9  17
TORSDOF 3
ENDMDL
