MODEL 1
REMARK VINA RESULT:      -9.5      0.000      0.000
REMARK  Name = 
REMARK  4 active torsions:
REMARK  status: ('A' for Active; 'I' for Inactive)
REMARK    1  A    between atoms: C_7  and  C_8
REMARK    2  A    between atoms: C_24  and  C_26
REMARK    3  A    between atoms: N_35  and  S_36
REMARK    4  A    between atoms: S_36  and  C_39
REMARK                            x       y       z     vdW  Elec       q    Type
REMARK                         _______ _______ _______ _____ _____    ______ ____
ROOT
ATOM      1  C   UNL     1       8.151   0.784  21.233  0.00  0.00    +0.000 C 
ATOM      2  C   UNL     1       8.598   1.513  22.484  0.00  0.00    +0.000 A 
ATOM      3  C   UNL     1       7.676   1.903  23.091  0.00  0.00    +0.000 A 
ATOM      4  C   UNL     1       6.798   1.764  24.313  0.00  0.00    +0.000 A 
ATOM      5  C   UNL     1       7.685   0.741  25.044  0.00  0.00    +0.000 A 
ATOM      6  C   UNL     1       8.920   0.297  24.942  0.00  0.00    +0.000 A 
ATOM      7  C   UNL     1       9.587   0.914  23.531  0.00  0.00    +0.000 A 
ATOM      8  C   UNL     1      10.244  -0.222  23.098  0.00  0.00    +0.000 C 
ATOM      9  N   UNL     1       9.716  -1.103  22.214  0.00  0.00    +0.000 N 
ATOM     10  C   UNL     1       9.129  -2.288  22.504  0.00  0.00    +0.000 C 
ATOM     11  O   UNL     1       8.023  -2.611  22.322  0.00  0.00    +0.000 OA
ATOM     12  C   UNL     1       9.071  -0.416  21.217  0.00  0.00    +0.000 C 
ENDROOT
BRANCH  10  13
ATOM     13  C   UNL     1       9.358  -2.632  23.824  0.00  0.00    +0.000 C 
ATOM     14  O   UNL     1      10.550  -2.959  23.829  0.00  0.00    +0.000 OA
ATOM     15  N   UNL     1       8.471  -3.429  24.505  0.00  0.00    +0.000 N 
ATOM     16  C   UNL     1       8.457  -4.875  24.254  0.00  0.00    +0.000 C 
ATOM     17  C   UNL     1       7.550  -5.608  25.233  0.00  0.00    +0.000 C 
ATOM     18  N   UNL     1       6.825  -4.799  26.074  0.00  0.00    +0.000 NA
ATOM     19  C   UNL     1       7.606  -3.914  26.806  0.00  0.00    +0.000 C 
ATOM     20  C   UNL     1       8.604  -3.150  25.984  0.00  0.00    +0.000 C 
BRANCH  18  21
ATOM     21  S   UNL     1       5.433  -5.249  26.712  0.00  0.00    +0.000 S 
ATOM     22  O   UNL     1       5.344  -6.676  26.809  0.00  0.00    +0.000 OA
ATOM     23  O   UNL     1       5.285  -4.590  28.024  0.00  0.00    +0.000 OA
BRANCH  21  24
ATOM     24  C   UNL     1       4.060  -4.656  25.721  0.00  0.00    +0.000 A 
ATOM     25  C   UNL     1       4.698  -3.605  24.867  0.00  0.00    +0.000 A 
ATOM     26  C   UNL     1       5.003  -3.701  23.422  0.00  0.00    +0.000 A 
ATOM     27  C   UNL     1       4.402  -4.931  22.787  0.00  0.00    +0.000 A 
ATOM     28 CL   UNL     1       5.799  -5.724  21.968  0.00  0.00    +0.000 Cl
ATOM     29  C   UNL     1       3.493  -5.907  23.426  0.00  0.00    +0.000 A 
ATOM     30  C   UNL     1       3.340  -5.688  24.963  0.00  0.00    +0.000 A 
ENDBRANCH  21  24
ENDBRANCH  18  21
ENDBRANCH  10  13
BRANCH   1  34
ATOM     31  C   UNL     1       5.270   1.034  18.331  0.00  0.00    +0.000 A 
ATOM     32  C   UNL     1       6.333  -0.062  18.426  0.00  0.00    +0.000 A 
ATOM     33  C   UNL     1       7.279  -0.276  19.494  0.00  0.00    +0.000 A 
ATOM     34  C   UNL     1       7.005   0.813  20.735  0.00  0.00    +0.000 A 
ATOM     35  C   UNL     1       6.260   2.060  20.552  0.00  0.00    +0.000 A 
ATOM     36  C   UNL     1       5.139   1.642  19.646  0.00  0.00    +0.000 A 
ENDBRANCH   1  34
TORSDOF 4
ENDMDL
MODEL 2
REMARK VINA RESULT:      -8.9      1.547      2.026
REMARK  Name = 
REMARK  4 active torsions:
REMARK  status: ('A' for Active; 'I' for Inactive)
REMARK    1  A    between atoms: C_7  and  C_8
REMARK    2  A    between atoms: C_24  and  C_26
REMARK    3  A    between atoms: N_35  and  S_36
REMARK    4  A    between atoms: S_36  and  C_39
REMARK                            x       y       z     vdW  Elec       q    Type
REMARK                         _______ _______ _______ _____ _____    ______ ____
ROOT
ATOM      1  C   UNL     1       8.160   0.803  21.184  0.00  0.00    +0.000 C 
ATOM      2  C   UNL     1       8.729   1.539  22.380  0.00  0.00    +0.000 A 
ATOM      3  C   UNL     1       7.873   1.996  23.034  0.00  0.00    +0.000 A 
ATOM      4  C   UNL     1       7.072   1.940  24.315  0.00  0.00    +0.000 A 
ATOM      5  C   UNL     1       7.950   0.889  25.017  0.00  0.00    +0.000 A 
ATOM      6  C   UNL     1       9.150   0.374  24.847  0.00  0.00    +0.000 A 
ATOM      7  C   UNL     1       9.752   0.914  23.378  0.00  0.00    +0.000 A 
ATOM      8  C   UNL     1      10.317  -0.268  22.937  0.00  0.00    +0.000 C 
ATOM      9  N   UNL     1       9.683  -1.141  22.117  0.00  0.00    +0.000 N 
ATOM     10  C   UNL     1       9.054  -2.284  22.481  0.00  0.00    +0.000 C 
ATOM     11  O   UNL     1       7.922  -2.549  22.383  0.00  0.00    +0.000 OA
ATOM     12  C   UNL     1       9.010  -0.446  21.144  0.00  0.00    +0.000 C 
ENDROOT
BRANCH  10  13
ATOM     13  C   UNL     1       9.353  -2.604  23.793  0.00  0.00    +0.000 C 
ATOM     14  O   UNL     1      10.558  -2.876  23.751  0.00  0.00    +0.000 OA
ATOM     15  N   UNL     1       8.532  -3.434  24.517  0.00  0.00    +0.000 N 
ATOM     16  C   UNL     1       8.574  -4.882  24.278  0.00  0.00    +0.000 C 
ATOM     17  C   UNL     1       7.743  -5.646  25.299  0.00  0.00    +0.000 C 
ATOM     18  N   UNL     1       7.017  -4.862  26.164  0.00  0.00    +0.000 NA
ATOM     19  C   UNL     1       7.786  -3.936  26.856  0.00  0.00    +0.000 C 
ATOM     20  C   UNL     1       8.713  -3.135  25.987  0.00  0.00    +0.000 C 
BRANCH  18  21
ATOM     21  S   UNL     1       5.674  -5.370  26.863  0.00  0.00    +0.000 S 
ATOM     22  O   UNL     1       5.395  -6.733  26.522  0.00  0.00    +0.000 OA
ATOM     23  O   UNL     1       5.802  -5.173  28.319  0.00  0.00    +0.000 OA
BRANCH  21  24
ATOM     24  C   UNL     1       4.278  -4.358  26.364  0.00  0.00    +0.000 A 
ATOM     25  C   UNL     1       3.882  -3.689  27.644  0.00  0.00    +0.000 A 
ATOM     26  C   UNL     1       4.096  -2.270  28.005  0.00  0.00    +0.000 A 
ATOM     27  C   UNL     1       4.589  -1.446  26.841  0.00  0.00    +0.000 A 
ATOM     28 CL   UNL     1       6.074  -0.645  27.475  0.00  0.00    +0.000 Cl
ATOM     29  C   UNL     1       4.742  -1.892  25.439  0.00  0.00    +0.000 A 
ATOM     30  C   UNL     1       4.540  -3.428  25.258  0.00  0.00    +0.000 A 
ENDBRANCH  21  24
ENDBRANCH  18  21
ENDBRANCH  10  13
BRANCH   1  34
ATOM     31  C   UNL     1       5.109   1.200  18.478  0.00  0.00    +0.000 A 
ATOM     32  C   UNL     1       6.132   0.062  18.494  0.00  0.00    +0.000 A 
ATOM     33  C   UNL     1       7.136  -0.201  19.495  0.00  0.00    +0.000 A 
ATOM     34  C   UNL     1       6.986   0.883  20.762  0.00  0.00    +0.000 A 
ATOM     35  C   UNL     1       6.281   2.160  20.640  0.00  0.00    +0.000 A 
ATOM     36  C   UNL     1       5.088   1.797  19.805  0.00  0.00    +0.000 A 
ENDBRANCH   1  34
TORSDOF 4
ENDMDL
MODEL 3
REMARK VINA RESULT:      -8.6      2.138      2.747
REMARK  Name = 
REMARK  4 active torsions:
REMARK  status: ('A' for Active; 'I' for Inactive)
REMARK    1  A    between atoms: C_7  and  C_8
REMARK    2  A    between atoms: C_24  and  C_26
REMARK    3  A    between atoms: N_35  and  S_36
REMARK    4  A    between atoms: S_36  and  C_39
REMARK                            x       y       z     vdW  Elec       q    Type
REMARK                         _______ _______ _______ _____ _____    ______ ____
ROOT
ATOM      1  C   UNL     1       8.193   0.841  21.292  0.00  0.00    +0.000 C 
ATOM      2  C   UNL     1       8.652   1.541  22.555  0.00  0.00    +0.000 A 
ATOM      3  C   UNL     1       7.736   1.931  23.171  0.00  0.00    +0.000 A 
ATOM      4  C   UNL     1       6.859   1.780  24.392  0.00  0.00    +0.000 A 
ATOM      5  C   UNL     1       7.736   0.733  25.102  0.00  0.00    +0.000 A 
ATOM      6  C   UNL     1       8.965   0.276  24.988  0.00  0.00    +0.000 A 
ATOM      7  C   UNL     1       9.636   0.911  23.588  0.00  0.00    +0.000 A 
ATOM      8  C   UNL     1      10.278  -0.225  23.131  0.00  0.00    +0.000 C 
ATOM      9  N   UNL     1       9.737  -1.082  22.233  0.00  0.00    +0.000 N 
ATOM     10  C   UNL     1       9.137  -2.266  22.502  0.00  0.00    +0.000 C 
ATOM     11  O   UNL     1       8.026  -2.571  22.318  0.00  0.00    +0.000 OA
ATOM     12  C   UNL     1       9.098  -0.369  21.251  0.00  0.00    +0.000 C 
ENDROOT
BRANCH  10  13
ATOM     13  C   UNL     1       9.365  -2.636  23.815  0.00  0.00    +0.000 C 
ATOM     14  O   UNL     1      10.554  -2.974  23.812  0.00  0.00    +0.000 OA
ATOM     15  N   UNL     1       8.472  -3.438  24.483  0.00  0.00    +0.000 N 
ATOM     16  C   UNL     1       8.445  -4.880  24.205  0.00  0.00    +0.000 C 
ATOM     17  C   UNL     1       7.532  -5.622  25.171  0.00  0.00    +0.000 C 
ATOM     18  N   UNL     1       6.817  -4.823  26.029  0.00  0.00    +0.000 NA
ATOM     19  C   UNL     1       7.607  -3.959  26.777  0.00  0.00    +0.000 C 
ATOM     20  C   UNL     1       8.610  -3.189  25.967  0.00  0.00    +0.000 C 
BRANCH  18  21
ATOM     21  S   UNL     1       5.421  -5.272  26.661  0.00  0.00    +0.000 S 
ATOM     22  O   UNL     1       4.319  -4.795  25.880  0.00  0.00    +0.000 OA
ATOM     23  O   UNL     1       5.418  -6.742  26.790  0.00  0.00    +0.000 OA
BRANCH  21  24
ATOM     24  C   UNL     1       5.251  -4.646  28.334  0.00  0.00    +0.000 A 
ATOM     25  C   UNL     1       3.826  -4.188  28.372  0.00  0.00    +0.000 A 
ATOM     26  C   UNL     1       2.703  -4.846  29.076  0.00  0.00    +0.000 A 
ATOM     27  C   UNL     1       3.164  -5.966  29.977  0.00  0.00    +0.000 A 
ATOM     28 CL   UNL     1       2.166  -7.376  29.461  0.00  0.00    +0.000 Cl
ATOM     29  C   UNL     1       4.561  -6.344  30.281  0.00  0.00    +0.000 A 
ATOM     30  C   UNL     1       5.606  -5.593  29.399  0.00  0.00    +0.000 A 
ENDBRANCH  21  24
ENDBRANCH  18  21
ENDBRANCH  10  13
BRANCH   1  34
ATOM     31  C   UNL     1       5.305   1.282  18.418  0.00  0.00    +0.000 A 
ATOM     32  C   UNL     1       6.384   0.197  18.425  0.00  0.00    +0.000 A 
ATOM     33  C   UNL     1       7.335  -0.088  19.472  0.00  0.00    +0.000 A 
ATOM     34  C   UNL     1       7.046   0.893  20.797  0.00  0.00    +0.000 A 
ATOM     35  C   UNL     1       6.282   2.140  20.716  0.00  0.00    +0.000 A 
ATOM     36  C   UNL     1       5.167   1.779  19.779  0.00  0.00    +0.000 A 
ENDBRANCH   1  34
TORSDOF 4
ENDMDL
MODEL 4
REMARK VINA RESULT:      -8.5      1.972      2.901
REMARK  Name = 
REMARK  4 active torsions:
REMARK  status: ('A' for Active; 'I' for Inactive)
REMARK    1  A    between atoms: C_7  and  C_8
REMARK    2  A    between atoms: C_24  and  C_26
REMARK    3  A    between atoms: N_35  and  S_36
REMARK    4  A    between atoms: S_36  and  C_39
REMARK                            x       y       z     vdW  Elec       q    Type
REMARK                         _______ _______ _______ _____ _____    ______ ____
ROOT
ATOM      1  C   UNL     1       7.507   2.202  21.728  0.00  0.00    +0.000 C 
ATOM      2  C   UNL     1       8.914   2.360  22.267  0.00  0.00    +0.000 A 
ATOM      3  C   UNL     1       8.896   2.777  23.361  0.00  0.00    +0.000 A 
ATOM      4  C   UNL     1       9.096   2.511  24.835  0.00  0.00    +0.000 A 
ATOM      5  C   UNL     1       9.718   1.113  24.672  0.00  0.00    +0.000 A 
ATOM      6  C   UNL     1      10.244   0.406  23.694  0.00  0.00    +0.000 A 
ATOM      7  C   UNL     1       9.982   1.223  22.253  0.00  0.00    +0.000 A 
ATOM      8  C   UNL     1       9.643   0.144  21.459  0.00  0.00    +0.000 C 
ATOM      9  N   UNL     1       8.366  -0.244  21.227  0.00  0.00    +0.000 N 
ATOM     10  C   UNL     1       7.703  -1.256  21.836  0.00  0.00    +0.000 C 
ATOM     11  O   UNL     1       6.756  -1.196  22.514  0.00  0.00    +0.000 OA
ATOM     12  C   UNL     1       7.582   0.864  21.028  0.00  0.00    +0.000 C 
ENDROOT
BRANCH  10  13
ATOM     13  C   UNL     1       8.580  -2.039  22.566  0.00  0.00    +0.000 C 
ATOM     14  O   UNL     1       9.405  -2.404  21.720  0.00  0.00    +0.000 OA
ATOM     15  N   UNL     1       8.111  -2.977  23.452  0.00  0.00    +0.000 N 
ATOM     16  C   UNL     1       7.581  -4.250  22.946  0.00  0.00    +0.000 C 
ATOM     17  C   UNL     1       7.292  -5.228  24.076  0.00  0.00    +0.000 C 
ATOM     18  N   UNL     1       7.451  -4.720  25.343  0.00  0.00    +0.000 NA
ATOM     19  C   UNL     1       8.708  -4.175  25.571  0.00  0.00    +0.000 C 
ATOM     20  C   UNL     1       9.169  -3.224  24.502  0.00  0.00    +0.000 C 
BRANCH  18  21
ATOM     21  S   UNL     1       6.661  -5.294  26.606  0.00  0.00    +0.000 S 
ATOM     22  O   UNL     1       5.813  -6.388  26.234  0.00  0.00    +0.000 OA
ATOM     23  O   UNL     1       7.643  -5.675  27.639  0.00  0.00    +0.000 OA
BRANCH  21  24
ATOM     24  C   UNL     1       5.650  -4.015  27.356  0.00  0.00    +0.000 A 
ATOM     25  C   UNL     1       5.483  -3.030  26.242  0.00  0.00    +0.000 A 
ATOM     26  C   UNL     1       4.256  -2.787  25.450  0.00  0.00    +0.000 A 
ATOM     27  C   UNL     1       3.054  -3.502  26.016  0.00  0.00    +0.000 A 
ATOM     28 CL   UNL     1       2.401  -4.429  24.614  0.00  0.00    +0.000 Cl
ATOM     29  C   UNL     1       2.989  -4.268  27.279  0.00  0.00    +0.000 A 
ATOM     30  C   UNL     1       4.385  -4.478  27.943  0.00  0.00    +0.000 A 
ENDBRANCH  21  24
ENDBRANCH  18  21
ENDBRANCH  10  13
BRANCH   1  34
ATOM     31  C   UNL     1       5.199   4.610  24.108  0.00  0.00    +0.000 A 
ATOM     32  C   UNL     1       6.166   5.102  23.028  0.00  0.00    +0.000 A 
ATOM     33  C   UNL     1       6.896   4.303  22.074  0.00  0.00    +0.000 A 
ATOM     34  C   UNL     1       6.469   2.691  22.225  0.00  0.00    +0.000 A 
ATOM     35  C   UNL     1       5.840   2.142  23.427  0.00  0.00    +0.000 A 
ATOM     36  C   UNL     1       4.874   3.223  23.814  0.00  0.00    +0.000 A 
ENDBRANCH   1  34
TORSDOF 4
ENDMDL
MODEL 5
REMARK VINA RESULT:      -8.5      2.116      3.106
REMARK  Name = 
REMARK  4 active torsions:
REMARK  status: ('A' for Active; 'I' for Inactive)
REMARK    1  A    between atoms: C_7  and  C_8
REMARK    2  A    between atoms: C_24  and  C_26
REMARK    3  A    between atoms: N_35  and  S_36
REMARK    4  A    between atoms: S_36  and  C_39
REMARK                            x       y       z     vdW  Elec       q    Type
REMARK                         _______ _______ _______ _____ _____    ______ ____
ROOT
ATOM      1  C   UNL     1       7.788   2.333  21.806  0.00  0.00    +0.000 C 
ATOM      2  C   UNL     1       9.010   2.351  22.702  0.00  0.00    +0.000 A 
ATOM      3  C   UNL     1       8.720   2.653  23.795  0.00  0.00    +0.000 A 
ATOM      4  C   UNL     1       8.519   2.225  25.230  0.00  0.00    +0.000 A 
ATOM      5  C   UNL     1       9.119   0.817  25.073  0.00  0.00    +0.000 A 
ATOM      6  C   UNL     1       9.860   0.184  24.187  0.00  0.00    +0.000 A 
ATOM      7  C   UNL     1      10.009   1.160  22.831  0.00  0.00    +0.000 A 
ATOM      8  C   UNL     1       9.856   0.190  21.858  0.00  0.00    +0.000 C 
ATOM      9  N   UNL     1       8.673  -0.095  21.264  0.00  0.00    +0.000 N 
ATOM     10  C   UNL     1       7.844  -1.124  21.562  0.00  0.00    +0.000 C 
ATOM     11  O   UNL     1       6.754  -1.077  21.977  0.00  0.00    +0.000 OA
ATOM     12  C   UNL     1       8.003   1.072  20.999  0.00  0.00    +0.000 C 
ENDROOT
BRANCH  10  13
ATOM     13  C   UNL     1       8.475  -2.028  22.397  0.00  0.00    +0.000 C 
ATOM     14  O   UNL     1       9.516  -2.298  21.787  0.00  0.00    +0.000 OA
ATOM     15  N   UNL     1       7.775  -3.065  22.965  0.00  0.00    +0.000 N 
ATOM     16  C   UNL     1       7.431  -4.237  22.151  0.00  0.00    +0.000 C 
ATOM     17  C   UNL     1       6.831  -5.353  22.996  0.00  0.00    +0.000 C 
ATOM     18  N   UNL     1       6.606  -5.031  24.312  0.00  0.00    +0.000 NA
ATOM     19  C   UNL     1       7.735  -4.564  24.973  0.00  0.00    +0.000 C 
ATOM     20  C   UNL     1       8.480  -3.489  24.232  0.00  0.00    +0.000 C 
BRANCH  18  21
ATOM     21  S   UNL     1       5.486  -5.749  25.194  0.00  0.00    +0.000 S 
ATOM     22  O   UNL     1       4.836  -6.793  24.458  0.00  0.00    +0.000 OA
ATOM     23  O   UNL     1       6.113  -6.247  26.433  0.00  0.00    +0.000 OA
BRANCH  21  24
ATOM     24  C   UNL     1       4.245  -4.567  25.728  0.00  0.00    +0.000 A 
ATOM     25  C   UNL     1       4.583  -4.363  27.172  0.00  0.00    +0.000 A 
ATOM     26  C   UNL     1       5.212  -3.166  27.774  0.00  0.00    +0.000 A 
ATOM     27  C   UNL     1       5.306  -2.014  26.803  0.00  0.00    +0.000 A 
ATOM     28 CL   UNL     1       7.045  -1.545  26.854  0.00  0.00    +0.000 Cl
ATOM     29  C   UNL     1       4.745  -1.956  25.436  0.00  0.00    +0.000 A 
ATOM     30  C   UNL     1       4.182  -3.326  24.945  0.00  0.00    +0.000 A 
ENDBRANCH  21  24
ENDBRANCH  18  21
ENDBRANCH  10  13
BRANCH   1  34
ATOM     31  C   UNL     1       5.033   4.697  23.705  0.00  0.00    +0.000 A 
ATOM     32  C   UNL     1       6.233   5.209  22.905  0.00  0.00    +0.000 A 
ATOM     33  C   UNL     1       7.151   4.433  22.108  0.00  0.00    +0.000 A 
ATOM     34  C   UNL     1       6.672   2.829  22.073  0.00  0.00    +0.000 A 
ATOM     35  C   UNL     1       5.770   2.244  23.067  0.00  0.00    +0.000 A 
ATOM     36  C   UNL     1       4.760   3.334  23.274  0.00  0.00    +0.000 A 
ENDBRANCH   1  34
TORSDOF 4
ENDMDL
MODEL 6
REMARK VINA RESULT:      -8.1      1.661      2.184
REMARK  Name = 
REMARK  4 active torsions:
REMARK  status: ('A' for Active; 'I' for Inactive)
REMARK    1  A    between atoms: C_7  and  C_8
REMARK    2  A    between atoms: C_24  and  C_26
REMARK    3  A    between atoms: N_35  and  S_36
REMARK    4  A    between atoms: S_36  and  C_39
REMARK                            x       y       z     vdW  Elec       q    Type
REMARK                         _______ _______ _______ _____ _____    ______ ____
ROOT
ATOM      1  C   UNL     1       8.637  -1.045  22.194  0.00  0.00    +0.000 C 
ATOM      2  C   UNL     1       8.450  -0.005  23.281  0.00  0.00    +0.000 A 
ATOM      3  C   UNL     1       7.369   0.443  23.247  0.00  0.00    +0.000 A 
ATOM      4  C   UNL     1       5.999   0.529  23.879  0.00  0.00    +0.000 A 
ATOM      5  C   UNL     1       6.364  -0.216  25.176  0.00  0.00    +0.000 A 
ATOM      6  C   UNL     1       7.468  -0.571  25.798  0.00  0.00    +0.000 A 
ATOM      7  C   UNL     1       8.769  -0.257  24.787  0.00  0.00    +0.000 A 
ATOM      8  C   UNL     1       9.498  -1.407  25.023  0.00  0.00    +0.000 C 
ATOM      9  N   UNL     1       9.428  -2.512  24.242  0.00  0.00    +0.000 N 
ATOM     10  C   UNL     1       8.718  -3.637  24.492  0.00  0.00    +0.000 C 
ATOM     11  O   UNL     1       7.828  -4.081  23.882  0.00  0.00    +0.000 OA
ATOM     12  C   UNL     1       9.388  -2.136  22.923  0.00  0.00    +0.000 C 
ENDROOT
BRANCH  10  13
ATOM     13  C   UNL     1       8.255  -3.637  25.796  0.00  0.00    +0.000 C 
ATOM     14  O   UNL     1       9.229  -4.035  26.443  0.00  0.00    +0.000 OA
ATOM     15  N   UNL     1       7.023  -4.161  26.102  0.00  0.00    +0.000 N 
ATOM     16  C   UNL     1       6.852  -5.618  26.166  0.00  0.00    +0.000 C 
ATOM     17  C   UNL     1       5.479  -6.001  26.703  0.00  0.00    +0.000 C 
ATOM     18  N   UNL     1       4.619  -4.949  26.909  0.00  0.00    +0.000 NA
ATOM     19  C   UNL     1       5.135  -3.961  27.738  0.00  0.00    +0.000 C 
ATOM     20  C   UNL     1       6.521  -3.513  27.372  0.00  0.00    +0.000 C 
BRANCH  18  21
ATOM     21  S   UNL     1       3.032  -5.115  26.865  0.00  0.00    +0.000 S 
ATOM     22  O   UNL     1       2.648  -6.483  27.048  0.00  0.00    +0.000 OA
ATOM     23  O   UNL     1       2.441  -4.228  27.885  0.00  0.00    +0.000 OA
BRANCH  21  24
ATOM     24  C   UNL     1       2.378  -4.542  25.295  0.00  0.00    +0.000 A 
ATOM     25  C   UNL     1       3.479  -3.670  24.777  0.00  0.00    +0.000 A 
ATOM     26  C   UNL     1       4.408  -3.980  23.667  0.00  0.00    +0.000 A 
ATOM     27  C   UNL     1       4.010  -5.227  22.915  0.00  0.00    +0.000 A 
ATOM     28 CL   UNL     1       5.504  -6.236  22.929  0.00  0.00    +0.000 Cl
ATOM     29  C   UNL     1       2.784  -6.030  23.111  0.00  0.00    +0.000 A 
ATOM     30  C   UNL     1       1.962  -5.598  24.364  0.00  0.00    +0.000 A 
ENDBRANCH  21  24
ENDBRANCH  18  21
ENDBRANCH  10  13
BRANCH   1  34
ATOM     31  C   UNL     1       5.863  -0.159  19.312  0.00  0.00    +0.000 A 
ATOM     32  C   UNL     1       7.226   0.521  19.464  0.00  0.00    +0.000 A 
ATOM     33  C   UNL     1       8.290   0.159  20.368  0.00  0.00    +0.000 A 
ATOM     34  C   UNL     1       7.885  -1.227  21.213  0.00  0.00    +0.000 A 
ATOM     35  C   UNL     1       6.506  -1.698  21.358  0.00  0.00    +0.000 A 
ATOM     36  C   UNL     1       5.927  -1.441  19.998  0.00  0.00    +0.000 A 
ENDBRANCH   1  34
TORSDOF 4
ENDMDL
MODEL 7
REMARK VINA RESULT:      -7.9      3.071      7.334
REMARK  Name = 
REMARK  4 active torsions:
REMARK  status: ('A' for Active; 'I' for Inactive)
REMARK    1  A    between atoms: C_7  and  C_8
REMARK    2  A    between atoms: C_24  and  C_26
REMARK    3  A    between atoms: N_35  and  S_36
REMARK    4  A    between atoms: S_36  and  C_39
REMARK                            x       y       z     vdW  Elec       q    Type
REMARK                         _______ _______ _______ _____ _____    ______ ____
ROOT
ATOM      1  C   UNL     1       6.431  -5.042  26.194  0.00  0.00    +0.000 C 
ATOM      2  C   UNL     1       6.224  -5.406  24.737  0.00  0.00    +0.000 A 
ATOM      3  C   UNL     1       5.207  -4.982  24.342  0.00  0.00    +0.000 A 
ATOM      4  C   UNL     1       4.494  -3.966  23.479  0.00  0.00    +0.000 A 
ATOM      5  C   UNL     1       5.753  -3.427  22.777  0.00  0.00    +0.000 A 
ATOM      6  C   UNL     1       7.004  -3.808  22.626  0.00  0.00    +0.000 A 
ATOM      7  C   UNL     1       7.275  -5.134  23.617  0.00  0.00    +0.000 A 
ATOM      8  C   UNL     1       8.526  -4.787  24.092  0.00  0.00    +0.000 C 
ATOM      9  N   UNL     1       8.729  -4.135  25.262  0.00  0.00    +0.000 N 
ATOM     10  C   UNL     1       8.969  -2.812  25.422  0.00  0.00    +0.000 C 
ATOM     11  O   UNL     1       8.314  -2.020  25.974  0.00  0.00    +0.000 OA
ATOM     12  C   UNL     1       7.889  -4.646  26.219  0.00  0.00    +0.000 C 
ENDROOT
BRANCH  10  13
ATOM     13  C   UNL     1       9.242  -2.220  24.202  0.00  0.00    +0.000 C 
ATOM     14  O   UNL     1      10.231  -2.843  23.799  0.00  0.00    +0.000 OA
ATOM     15  N   UNL     1       9.249  -0.852  24.073  0.00  0.00    +0.000 N 
ATOM     16  C   UNL     1      10.396  -0.083  24.571  0.00  0.00    +0.000 C 
ATOM     17  C   UNL     1      10.309   1.382  24.168  0.00  0.00    +0.000 C 
ATOM     18  N   UNL     1       9.144   1.746  23.537  0.00  0.00    +0.000 NA
ATOM     19  C   UNL     1       8.858   0.984  22.412  0.00  0.00    +0.000 C 
ATOM     20  C   UNL     1       8.960  -0.499  22.632  0.00  0.00    +0.000 C 
BRANCH  18  21
ATOM     21  S   UNL     1       8.573   3.236  23.578  0.00  0.00    +0.000 S 
ATOM     22  O   UNL     1       9.625   4.190  23.774  0.00  0.00    +0.000 OA
ATOM     23  O   UNL     1       7.821   3.483  22.332  0.00  0.00    +0.000 OA
BRANCH  21  24
ATOM     24  C   UNL     1       7.378   3.421  24.903  0.00  0.00    +0.000 A 
ATOM     25  C   UNL     1       6.072   3.203  24.204  0.00  0.00    +0.000 A 
ATOM     26  C   UNL     1       5.201   2.011  24.306  0.00  0.00    +0.000 A 
ATOM     27  C   UNL     1       5.649   1.061  25.390  0.00  0.00    +0.000 A 
ATOM     28 CL   UNL     1       5.786  -0.526  24.546  0.00  0.00    +0.000 Cl
ATOM     29  C   UNL     1       6.737   1.277  26.367  0.00  0.00    +0.000 A 
ATOM     30  C   UNL     1       7.589   2.549  26.066  0.00  0.00    +0.000 A 
ENDBRANCH  21  24
ENDBRANCH  18  21
ENDBRANCH  10  13
BRANCH   1  34
ATOM     31  C   UNL     1       2.683  -4.237  27.641  0.00  0.00    +0.000 A 
ATOM     32  C   UNL     1       3.255  -5.637  27.403  0.00  0.00    +0.000 A 
ATOM     33  C   UNL     1       4.605  -5.980  27.027  0.00  0.00    +0.000 A 
ATOM     34  C   UNL     1       5.557  -4.604  26.973  0.00  0.00    +0.000 A 
ATOM     35  C   UNL     1       5.003  -3.254  26.853  0.00  0.00    +0.000 A 
ATOM     36  C   UNL     1       3.801  -3.313  27.750  0.00  0.00    +0.000 A 
ENDBRANCH   1  34
TORSDOF 4
ENDMDL
MODEL 8
REMARK VINA RESULT:      -7.9      2.077      2.782
REMARK  Name = 
REMARK  4 active torsions:
REMARK  status: ('A' for Active; 'I' for Inactive)
REMARK    1  A    between atoms: C_7  and  C_8
REMARK    2  A    between atoms: C_24  and  C_26
REMARK    3  A    between atoms: N_35  and  S_36
REMARK    4  A    between atoms: S_36  and  C_39
REMARK                            x       y       z     vdW  Elec       q    Type
REMARK                         _______ _______ _______ _____ _____    ______ ____
ROOT
ATOM      1  C   UNL     1       8.345   2.695  22.322  0.00  0.00    +0.000 C 
ATOM      2  C   UNL     1       9.104   2.698  23.634  0.00  0.00    +0.000 A 
ATOM      3  C   UNL     1       8.373   2.840  24.537  0.00  0.00    +0.000 A 
ATOM      4  C   UNL     1       7.678   2.223  25.729  0.00  0.00    +0.000 A 
ATOM      5  C   UNL     1       8.459   0.897  25.712  0.00  0.00    +0.000 A 
ATOM      6  C   UNL     1       9.559   0.439  25.154  0.00  0.00    +0.000 A 
ATOM      7  C   UNL     1      10.109   1.584  24.058  0.00  0.00    +0.000 A 
ATOM      8  C   UNL     1      10.470   0.732  23.031  0.00  0.00    +0.000 C 
ATOM      9  N   UNL     1       9.660   0.430  21.988  0.00  0.00    +0.000 N 
ATOM     10  C   UNL     1       8.913  -0.690  21.841  0.00  0.00    +0.000 C 
ATOM     11  O   UNL     1       7.751  -0.781  21.783  0.00  0.00    +0.000 OA
ATOM     12  C   UNL     1       9.012   1.565  21.571  0.00  0.00    +0.000 C 
ENDROOT
BRANCH  10  13
ATOM     13  C   UNL     1       9.270  -1.637  22.783  0.00  0.00    +0.000 C 
ATOM     14  O   UNL     1      10.339  -2.081  22.348  0.00  0.00    +0.000 OA
ATOM     15  N   UNL     1       8.347  -2.537  23.257  0.00  0.00    +0.000 N 
ATOM     16  C   UNL     1       7.958  -3.683  22.424  0.00  0.00    +0.000 C 
ATOM     17  C   UNL     1       7.080  -4.663  23.190  0.00  0.00    +0.000 C 
ATOM     18  N   UNL     1       6.710  -4.254  24.448  0.00  0.00    +0.000 NA
ATOM     19  C   UNL     1       7.783  -3.925  25.266  0.00  0.00    +0.000 C 
ATOM     20  C   UNL     1       8.782  -3.003  24.627  0.00  0.00    +0.000 C 
BRANCH  18  21
ATOM     21  S   UNL     1       5.375  -4.765  25.160  0.00  0.00    +0.000 S 
ATOM     22  O   UNL     1       5.280  -6.194  25.122  0.00  0.00    +0.000 OA
ATOM     23  O   UNL     1       5.351  -4.241  26.539  0.00  0.00    +0.000 OA
BRANCH  21  24
ATOM     24  C   UNL     1       3.925  -4.074  24.360  0.00  0.00    +0.000 A 
ATOM     25  C   UNL     1       3.678  -5.033  23.238  0.00  0.00    +0.000 A 
ATOM     26  C   UNL     1       2.591  -6.033  23.149  0.00  0.00    +0.000 A 
ATOM     27  C   UNL     1       1.565  -5.867  24.244  0.00  0.00    +0.000 A 
ATOM     28 CL   UNL     1       1.460  -7.504  24.992  0.00  0.00    +0.000 Cl
ATOM     29  C   UNL     1       1.504  -4.782  25.248  0.00  0.00    +0.000 A 
ATOM     30  C   UNL     1       2.765  -3.863  25.235  0.00  0.00    +0.000 A 
ENDBRANCH  21  24
ENDBRANCH  18  21
ENDBRANCH  10  13
BRANCH   1  34
ATOM     31  C   UNL     1       4.834   4.666  23.078  0.00  0.00    +0.000 A 
ATOM     32  C   UNL     1       6.181   5.338  22.802  0.00  0.00    +0.000 A 
ATOM     33  C   UNL     1       7.412   4.702  22.398  0.00  0.00    +0.000 A 
ATOM     34  C   UNL     1       7.163   3.065  22.155  0.00  0.00    +0.000 A 
ATOM     35  C   UNL     1       6.025   2.338  22.722  0.00  0.00    +0.000 A 
ATOM     36  C   UNL     1       4.897   3.312  22.551  0.00  0.00    +0.000 A 
ENDBRANCH   1  34
TORSDOF 4
ENDMDL
MODEL 9
REMARK VINA RESULT:      -7.7      2.076      3.318
REMARK  Name = 
REMARK  4 active torsions:
REMARK  status: ('A' for Active; 'I' for Inactive)
REMARK    1  A    between atoms: C_7  and  C_8
REMARK    2  A    between atoms: C_24  and  C_26
REMARK    3  A    between atoms: N_35  and  S_36
REMARK    4  A    between atoms: S_36  and  C_39
REMARK                            x       y       z     vdW  Elec       q    Type
REMARK                         _______ _______ _______ _____ _____    ______ ____
ROOT
ATOM      1  C   UNL     1       6.547   2.874  22.173  0.00  0.00    +0.000 C 
ATOM      2  C   UNL     1       7.945   3.201  22.659  0.00  0.00    +0.000 A 
ATOM      3  C   UNL     1       7.950   3.393  23.814  0.00  0.00    +0.000 A 
ATOM      4  C   UNL     1       8.326   2.898  25.191  0.00  0.00    +0.000 A 
ATOM      5  C   UNL     1       9.175   1.705  24.717  0.00  0.00    +0.000 A 
ATOM      6  C   UNL     1       9.731   1.313  23.590  0.00  0.00    +0.000 A 
ATOM      7  C   UNL     1       9.196   2.319  22.359  0.00  0.00    +0.000 A 
ATOM      8  C   UNL     1       8.989   1.363  21.383  0.00  0.00    +0.000 C 
ATOM      9  N   UNL     1       7.788   0.783  21.145  0.00  0.00    +0.000 N 
ATOM     10  C   UNL     1       7.378  -0.436  21.570  0.00  0.00    +0.000 C 
ATOM     11  O   UNL     1       6.501  -0.691  22.296  0.00  0.00    +0.000 OA
ATOM     12  C   UNL     1       6.801   1.733  21.214  0.00  0.00    +0.000 C 
ENDROOT
BRANCH  10  13
ATOM     13  C   UNL     1       8.445  -1.154  22.080  0.00  0.00    +0.000 C 
ATOM     14  O   UNL     1       9.122  -1.407  21.077  0.00  0.00    +0.000 OA
ATOM     15  N   UNL     1       8.240  -2.164  22.988  0.00  0.00    +0.000 N 
ATOM     16  C   UNL     1       7.739  -3.464  22.524  0.00  0.00    +0.000 C 
ATOM     17  C   UNL     1       7.759  -4.505  23.635  0.00  0.00    +0.000 C 
ATOM     18  N   UNL     1       8.113  -4.028  24.874  0.00  0.00    +0.000 NA
ATOM     19  C   UNL     1       9.337  -3.372  24.891  0.00  0.00    +0.000 C 
ATOM     20  C   UNL     1       9.497  -2.344  23.807  0.00  0.00    +0.000 C 
BRANCH  18  21
ATOM     21  S   UNL     1       7.634  -4.721  26.230  0.00  0.00    +0.000 S 
ATOM     22  O   UNL     1       7.258  -6.086  26.012  0.00  0.00    +0.000 OA
ATOM     23  O   UNL     1       8.713  -4.592  27.228  0.00  0.00    +0.000 OA
BRANCH  21  24
ATOM     24  C   UNL     1       6.231  -3.846  26.928  0.00  0.00    +0.000 A 
ATOM     25  C   UNL     1       6.071  -2.684  25.998  0.00  0.00    +0.000 A 
ATOM     26  C   UNL     1       5.004  -2.496  24.989  0.00  0.00    +0.000 A 
ATOM     27  C   UNL     1       3.907  -3.525  25.113  0.00  0.00    +0.000 A 
ATOM     28 CL   UNL     1       3.774  -4.219  23.454  0.00  0.00    +0.000 Cl
ATOM     29  C   UNL     1       3.766  -4.552  26.167  0.00  0.00    +0.000 A 
ATOM     30  C   UNL     1       5.013  -4.648  27.101  0.00  0.00    +0.000 A 
ENDBRANCH  21  24
ENDBRANCH  18  21
ENDBRANCH  10  13
BRANCH   1  34
ATOM     31  C   UNL     1       4.025   4.417  25.010  0.00  0.00    +0.000 A 
ATOM     32  C   UNL     1       4.723   5.227  23.915  0.00  0.00    +0.000 A 
ATOM     33  C   UNL     1       5.507   4.722  22.815  0.00  0.00    +0.000 A 
ATOM     34  C   UNL     1       5.487   3.048  22.812  0.00  0.00    +0.000 A 
ATOM     35  C   UNL     1       5.141   2.252  23.991  0.00  0.00    +0.000 A 
ATOM     36  C   UNL     1       4.000   3.026  24.585  0.00  0.00    +0.000 A 
ENDBRANCH   1  34
TORSDOF 4
ENDMDL
