MODEL 1
REMARK VINA RESULT:      -8.7      0.000      0.000
REMARK  Name = 
REMARK  4 active torsions:
REMARK  status: ('A' for Active; 'I' for Inactive)
REMARK    1  A    between atoms: C_7  and  S_8
REMARK    2  A    between atoms: S_8  and  N_11
REMARK    3  A    between atoms: N_18  and  C_19
REMARK    4  A    between atoms: C_35  and  C_37
REMARK                            x       y       z     vdW  Elec       q    Type
REMARK                         _______ _______ _______ _____ _____    ______ ____
ROOT
ATOM      1  N   UNL     1       8.379  -3.430  24.179  0.00  0.00    +0.000 NA
ATOM      2  C   UNL     1       7.760  -2.847  23.033  0.00  0.00    +0.000 C 
ATOM      3  C   UNL     1       7.666  -1.317  23.288  0.00  0.00    +0.000 C 
ATOM      4  N   UNL     1       9.069  -0.728  23.297  0.00  0.00    +0.000 N 
ATOM      5  C   UNL     1       9.848  -1.456  24.284  0.00  0.00    +0.000 C 
ATOM      6  C   UNL     1       9.716  -2.971  24.239  0.00  0.00    +0.000 C 
ENDROOT
BRANCH   4   7
ATOM      7  C   UNL     1       9.499   0.207  22.412  0.00  0.00    +0.000 C 
ATOM      8  C   UNL     1       9.011   1.246  23.121  0.00  0.00    +0.000 A 
ATOM      9  C   UNL     1      10.076   2.339  23.254  0.00  0.00    +0.000 A 
ATOM     10  C   UNL     1       9.838   3.721  23.654  0.00  0.00    +0.000 A 
ATOM     11  C   UNL     1       8.323   3.879  23.628  0.00  0.00    +0.000 A 
ATOM     12  C   UNL     1       7.232   3.058  23.355  0.00  0.00    +0.000 A 
ATOM     13  C   UNL     1       7.770   1.923  22.522  0.00  0.00    +0.000 A 
ATOM     14  C   UNL     1       7.396   1.996  21.035  0.00  0.00    +0.000 C 
ATOM     15  N   UNL     1       7.854   0.885  20.531  0.00  0.00    +0.000 N 
ATOM     16  C   UNL     1       7.228  -0.008  19.605  0.00  0.00    +0.000 C 
ATOM     17  O   UNL     1       7.800   0.058  18.492  0.00  0.00    +0.000 OA
ATOM     18  C   UNL     1       8.835   0.195  21.056  0.00  0.00    +0.000 C 
BRANCH  16  19
ATOM     19  C   UNL     1       5.782   0.277  19.554  0.00  0.00    +0.000 C 
ATOM     20 CL   UNL     1       5.233   1.427  18.394  0.00  0.00    +0.000 Cl
ENDBRANCH  16  19
ENDBRANCH   4   7
BRANCH   1  21
ATOM     21  S   UNL     1       8.165  -5.004  24.268  0.00  0.00    +0.000 S 
ATOM     22  O   UNL     1       9.387  -5.720  24.518  0.00  0.00    +0.000 OA
ATOM     23  O   UNL     1       7.499  -5.458  23.024  0.00  0.00    +0.000 OA
BRANCH  21  27
ATOM     24  C   UNL     1       4.701  -4.211  26.905  0.00  0.00    +0.000 A 
ATOM     25  C   UNL     1       4.644  -4.817  25.514  0.00  0.00    +0.000 A 
ATOM     26  C   UNL     1       5.697  -5.553  24.787  0.00  0.00    +0.000 A 
ATOM     27  C   UNL     1       7.016  -5.508  25.593  0.00  0.00    +0.000 A 
ATOM     28  C   UNL     1       7.293  -4.920  26.863  0.00  0.00    +0.000 A 
ATOM     29  F   UNL     1       7.441  -5.842  27.875  0.00  0.00    +0.000 F 
ATOM     30  C   UNL     1       6.060  -4.116  27.445  0.00  0.00    +0.000 A 
ENDBRANCH  21  27
ENDBRANCH   1  21
TORSDOF 4
ENDMDL
MODEL 2
REMARK VINA RESULT:      -8.5      1.735      2.171
REMARK  Name = 
REMARK  4 active torsions:
REMARK  status: ('A' for Active; 'I' for Inactive)
REMARK    1  A    between atoms: C_7  and  S_8
REMARK    2  A    between atoms: S_8  and  N_11
REMARK    3  A    between atoms: N_18  and  C_19
REMARK    4  A    between atoms: C_35  and  C_37
REMARK                            x       y       z     vdW  Elec       q    Type
REMARK                         _______ _______ _______ _____ _____    ______ ____
ROOT
ATOM      1  N   UNL     1       6.265  -4.243  23.402  0.00  0.00    +0.000 NA
ATOM      2  C   UNL     1       6.071  -3.216  22.429  0.00  0.00    +0.000 C 
ATOM      3  C   UNL     1       6.712  -1.918  22.994  0.00  0.00    +0.000 C 
ATOM      4  N   UNL     1       8.223  -2.097  23.053  0.00  0.00    +0.000 N 
ATOM      5  C   UNL     1       8.496  -3.291  23.834  0.00  0.00    +0.000 C 
ATOM      6  C   UNL     1       7.652  -4.510  23.488  0.00  0.00    +0.000 C 
ENDROOT
BRANCH   4   7
ATOM      7  C   UNL     1       9.099  -1.331  22.357  0.00  0.00    +0.000 C 
ATOM      8  C   UNL     1       9.075  -0.317  23.247  0.00  0.00    +0.000 A 
ATOM      9  C   UNL     1      10.504   0.127  23.579  0.00  0.00    +0.000 A 
ATOM     10  C   UNL     1      10.882   1.376  24.229  0.00  0.00    +0.000 A 
ATOM     11  C   UNL     1       9.609   2.213  24.236  0.00  0.00    +0.000 A 
ATOM     12  C   UNL     1       8.291   2.041  23.818  0.00  0.00    +0.000 A 
ATOM     13  C   UNL     1       8.327   0.942  22.788  0.00  0.00    +0.000 A 
ATOM     14  C   UNL     1       8.151   1.424  21.341  0.00  0.00    +0.000 C 
ATOM     15  N   UNL     1       8.099   0.329  20.638  0.00  0.00    +0.000 N 
ATOM     16  C   UNL     1       7.218  -0.011  19.564  0.00  0.00    +0.000 C 
ATOM     17  O   UNL     1       7.848  -0.031  18.481  0.00  0.00    +0.000 OA
ATOM     18  C   UNL     1       8.617  -0.811  21.023  0.00  0.00    +0.000 C 
BRANCH  16  19
ATOM     19  C   UNL     1       6.065   0.909  19.570  0.00  0.00    +0.000 C 
ATOM     20 CL   UNL     1       5.485   1.476  18.050  0.00  0.00    +0.000 Cl
ENDBRANCH  16  19
ENDBRANCH   4   7
BRANCH   1  21
ATOM     21  S   UNL     1       5.314  -5.498  23.181  0.00  0.00    +0.000 S 
ATOM     22  O   UNL     1       5.894  -6.493  22.321  0.00  0.00    +0.000 OA
ATOM     23  O   UNL     1       4.010  -5.013  22.670  0.00  0.00    +0.000 OA
BRANCH  21  27
ATOM     24  C   UNL     1       2.599  -6.222  26.599  0.00  0.00    +0.000 A 
ATOM     25  C   UNL     1       2.530  -6.903  25.244  0.00  0.00    +0.000 A 
ATOM     26  C   UNL     1       3.612  -7.109  24.261  0.00  0.00    +0.000 A 
ATOM     27  C   UNL     1       4.887  -6.368  24.726  0.00  0.00    +0.000 A 
ATOM     28  C   UNL     1       5.124  -5.609  25.911  0.00  0.00    +0.000 A 
ATOM     29  F   UNL     1       5.924  -6.254  26.826  0.00  0.00    +0.000 F 
ATOM     30  C   UNL     1       3.824  -5.443  26.798  0.00  0.00    +0.000 A 
ENDBRANCH  21  27
ENDBRANCH   1  21
TORSDOF 4
ENDMDL
MODEL 3
REMARK VINA RESULT:      -8.5      3.862      8.109
REMARK  Name = 
REMARK  4 active torsions:
REMARK  status: ('A' for Active; 'I' for Inactive)
REMARK    1  A    between atoms: C_7  and  S_8
REMARK    2  A    between atoms: S_8  and  N_11
REMARK    3  A    between atoms: N_18  and  C_19
REMARK    4  A    between atoms: C_35  and  C_37
REMARK                            x       y       z     vdW  Elec       q    Type
REMARK                         _______ _______ _______ _____ _____    ______ ____
ROOT
ATOM      1  N   UNL     1       8.116  -0.609  22.484  0.00  0.00    +0.000 NA
ATOM      2  C   UNL     1       8.971  -1.658  22.031  0.00  0.00    +0.000 C 
ATOM      3  C   UNL     1       9.506  -2.394  23.290  0.00  0.00    +0.000 C 
ATOM      4  N   UNL     1       8.352  -3.118  23.970  0.00  0.00    +0.000 N 
ATOM      5  C   UNL     1       7.314  -2.138  24.242  0.00  0.00    +0.000 C 
ATOM      6  C   UNL     1       6.982  -1.197  23.092  0.00  0.00    +0.000 C 
ENDROOT
BRANCH   4   7
ATOM      7  C   UNL     1       8.297  -4.464  24.131  0.00  0.00    +0.000 C 
ATOM      8  C   UNL     1       7.234  -4.618  23.314  0.00  0.00    +0.000 A 
ATOM      9  C   UNL     1       7.493  -5.758  22.323  0.00  0.00    +0.000 A 
ATOM     10  C   UNL     1       6.485  -6.434  21.515  0.00  0.00    +0.000 A 
ATOM     11  C   UNL     1       5.151  -5.957  22.076  0.00  0.00    +0.000 A 
ATOM     12  C   UNL     1       4.738  -5.081  23.078  0.00  0.00    +0.000 A 
ATOM     13  C   UNL     1       5.910  -4.949  24.016  0.00  0.00    +0.000 A 
ATOM     14  C   UNL     1       5.742  -5.691  25.349  0.00  0.00    +0.000 C 
ATOM     15  N   UNL     1       6.794  -5.358  26.041  0.00  0.00    +0.000 N 
ATOM     16  C   UNL     1       6.884  -4.986  27.419  0.00  0.00    +0.000 C 
ATOM     17  O   UNL     1       7.455  -5.891  28.072  0.00  0.00    +0.000 OA
ATOM     18  C   UNL     1       7.921  -4.956  25.508  0.00  0.00    +0.000 C 
BRANCH  16  19
ATOM     19  C   UNL     1       5.541  -4.641  27.920  0.00  0.00    +0.000 C 
ATOM     20 CL   UNL     1       5.181  -5.008  29.565  0.00  0.00    +0.000 Cl
ENDBRANCH  16  19
ENDBRANCH   4   7
BRANCH   1  21
ATOM     21  S   UNL     1       7.833   0.489  21.368  0.00  0.00    +0.000 S 
ATOM     22  O   UNL     1       6.430   0.707  21.143  0.00  0.00    +0.000 OA
ATOM     23  O   UNL     1       8.541   0.091  20.129  0.00  0.00    +0.000 OA
BRANCH  21  27
ATOM     24  C   UNL     1       9.723   3.312  24.204  0.00  0.00    +0.000 A 
ATOM     25  C   UNL     1      10.450   2.322  23.313  0.00  0.00    +0.000 A 
ATOM     26  C   UNL     1       9.997   1.724  22.041  0.00  0.00    +0.000 A 
ATOM     27  C   UNL     1       8.530   2.127  21.768  0.00  0.00    +0.000 A 
ATOM     28  C   UNL     1       7.657   2.968  22.520  0.00  0.00    +0.000 A 
ATOM     29  F   UNL     1       7.443   4.198  21.940  0.00  0.00    +0.000 F 
ATOM     30  C   UNL     1       8.299   3.450  23.883  0.00  0.00    +0.000 A 
ENDBRANCH  21  27
ENDBRANCH   1  21
TORSDOF 4
ENDMDL
MODEL 4
REMARK VINA RESULT:      -8.4      1.829      2.438
REMARK  Name = 
REMARK  4 active torsions:
REMARK  status: ('A' for Active; 'I' for Inactive)
REMARK    1  A    between atoms: C_7  and  S_8
REMARK    2  A    between atoms: S_8  and  N_11
REMARK    3  A    between atoms: N_18  and  C_19
REMARK    4  A    between atoms: C_35  and  C_37
REMARK                            x       y       z     vdW  Elec       q    Type
REMARK                         _______ _______ _______ _____ _____    ______ ____
ROOT
ATOM      1  N   UNL     1       7.591  -3.304  24.968  0.00  0.00    +0.000 NA
ATOM      2  C   UNL     1       8.782  -2.551  25.195  0.00  0.00    +0.000 C 
ATOM      3  C   UNL     1       9.687  -2.730  23.944  0.00  0.00    +0.000 C 
ATOM      4  N   UNL     1       9.031  -2.044  22.754  0.00  0.00    +0.000 N 
ATOM      5  C   UNL     1       7.692  -2.591  22.612  0.00  0.00    +0.000 C 
ATOM      6  C   UNL     1       6.887  -2.702  23.899  0.00  0.00    +0.000 C 
ENDROOT
BRANCH   4   7
ATOM      7  C   UNL     1       9.590  -1.008  22.080  0.00  0.00    +0.000 C 
ATOM      8  C   UNL     1       9.319  -0.104  23.044  0.00  0.00    +0.000 A 
ATOM      9  C   UNL     1      10.566   0.734  23.347  0.00  0.00    +0.000 A 
ATOM     10  C   UNL     1      10.592   1.998  24.072  0.00  0.00    +0.000 A 
ATOM     11  C   UNL     1       9.130   2.406  24.197  0.00  0.00    +0.000 A 
ATOM     12  C   UNL     1       7.901   1.866  23.825  0.00  0.00    +0.000 A 
ATOM     13  C   UNL     1       8.200   0.893  22.714  0.00  0.00    +0.000 A 
ATOM     14  C   UNL     1       7.794   1.382  21.317  0.00  0.00    +0.000 C 
ATOM     15  N   UNL     1       8.030   0.366  20.536  0.00  0.00    +0.000 N 
ATOM     16  C   UNL     1       7.224  -0.162  19.478  0.00  0.00    +0.000 C 
ATOM     17  O   UNL     1       7.761   0.075  18.371  0.00  0.00    +0.000 OA
ATOM     18  C   UNL     1       8.889  -0.582  20.812  0.00  0.00    +0.000 C 
BRANCH  16  19
ATOM     19  C   UNL     1       5.851   0.361  19.603  0.00  0.00    +0.000 C 
ATOM     20 CL   UNL     1       5.318   1.500  18.425  0.00  0.00    +0.000 Cl
ENDBRANCH  16  19
ENDBRANCH   4   7
BRANCH   1  21
ATOM     21  S   UNL     1       6.764  -3.576  26.298  0.00  0.00    +0.000 S 
ATOM     22  O   UNL     1       6.296  -2.367  26.920  0.00  0.00    +0.000 OA
ATOM     23  O   UNL     1       7.602  -4.385  27.215  0.00  0.00    +0.000 OA
BRANCH  21  27
ATOM     24  C   UNL     1       3.790  -5.478  23.631  0.00  0.00    +0.000 A 
ATOM     25  C   UNL     1       5.119  -6.075  24.055  0.00  0.00    +0.000 A 
ATOM     26  C   UNL     1       5.916  -5.782  25.263  0.00  0.00    +0.000 A 
ATOM     27  C   UNL     1       5.280  -4.603  26.035  0.00  0.00    +0.000 A 
ATOM     28  C   UNL     1       4.094  -3.860  25.755  0.00  0.00    +0.000 A 
ATOM     29  F   UNL     1       3.048  -4.155  26.599  0.00  0.00    +0.000 F 
ATOM     30  C   UNL     1       3.425  -4.274  24.383  0.00  0.00    +0.000 A 
ENDBRANCH  21  27
ENDBRANCH   1  21
TORSDOF 4
ENDMDL
MODEL 5
REMARK VINA RESULT:      -8.4      3.470      7.883
REMARK  Name = 
REMARK  4 active torsions:
REMARK  status: ('A' for Active; 'I' for Inactive)
REMARK    1  A    between atoms: C_7  and  S_8
REMARK    2  A    between atoms: S_8  and  N_11
REMARK    3  A    between atoms: N_18  and  C_19
REMARK    4  A    between atoms: C_35  and  C_37
REMARK                            x       y       z     vdW  Elec       q    Type
REMARK                         _______ _______ _______ _____ _____    ______ ____
ROOT
ATOM      1  N   UNL     1       8.694  -0.644  23.475  0.00  0.00    +0.000 NA
ATOM      2  C   UNL     1       9.268  -1.733  22.753  0.00  0.00    +0.000 C 
ATOM      3  C   UNL     1       9.878  -2.709  23.797  0.00  0.00    +0.000 C 
ATOM      4  N   UNL     1       8.752  -3.344  24.601  0.00  0.00    +0.000 N 
ATOM      5  C   UNL     1       7.957  -2.270  25.173  0.00  0.00    +0.000 C 
ATOM      6  C   UNL     1       7.598  -1.139  24.220  0.00  0.00    +0.000 C 
ENDROOT
BRANCH   4   7
ATOM      7  C   UNL     1       8.498  -4.676  24.618  0.00  0.00    +0.000 C 
ATOM      8  C   UNL     1       7.507  -4.600  23.706  0.00  0.00    +0.000 A 
ATOM      9  C   UNL     1       7.700  -5.673  22.628  0.00  0.00    +0.000 A 
ATOM     10  C   UNL     1       6.691  -6.120  21.676  0.00  0.00    +0.000 A 
ATOM     11  C   UNL     1       5.388  -5.505  22.171  0.00  0.00    +0.000 A 
ATOM     12  C   UNL     1       5.005  -4.671  23.219  0.00  0.00    +0.000 A 
ATOM     13  C   UNL     1       6.088  -4.795  24.259  0.00  0.00    +0.000 A 
ATOM     14  C   UNL     1       5.693  -5.621  25.491  0.00  0.00    +0.000 C 
ATOM     15  N   UNL     1       6.710  -5.508  26.297  0.00  0.00    +0.000 N 
ATOM     16  C   UNL     1       6.718  -5.278  27.709  0.00  0.00    +0.000 C 
ATOM     17  O   UNL     1       7.093  -6.311  28.311  0.00  0.00    +0.000 OA
ATOM     18  C   UNL     1       7.927  -5.229  25.903  0.00  0.00    +0.000 C 
BRANCH  16  19
ATOM     19  C   UNL     1       5.393  -4.787  28.131  0.00  0.00    +0.000 C 
ATOM     20 CL   UNL     1       4.999  -3.146  27.782  0.00  0.00    +0.000 Cl
ENDBRANCH  16  19
ENDBRANCH   4   7
BRANCH   1  21
ATOM     21  S   UNL     1       8.415   0.629  22.564  0.00  0.00    +0.000 S 
ATOM     22  O   UNL     1       7.435   0.379  21.542  0.00  0.00    +0.000 OA
ATOM     23  O   UNL     1       9.704   1.092  21.997  0.00  0.00    +0.000 OA
BRANCH  21  27
ATOM     24  C   UNL     1       8.275   4.987  23.315  0.00  0.00    +0.000 A 
ATOM     25  C   UNL     1       7.396   4.220  22.344  0.00  0.00    +0.000 A 
ATOM     26  C   UNL     1       7.021   2.792  22.373  0.00  0.00    +0.000 A 
ATOM     27  C   UNL     1       7.800   2.071  23.497  0.00  0.00    +0.000 A 
ATOM     28  C   UNL     1       8.727   2.592  24.448  0.00  0.00    +0.000 A 
ATOM     29  F   UNL     1       8.215   2.683  25.722  0.00  0.00    +0.000 F 
ATOM     30  C   UNL     1       9.052   4.122  24.207  0.00  0.00    +0.000 A 
ENDBRANCH  21  27
ENDBRANCH   1  21
TORSDOF 4
ENDMDL
MODEL 6
REMARK VINA RESULT:      -8.1      1.976      2.450
REMARK  Name = 
REMARK  4 active torsions:
REMARK  status: ('A' for Active; 'I' for Inactive)
REMARK    1  A    between atoms: C_7  and  S_8
REMARK    2  A    between atoms: S_8  and  N_11
REMARK    3  A    between atoms: N_18  and  C_19
REMARK    4  A    between atoms: C_35  and  C_37
REMARK                            x       y       z     vdW  Elec       q    Type
REMARK                         _______ _______ _______ _____ _____    ______ ____
ROOT
ATOM      1  N   UNL     1       8.896  -2.253  24.397  0.00  0.00    +0.000 NA
ATOM      2  C   UNL     1       7.896  -1.238  24.322  0.00  0.00    +0.000 C 
ATOM      3  C   UNL     1       8.621   0.133  24.412  0.00  0.00    +0.000 C 
ATOM      4  N   UNL     1       9.456   0.336  23.156  0.00  0.00    +0.000 N 
ATOM      5  C   UNL     1      10.344  -0.807  23.025  0.00  0.00    +0.000 C 
ATOM      6  C   UNL     1       9.696  -2.169  23.234  0.00  0.00    +0.000 C 
ENDROOT
BRANCH   4   7
ATOM      7  C   UNL     1       9.257   1.348  22.274  0.00  0.00    +0.000 C 
ATOM      8  C   UNL     1       8.314   1.951  23.027  0.00  0.00    +0.000 A 
ATOM      9  C   UNL     1       8.608   3.451  23.138  0.00  0.00    +0.000 A 
ATOM     10  C   UNL     1       7.670   4.476  23.580  0.00  0.00    +0.000 A 
ATOM     11  C   UNL     1       6.319   3.775  23.625  0.00  0.00    +0.000 A 
ATOM     12  C   UNL     1       5.846   2.487  23.383  0.00  0.00    +0.000 A 
ATOM     13  C   UNL     1       6.877   1.831  22.501  0.00  0.00    +0.000 A 
ATOM     14  C   UNL     1       6.451   1.677  21.034  0.00  0.00    +0.000 C 
ATOM     15  N   UNL     1       7.418   0.999  20.484  0.00  0.00    +0.000 N 
ATOM     16  C   UNL     1       7.341  -0.096  19.567  0.00  0.00    +0.000 C 
ATOM     17  O   UNL     1       7.726   0.267  18.431  0.00  0.00    +0.000 OA
ATOM     18  C   UNL     1       8.641   0.966  20.949  0.00  0.00    +0.000 C 
BRANCH  16  19
ATOM     19  C   UNL     1       5.976  -0.654  19.587  0.00  0.00    +0.000 C 
ATOM     20 CL   UNL     1       5.720  -2.111  20.470  0.00  0.00    +0.000 Cl
ENDBRANCH  16  19
ENDBRANCH   4   7
BRANCH   1  21
ATOM     21  S   UNL     1       8.303  -3.687  24.748  0.00  0.00    +0.000 S 
ATOM     22  O   UNL     1       7.844  -3.783  26.108  0.00  0.00    +0.000 OA
ATOM     23  O   UNL     1       9.329  -4.708  24.434  0.00  0.00    +0.000 OA
BRANCH  21  27
ATOM     24  C   UNL     1       5.025  -6.466  23.695  0.00  0.00    +0.000 A 
ATOM     25  C   UNL     1       4.947  -5.337  24.707  0.00  0.00    +0.000 A 
ATOM     26  C   UNL     1       5.756  -4.104  24.773  0.00  0.00    +0.000 A 
ATOM     27  C   UNL     1       6.878  -4.158  23.711  0.00  0.00    +0.000 A 
ATOM     28  C   UNL     1       7.168  -5.159  22.736  0.00  0.00    +0.000 A 
ATOM     29  F   UNL     1       6.834  -4.791  21.453  0.00  0.00    +0.000 F 
ATOM     30  C   UNL     1       6.238  -6.432  22.874  0.00  0.00    +0.000 A 
ENDBRANCH  21  27
ENDBRANCH   1  21
TORSDOF 4
ENDMDL
MODEL 7
REMARK VINA RESULT:      -8.0      3.814      7.770
REMARK  Name = 
REMARK  4 active torsions:
REMARK  status: ('A' for Active; 'I' for Inactive)
REMARK    1  A    between atoms: C_7  and  S_8
REMARK    2  A    between atoms: S_8  and  N_11
REMARK    3  A    between atoms: N_18  and  C_19
REMARK    4  A    between atoms: C_35  and  C_37
REMARK                            x       y       z     vdW  Elec       q    Type
REMARK                         _______ _______ _______ _____ _____    ______ ____
ROOT
ATOM      1  N   UNL     1       8.303  -0.679  24.707  0.00  0.00    +0.000 NA
ATOM      2  C   UNL     1       8.200  -1.583  23.607  0.00  0.00    +0.000 C 
ATOM      3  C   UNL     1       9.208  -2.738  23.862  0.00  0.00    +0.000 C 
ATOM      4  N   UNL     1       8.738  -3.551  25.060  0.00  0.00    +0.000 N 
ATOM      5  C   UNL     1       8.574  -2.637  26.178  0.00  0.00    +0.000 C 
ATOM      6  C   UNL     1       7.836  -1.343  25.866  0.00  0.00    +0.000 C 
ENDROOT
BRANCH   4   7
ATOM      7  C   UNL     1       8.404  -4.864  24.994  0.00  0.00    +0.000 C 
ATOM      8  C   UNL     1       7.480  -4.683  24.028  0.00  0.00    +0.000 A 
ATOM      9  C   UNL     1       7.678  -5.714  22.911  0.00  0.00    +0.000 A 
ATOM     10  C   UNL     1       6.708  -6.052  21.877  0.00  0.00    +0.000 A 
ATOM     11  C   UNL     1       5.415  -5.380  22.322  0.00  0.00    +0.000 A 
ATOM     12  C   UNL     1       5.015  -4.574  23.385  0.00  0.00    +0.000 A 
ATOM     13  C   UNL     1       6.020  -4.814  24.482  0.00  0.00    +0.000 A 
ATOM     14  C   UNL     1       5.497  -5.670  25.644  0.00  0.00    +0.000 C 
ATOM     15  N   UNL     1       6.465  -5.659  26.516  0.00  0.00    +0.000 N 
ATOM     16  C   UNL     1       6.395  -5.496  27.935  0.00  0.00    +0.000 C 
ATOM     17  O   UNL     1       6.669  -6.578  28.506  0.00  0.00    +0.000 OA
ATOM     18  C   UNL     1       7.719  -5.439  26.212  0.00  0.00    +0.000 C 
BRANCH  16  19
ATOM     19  C   UNL     1       5.078  -4.943  28.299  0.00  0.00    +0.000 C 
ATOM     20 CL   UNL     1       4.824  -3.255  28.061  0.00  0.00    +0.000 Cl
ENDBRANCH  16  19
ENDBRANCH   4   7
BRANCH   1  21
ATOM     21  S   UNL     1       7.669   0.747  24.402  0.00  0.00    +0.000 S 
ATOM     22  O   UNL     1       8.074   1.751  25.348  0.00  0.00    +0.000 OA
ATOM     23  O   UNL     1       6.195   0.602  24.342  0.00  0.00    +0.000 OA
BRANCH  21  27
ATOM     24  C   UNL     1       7.765   0.422  19.990  0.00  0.00    +0.000 A 
ATOM     25  C   UNL     1       6.638   1.013  20.817  0.00  0.00    +0.000 A 
ATOM     26  C   UNL     1       6.701   1.604  22.169  0.00  0.00    +0.000 A 
ATOM     27  C   UNL     1       8.115   1.405  22.761  0.00  0.00    +0.000 A 
ATOM     28  C   UNL     1       9.273   0.804  22.183  0.00  0.00    +0.000 A 
ATOM     29  F   UNL     1      10.238   1.712  21.814  0.00  0.00    +0.000 F 
ATOM     30  C   UNL     1       8.984   0.166  20.763  0.00  0.00    +0.000 A 
ENDBRANCH  21  27
ENDBRANCH   1  21
TORSDOF 4
ENDMDL
MODEL 8
REMARK VINA RESULT:      -7.9      3.017      3.920
REMARK  Name = 
REMARK  4 active torsions:
REMARK  status: ('A' for Active; 'I' for Inactive)
REMARK    1  A    between atoms: C_7  and  S_8
REMARK    2  A    between atoms: S_8  and  N_11
REMARK    3  A    between atoms: N_18  and  C_19
REMARK    4  A    between atoms: C_35  and  C_37
REMARK                            x       y       z     vdW  Elec       q    Type
REMARK                         _______ _______ _______ _____ _____    ______ ____
ROOT
ATOM      1  N   UNL     1       7.389  -3.509  22.136  0.00  0.00    +0.000 NA
ATOM      2  C   UNL     1       8.211  -2.708  22.985  0.00  0.00    +0.000 C 
ATOM      3  C   UNL     1       8.753  -1.532  22.126  0.00  0.00    +0.000 C 
ATOM      4  N   UNL     1       7.597  -0.616  21.751  0.00  0.00    +0.000 N 
ATOM      5  C   UNL     1       6.587  -1.426  21.091  0.00  0.00    +0.000 C 
ATOM      6  C   UNL     1       6.254  -2.746  21.774  0.00  0.00    +0.000 C 
ENDROOT
BRANCH   4   7
ATOM      7  C   UNL     1       7.515   0.685  22.126  0.00  0.00    +0.000 C 
ATOM      8  C   UNL     1       8.764   0.721  22.634  0.00  0.00    +0.000 A 
ATOM      9  C   UNL     1       9.506   1.961  22.123  0.00  0.00    +0.000 A 
ATOM     10  C   UNL     1      10.730   2.518  22.686  0.00  0.00    +0.000 A 
ATOM     11  C   UNL     1      10.923   1.781  24.005  0.00  0.00    +0.000 A 
ATOM     12  C   UNL     1      10.259   0.773  24.700  0.00  0.00    +0.000 A 
ATOM     13  C   UNL     1       8.849   0.768  24.166  0.00  0.00    +0.000 A 
ATOM     14  C   UNL     1       7.807   1.366  25.122  0.00  0.00    +0.000 C 
ATOM     15  N   UNL     1       6.666   1.163  24.526  0.00  0.00    +0.000 N 
ATOM     16  C   UNL     1       5.430   0.706  25.082  0.00  0.00    +0.000 C 
ATOM     17  O   UNL     1       4.596   1.641  25.100  0.00  0.00    +0.000 OA
ATOM     18  C   UNL     1       6.537   0.999  23.234  0.00  0.00    +0.000 C 
BRANCH  16  19
ATOM     19  C   UNL     1       5.683   0.103  26.403  0.00  0.00    +0.000 C 
ATOM     20 CL   UNL     1       6.250  -1.524  26.445  0.00  0.00    +0.000 Cl
ENDBRANCH  16  19
ENDBRANCH   4   7
BRANCH   1  21
ATOM     21  S   UNL     1       7.109  -4.959  22.727  0.00  0.00    +0.000 S 
ATOM     22  O   UNL     1       8.180  -5.436  23.561  0.00  0.00    +0.000 OA
ATOM     23  O   UNL     1       6.829  -5.879  21.600  0.00  0.00    +0.000 OA
BRANCH  21  27
ATOM     24  C   UNL     1       4.568  -7.011  25.712  0.00  0.00    +0.000 A 
ATOM     25  C   UNL     1       5.697  -6.042  26.016  0.00  0.00    +0.000 A 
ATOM     26  C   UNL     1       6.247  -4.973  25.159  0.00  0.00    +0.000 A 
ATOM     27  C   UNL     1       5.605  -5.047  23.755  0.00  0.00    +0.000 A 
ATOM     28  C   UNL     1       4.603  -5.929  23.252  0.00  0.00    +0.000 A 
ATOM     29  F   UNL     1       3.373  -5.332  23.094  0.00  0.00    +0.000 F 
ATOM     30  C   UNL     1       4.197  -7.048  24.295  0.00  0.00    +0.000 A 
ENDBRANCH  21  27
ENDBRANCH   1  21
TORSDOF 4
ENDMDL
MODEL 9
REMARK VINA RESULT:      -7.8      3.581      7.555
REMARK  Name = 
REMARK  4 active torsions:
REMARK  status: ('A' for Active; 'I' for Inactive)
REMARK    1  A    between atoms: C_7  and  S_8
REMARK    2  A    between atoms: S_8  and  N_11
REMARK    3  A    between atoms: N_18  and  C_19
REMARK    4  A    between atoms: C_35  and  C_37
REMARK                            x       y       z     vdW  Elec       q    Type
REMARK                         _______ _______ _______ _____ _____    ______ ____
ROOT
ATOM      1  N   UNL     1       8.976  -0.747  24.306  0.00  0.00    +0.000 NA
ATOM      2  C   UNL     1       9.163  -1.742  23.299  0.00  0.00    +0.000 C 
ATOM      3  C   UNL     1       9.896  -2.939  23.965  0.00  0.00    +0.000 C 
ATOM      4  N   UNL     1       8.963  -3.596  24.972  0.00  0.00    +0.000 N 
ATOM      5  C   UNL     1       8.522  -2.569  25.901  0.00  0.00    +0.000 C 
ATOM      6  C   UNL     1       8.074  -1.258  25.268  0.00  0.00    +0.000 C 
ENDROOT
BRANCH   4   7
ATOM      7  C   UNL     1       8.537  -4.880  24.877  0.00  0.00    +0.000 C 
ATOM      8  C   UNL     1       7.633  -4.614  23.912  0.00  0.00    +0.000 A 
ATOM      9  C   UNL     1       7.762  -5.634  22.775  0.00  0.00    +0.000 A 
ATOM     10  C   UNL     1       6.775  -5.880  21.731  0.00  0.00    +0.000 A 
ATOM     11  C   UNL     1       5.530  -5.128  22.185  0.00  0.00    +0.000 A 
ATOM     12  C   UNL     1       5.184  -4.317  23.264  0.00  0.00    +0.000 A 
ATOM     13  C   UNL     1       6.165  -4.651  24.359  0.00  0.00    +0.000 A 
ATOM     14  C   UNL     1       5.577  -5.491  25.501  0.00  0.00    +0.000 C 
ATOM     15  N   UNL     1       6.539  -5.567  26.376  0.00  0.00    +0.000 N 
ATOM     16  C   UNL     1       6.475  -5.429  27.799  0.00  0.00    +0.000 C 
ATOM     17  O   UNL     1       6.669  -6.539  28.348  0.00  0.00    +0.000 OA
ATOM     18  C   UNL     1       7.807  -5.430  26.080  0.00  0.00    +0.000 C 
BRANCH  16  19
ATOM     19  C   UNL     1       5.198  -4.791  28.170  0.00  0.00    +0.000 C 
ATOM     20 CL   UNL     1       5.010  -3.114  27.822  0.00  0.00    +0.000 Cl
ENDBRANCH  16  19
ENDBRANCH   4   7
BRANCH   1  21
ATOM     21  S   UNL     1       8.637   0.687  23.708  0.00  0.00    +0.000 S 
ATOM     22  O   UNL     1       9.351   0.968  22.492  0.00  0.00    +0.000 OA
ATOM     23  O   UNL     1       8.896   1.705  24.753  0.00  0.00    +0.000 OA
BRANCH  21  27
ATOM     24  C   UNL     1       5.275   3.161  22.238  0.00  0.00    +0.000 A 
ATOM     25  C   UNL     1       6.196   2.309  21.384  0.00  0.00    +0.000 A 
ATOM     26  C   UNL     1       6.978   1.121  21.778  0.00  0.00    +0.000 A 
ATOM     27  C   UNL     1       6.871   0.908  23.306  0.00  0.00    +0.000 A 
ATOM     28  C   UNL     1       6.135   1.644  24.282  0.00  0.00    +0.000 A 
ATOM     29  F   UNL     1       5.021   0.981  24.745  0.00  0.00    +0.000 F 
ATOM     30  C   UNL     1       5.424   2.920  23.676  0.00  0.00    +0.000 A 
ENDBRANCH  21  27
ENDBRANCH   1  21
TORSDOF 4
ENDMDL
