MODEL 1
REMARK VINA RESULT:      -8.7      0.000      0.000
REMARK  Name = 
REMARK  4 active torsions:
REMARK  status: ('A' for Active; 'I' for Inactive)
REMARK    1  A    between atoms: C_7  and  C_8
REMARK    2  A    between atoms: N_23  and  N_24
REMARK    3  A    between atoms: N_31  and  S_32
REMARK    4  A    between atoms: S_32  and  C_35
REMARK                            x       y       z     vdW  Elec       q    Type
REMARK                         _______ _______ _______ _____ _____    ______ ____
ROOT
ATOM      1  C   UNL     1       7.656   1.884  21.758  0.00  0.00    +0.000 C 
ATOM      2  C   UNL     1       7.062   1.945  23.005  0.00  0.00    +0.000 A 
ATOM      3  C   UNL     1       6.167   1.585  23.751  0.00  0.00    +0.000 A 
ATOM      4  C   UNL     1       5.259   2.299  24.703  0.00  0.00    +0.000 A 
ATOM      5  C   UNL     1       6.176   3.442  25.166  0.00  0.00    +0.000 A 
ATOM      6  C   UNL     1       7.411   4.008  24.744  0.00  0.00    +0.000 A 
ATOM      7  C   UNL     1       8.073   2.944  23.825  0.00  0.00    +0.000 A 
ATOM      8  C   UNL     1       9.314   2.440  24.130  0.00  0.00    +0.000 C 
ATOM      9  N   UNL     1       9.801   1.766  23.065  0.00  0.00    +0.000 N 
ATOM     10  C   UNL     1       9.077   2.005  21.964  0.00  0.00    +0.000 C 
ENDROOT
BRANCH   1  14
ATOM     11  C   UNL     1       6.197   0.899  18.041  0.00  0.00    +0.000 A 
ATOM     12  C   UNL     1       5.363   1.551  19.105  0.00  0.00    +0.000 A 
ATOM     13  C   UNL     1       5.585   1.584  20.553  0.00  0.00    +0.000 A 
ATOM     14  C   UNL     1       7.063   1.115  20.887  0.00  0.00    +0.000 A 
ATOM     15  C   UNL     1       7.681   0.005  20.061  0.00  0.00    +0.000 A 
ATOM     16  C   UNL     1       7.237  -0.001  18.589  0.00  0.00    +0.000 A 
ENDBRANCH   1  14
BRANCH   9  17
ATOM     17  N   UNL     1      10.361   0.807  23.037  0.00  0.00    +0.000 N 
ATOM     18  C   UNL     1      10.760   0.512  24.479  0.00  0.00    +0.000 C 
ATOM     19  C   UNL     1       9.627  -0.388  24.890  0.00  0.00    +0.000 C 
ATOM     20  N   UNL     1       9.769  -1.753  24.371  0.00  0.00    +0.000 NA
ATOM     21  C   UNL     1      10.271  -1.716  23.087  0.00  0.00    +0.000 C 
ATOM     22  C   UNL     1      10.434  -0.412  22.334  0.00  0.00    +0.000 C 
BRANCH  20  23
ATOM     23  S   UNL     1       8.332  -2.538  24.614  0.00  0.00    +0.000 S 
ATOM     24  O   UNL     1       7.322  -1.614  24.927  0.00  0.00    +0.000 OA
ATOM     25  O   UNL     1       8.513  -3.577  25.647  0.00  0.00    +0.000 OA
BRANCH  23  26
ATOM     26  C   UNL     1       7.989  -3.421  23.121  0.00  0.00    +0.000 A 
ATOM     27  C   UNL     1       6.866  -2.666  22.509  0.00  0.00    +0.000 A 
ATOM     28  C   UNL     1       5.492  -3.148  22.140  0.00  0.00    +0.000 A 
ATOM     29  C   UNL     1       5.442  -4.551  22.628  0.00  0.00    +0.000 A 
ATOM     30  C   UNL     1       6.226  -5.512  23.273  0.00  0.00    +0.000 A 
ATOM     31  F   UNL     1       5.869  -5.393  24.624  0.00  0.00    +0.000 F 
ATOM     32  C   UNL     1       7.652  -4.823  23.388  0.00  0.00    +0.000 A 
ENDBRANCH  23  26
ENDBRANCH  20  23
ENDBRANCH   9  17
TORSDOF 4
ENDMDL
MODEL 2
REMARK VINA RESULT:      -8.7      1.899      2.475
REMARK  Name = 
REMARK  4 active torsions:
REMARK  status: ('A' for Active; 'I' for Inactive)
REMARK    1  A    between atoms: C_7  and  C_8
REMARK    2  A    between atoms: N_23  and  N_24
REMARK    3  A    between atoms: N_31  and  S_32
REMARK    4  A    between atoms: S_32  and  C_35
REMARK                            x       y       z     vdW  Elec       q    Type
REMARK                         _______ _______ _______ _____ _____    ______ ____
ROOT
ATOM      1  C   UNL     1       8.592   1.022  21.171  0.00  0.00    +0.000 C 
ATOM      2  C   UNL     1       7.723   1.616  22.067  0.00  0.00    +0.000 A 
ATOM      3  C   UNL     1       6.596   1.701  22.524  0.00  0.00    +0.000 A 
ATOM      4  C   UNL     1       5.699   2.849  22.869  0.00  0.00    +0.000 A 
ATOM      5  C   UNL     1       6.738   3.902  23.291  0.00  0.00    +0.000 A 
ATOM      6  C   UNL     1       8.147   4.059  23.187  0.00  0.00    +0.000 A 
ATOM      7  C   UNL     1       8.711   2.643  22.881  0.00  0.00    +0.000 A 
ATOM      8  C   UNL     1       9.630   2.066  23.722  0.00  0.00    +0.000 C 
ATOM      9  N   UNL     1      10.181   0.990  23.119  0.00  0.00    +0.000 N 
ATOM     10  C   UNL     1       9.878   0.955  21.815  0.00  0.00    +0.000 C 
ENDROOT
BRANCH   1  14
ATOM     11  C   UNL     1       5.528  -1.250  19.631  0.00  0.00    +0.000 A 
ATOM     12  C   UNL     1       6.390  -1.699  20.775  0.00  0.00    +0.000 A 
ATOM     13  C   UNL     1       7.725  -1.232  21.157  0.00  0.00    +0.000 A 
ATOM     14  C   UNL     1       8.068   0.115  20.392  0.00  0.00    +0.000 A 
ATOM     15  C   UNL     1       7.598   0.283  18.962  0.00  0.00    +0.000 A 
ATOM     16  C   UNL     1       6.250  -0.393  18.663  0.00  0.00    +0.000 A 
ENDBRANCH   1  14
BRANCH   9  17
ATOM     17  N   UNL     1      10.437  -0.002  23.550  0.00  0.00    +0.000 N 
ATOM     18  C   UNL     1      10.145   0.101  25.043  0.00  0.00    +0.000 C 
ATOM     19  C   UNL     1       8.750  -0.462  25.080  0.00  0.00    +0.000 C 
ATOM     20  N   UNL     1       8.726  -1.926  24.983  0.00  0.00    +0.000 NA
ATOM     21  C   UNL     1       9.684  -2.351  24.086  0.00  0.00    +0.000 C 
ATOM     22  C   UNL     1      10.462  -1.374  23.230  0.00  0.00    +0.000 C 
BRANCH  20  23
ATOM     23  S   UNL     1       7.160  -2.388  24.715  0.00  0.00    +0.000 S 
ATOM     24  O   UNL     1       7.111  -3.386  23.727  0.00  0.00    +0.000 OA
ATOM     25  O   UNL     1       6.350  -1.199  24.384  0.00  0.00    +0.000 OA
BRANCH  23  26
ATOM     26  C   UNL     1       6.537  -2.958  26.268  0.00  0.00    +0.000 A 
ATOM     27  C   UNL     1       7.578  -3.901  26.747  0.00  0.00    +0.000 A 
ATOM     28  C   UNL     1       7.449  -5.357  27.094  0.00  0.00    +0.000 A 
ATOM     29  C   UNL     1       6.047  -5.704  26.744  0.00  0.00    +0.000 A 
ATOM     30  C   UNL     1       4.875  -5.136  26.235  0.00  0.00    +0.000 A 
ATOM     31  F   UNL     1       4.925  -5.422  24.863  0.00  0.00    +0.000 F 
ATOM     32  C   UNL     1       5.222  -3.590  26.124  0.00  0.00    +0.000 A 
ENDBRANCH  23  26
ENDBRANCH  20  23
ENDBRANCH   9  17
TORSDOF 4
ENDMDL
MODEL 3
REMARK VINA RESULT:      -8.6      2.160      4.325
REMARK  Name = 
REMARK  4 active torsions:
REMARK  status: ('A' for Active; 'I' for Inactive)
REMARK    1  A    between atoms: C_7  and  C_8
REMARK    2  A    between atoms: N_23  and  N_24
REMARK    3  A    between atoms: N_31  and  S_32
REMARK    4  A    between atoms: S_32  and  C_35
REMARK                            x       y       z     vdW  Elec       q    Type
REMARK                         _______ _______ _______ _____ _____    ______ ____
ROOT
ATOM      1  C   UNL     1       7.673   0.980  22.091  0.00  0.00    +0.000 C 
ATOM      2  C   UNL     1       7.673   0.330  20.871  0.00  0.00    +0.000 A 
ATOM      3  C   UNL     1       8.124   0.234  19.742  0.00  0.00    +0.000 A 
ATOM      4  C   UNL     1       7.507   0.048  18.390  0.00  0.00    +0.000 A 
ATOM      5  C   UNL     1       6.273  -0.791  18.755  0.00  0.00    +0.000 A 
ATOM      6  C   UNL     1       5.580  -1.143  19.946  0.00  0.00    +0.000 A 
ATOM      7  C   UNL     1       6.570  -0.861  21.111  0.00  0.00    +0.000 A 
ATOM      8  C   UNL     1       6.940  -1.870  21.966  0.00  0.00    +0.000 C 
ATOM      9  N   UNL     1       7.561  -1.343  23.044  0.00  0.00    +0.000 N 
ATOM     10  C   UNL     1       7.403  -0.015  23.096  0.00  0.00    +0.000 C 
ENDROOT
BRANCH   1  14
ATOM     11  C   UNL     1       9.695   3.948  24.097  0.00  0.00    +0.000 A 
ATOM     12  C   UNL     1       8.386   4.174  23.397  0.00  0.00    +0.000 A 
ATOM     13  C   UNL     1       7.767   3.382  22.330  0.00  0.00    +0.000 A 
ATOM     14  C   UNL     1       8.503   1.982  22.197  0.00  0.00    +0.000 A 
ATOM     15  C   UNL     1      10.003   1.923  22.397  0.00  0.00    +0.000 A 
ATOM     16  C   UNL     1      10.534   2.921  23.439  0.00  0.00    +0.000 A 
ENDBRANCH   1  14
BRANCH   9  17
ATOM     17  N   UNL     1       8.456  -1.713  23.590  0.00  0.00    +0.000 N 
ATOM     18  C   UNL     1       8.276  -1.273  25.039  0.00  0.00    +0.000 C 
ATOM     19  C   UNL     1       7.652  -2.513  25.618  0.00  0.00    +0.000 C 
ATOM     20  N   UNL     1       8.632  -3.579  25.864  0.00  0.00    +0.000 NA
ATOM     21  C   UNL     1       9.556  -3.610  24.841  0.00  0.00    +0.000 C 
ATOM     22  C   UNL     1       9.392  -2.766  23.594  0.00  0.00    +0.000 C 
BRANCH  20  23
ATOM     23  S   UNL     1       7.794  -4.969  26.188  0.00  0.00    +0.000 S 
ATOM     24  O   UNL     1       7.830  -5.246  27.564  0.00  0.00    +0.000 OA
ATOM     25  O   UNL     1       8.329  -6.066  25.358  0.00  0.00    +0.000 OA
BRANCH  23  26
ATOM     26  C   UNL     1       6.146  -4.704  25.605  0.00  0.00    +0.000 A 
ATOM     27  C   UNL     1       5.375  -5.830  26.189  0.00  0.00    +0.000 A 
ATOM     28  C   UNL     1       4.573  -6.891  25.491  0.00  0.00    +0.000 A 
ATOM     29  C   UNL     1       4.804  -6.646  24.043  0.00  0.00    +0.000 A 
ATOM     30  C   UNL     1       5.483  -5.785  23.176  0.00  0.00    +0.000 A 
ATOM     31  F   UNL     1       6.686  -6.452  22.904  0.00  0.00    +0.000 F 
ATOM     32  C   UNL     1       6.090  -4.678  24.139  0.00  0.00    +0.000 A 
ENDBRANCH  23  26
ENDBRANCH  20  23
ENDBRANCH   9  17
TORSDOF 4
ENDMDL
MODEL 4
REMARK VINA RESULT:      -8.5      1.584      2.016
REMARK  Name = 
REMARK  4 active torsions:
REMARK  status: ('A' for Active; 'I' for Inactive)
REMARK    1  A    between atoms: C_7  and  C_8
REMARK    2  A    between atoms: N_23  and  N_24
REMARK    3  A    between atoms: N_31  and  S_32
REMARK    4  A    between atoms: S_32  and  C_35
REMARK                            x       y       z     vdW  Elec       q    Type
REMARK                         _______ _______ _______ _____ _____    ______ ____
ROOT
ATOM      1  C   UNL     1       7.869   1.798  21.647  0.00  0.00    +0.000 C 
ATOM      2  C   UNL     1       7.262   2.097  22.853  0.00  0.00    +0.000 A 
ATOM      3  C   UNL     1       6.294   1.989  23.586  0.00  0.00    +0.000 A 
ATOM      4  C   UNL     1       5.511   2.955  24.421  0.00  0.00    +0.000 A 
ATOM      5  C   UNL     1       6.617   3.948  24.815  0.00  0.00    +0.000 A 
ATOM      6  C   UNL     1       7.948   4.226  24.401  0.00  0.00    +0.000 A 
ATOM      7  C   UNL     1       8.422   2.968  23.620  0.00  0.00    +0.000 A 
ATOM      8  C   UNL     1       9.534   2.275  24.030  0.00  0.00    +0.000 C 
ATOM      9  N   UNL     1       9.913   1.416  23.059  0.00  0.00    +0.000 N 
ATOM     10  C   UNL     1       9.280   1.671  21.908  0.00  0.00    +0.000 C 
ENDROOT
BRANCH   1  14
ATOM     11  C   UNL     1       6.087   0.900  18.050  0.00  0.00    +0.000 A 
ATOM     12  C   UNL     1       5.376   1.611  19.165  0.00  0.00    +0.000 A 
ATOM     13  C   UNL     1       5.702   1.635  20.593  0.00  0.00    +0.000 A 
ATOM     14  C   UNL     1       7.165   1.068  20.826  0.00  0.00    +0.000 A 
ATOM     15  C   UNL     1       7.647  -0.085  19.968  0.00  0.00    +0.000 A 
ATOM     16  C   UNL     1       7.100  -0.067  18.532  0.00  0.00    +0.000 A 
ENDBRANCH   1  14
BRANCH   9  17
ATOM     17  N   UNL     1      10.281   0.371  23.150  0.00  0.00    +0.000 N 
ATOM     18  C   UNL     1       9.986  -0.054  24.585  0.00  0.00    +0.000 C 
ATOM     19  C   UNL     1       8.663  -0.743  24.391  0.00  0.00    +0.000 C 
ATOM     20  N   UNL     1       8.802  -2.088  23.820  0.00  0.00    +0.000 NA
ATOM     21  C   UNL     1       9.797  -2.091  22.865  0.00  0.00    +0.000 C 
ATOM     22  C   UNL     1      10.457  -0.809  22.401  0.00  0.00    +0.000 C 
BRANCH  20  23
ATOM     23  S   UNL     1       7.295  -2.601  23.365  0.00  0.00    +0.000 S 
ATOM     24  O   UNL     1       7.247  -2.790  21.974  0.00  0.00    +0.000 OA
ATOM     25  O   UNL     1       6.285  -1.645  23.860  0.00  0.00    +0.000 OA
BRANCH  23  26
ATOM     26  C   UNL     1       6.992  -4.100  24.251  0.00  0.00    +0.000 A 
ATOM     27  C   UNL     1       6.728  -3.647  25.641  0.00  0.00    +0.000 A 
ATOM     28  C   UNL     1       7.449  -4.011  26.907  0.00  0.00    +0.000 A 
ATOM     29  C   UNL     1       8.588  -4.857  26.462  0.00  0.00    +0.000 A 
ATOM     30  C   UNL     1       9.160  -5.399  25.308  0.00  0.00    +0.000 A 
ATOM     31  F   UNL     1      10.155  -4.476  24.954  0.00  0.00    +0.000 F 
ATOM     32  C   UNL     1       8.129  -5.021  24.161  0.00  0.00    +0.000 A 
ENDBRANCH  23  26
ENDBRANCH  20  23
ENDBRANCH   9  17
TORSDOF 4
ENDMDL
MODEL 5
REMARK VINA RESULT:      -8.5      3.225      7.122
REMARK  Name = 
REMARK  4 active torsions:
REMARK  status: ('A' for Active; 'I' for Inactive)
REMARK    1  A    between atoms: C_7  and  C_8
REMARK    2  A    between atoms: N_23  and  N_24
REMARK    3  A    between atoms: N_31  and  S_32
REMARK    4  A    between atoms: S_32  and  C_35
REMARK                            x       y       z     vdW  Elec       q    Type
REMARK                         _______ _______ _______ _____ _____    ______ ____
ROOT
ATOM      1  C   UNL     1       6.900  -5.103  25.589  0.00  0.00    +0.000 C 
ATOM      2  C   UNL     1       6.184  -5.101  24.406  0.00  0.00    +0.000 A 
ATOM      3  C   UNL     1       5.102  -5.094  23.845  0.00  0.00    +0.000 A 
ATOM      4  C   UNL     1       4.523  -5.862  22.697  0.00  0.00    +0.000 A 
ATOM      5  C   UNL     1       5.783  -6.094  21.848  0.00  0.00    +0.000 A 
ATOM      6  C   UNL     1       7.188  -5.973  22.032  0.00  0.00    +0.000 A 
ATOM      7  C   UNL     1       7.375  -5.062  23.278  0.00  0.00    +0.000 A 
ATOM      8  C   UNL     1       8.082  -3.889  23.179  0.00  0.00    +0.000 C 
ATOM      9  N   UNL     1       8.355  -3.421  24.416  0.00  0.00    +0.000 N 
ATOM     10  C   UNL     1       8.101  -4.343  25.353  0.00  0.00    +0.000 C 
ENDROOT
BRANCH   1  14
ATOM     11  C   UNL     1       3.479  -4.560  27.807  0.00  0.00    +0.000 A 
ATOM     12  C   UNL     1       4.524  -3.496  27.634  0.00  0.00    +0.000 A 
ATOM     13  C   UNL     1       5.931  -3.645  27.253  0.00  0.00    +0.000 A 
ATOM     14  C   UNL     1       6.187  -5.103  26.682  0.00  0.00    +0.000 A 
ATOM     15  C   UNL     1       5.454  -6.272  27.308  0.00  0.00    +0.000 A 
ATOM     16  C   UNL     1       4.040  -5.930  27.805  0.00  0.00    +0.000 A 
ENDBRANCH   1  14
BRANCH   9  17
ATOM     17  N   UNL     1       8.329  -2.375  24.794  0.00  0.00    +0.000 N 
ATOM     18  C   UNL     1       9.757  -1.852  24.678  0.00  0.00    +0.000 C 
ATOM     19  C   UNL     1       9.680  -1.165  23.342  0.00  0.00    +0.000 C 
ATOM     20  N   UNL     1       9.006   0.137  23.411  0.00  0.00    +0.000 NA
ATOM     21  C   UNL     1       7.939   0.066  24.282  0.00  0.00    +0.000 C 
ATOM     22  C   UNL     1       7.485  -1.250  24.878  0.00  0.00    +0.000 C 
BRANCH  20  23
ATOM     23  S   UNL     1       8.705   0.633  21.862  0.00  0.00    +0.000 S 
ATOM     24  O   UNL     1       9.432  -0.151  20.952  0.00  0.00    +0.000 OA
ATOM     25  O   UNL     1       8.992   2.077  21.747  0.00  0.00    +0.000 OA
BRANCH  23  26
ATOM     26  C   UNL     1       6.959   0.485  21.622  0.00  0.00    +0.000 A 
ATOM     27  C   UNL     1       6.748  -0.972  21.427  0.00  0.00    +0.000 A 
ATOM     28  C   UNL     1       6.139  -1.691  20.257  0.00  0.00    +0.000 A 
ATOM     29  C   UNL     1       5.884  -0.626  19.252  0.00  0.00    +0.000 A 
ATOM     30  C   UNL     1       6.012   0.754  19.065  0.00  0.00    +0.000 A 
ATOM     31  F   UNL     1       7.237   0.896  18.398  0.00  0.00    +0.000 F 
ATOM     32  C   UNL     1       6.501   1.283  20.481  0.00  0.00    +0.000 A 
ENDBRANCH  23  26
ENDBRANCH  20  23
ENDBRANCH   9  17
TORSDOF 4
ENDMDL
MODEL 6
REMARK VINA RESULT:      -8.2      3.118      7.605
REMARK  Name = 
REMARK  4 active torsions:
REMARK  status: ('A' for Active; 'I' for Inactive)
REMARK    1  A    between atoms: C_7  and  C_8
REMARK    2  A    between atoms: N_23  and  N_24
REMARK    3  A    between atoms: N_31  and  S_32
REMARK    4  A    between atoms: S_32  and  C_35
REMARK                            x       y       z     vdW  Elec       q    Type
REMARK                         _______ _______ _______ _____ _____    ______ ____
ROOT
ATOM      1  C   UNL     1       6.839  -5.322  25.584  0.00  0.00    +0.000 C 
ATOM      2  C   UNL     1       6.032  -5.236  24.464  0.00  0.00    +0.000 A 
ATOM      3  C   UNL     1       4.913  -5.135  23.993  0.00  0.00    +0.000 A 
ATOM      4  C   UNL     1       4.187  -5.828  22.882  0.00  0.00    +0.000 A 
ATOM      5  C   UNL     1       5.354  -6.130  21.928  0.00  0.00    +0.000 A 
ATOM      6  C   UNL     1       6.774  -6.118  21.999  0.00  0.00    +0.000 A 
ATOM      7  C   UNL     1       7.129  -5.256  23.243  0.00  0.00    +0.000 A 
ATOM      8  C   UNL     1       7.912  -4.136  23.110  0.00  0.00    +0.000 C 
ATOM      9  N   UNL     1       8.318  -3.722  24.331  0.00  0.00    +0.000 N 
ATOM     10  C   UNL     1       8.071  -4.647  25.266  0.00  0.00    +0.000 C 
ENDROOT
BRANCH   1  14
ATOM     11  C   UNL     1       3.688  -4.508  28.100  0.00  0.00    +0.000 A 
ATOM     12  C   UNL     1       4.836  -3.563  27.887  0.00  0.00    +0.000 A 
ATOM     13  C   UNL     1       6.181  -3.853  27.385  0.00  0.00    +0.000 A 
ATOM     14  C   UNL     1       6.218  -5.298  26.731  0.00  0.00    +0.000 A 
ATOM     15  C   UNL     1       5.402  -6.407  27.365  0.00  0.00    +0.000 A 
ATOM     16  C   UNL     1       4.081  -5.931  27.992  0.00  0.00    +0.000 A 
ENDBRANCH   1  14
BRANCH   9  17
ATOM     17  N   UNL     1       8.402  -2.688  24.729  0.00  0.00    +0.000 N 
ATOM     18  C   UNL     1       9.786  -2.192  24.325  0.00  0.00    +0.000 C 
ATOM     19  C   UNL     1       9.447  -1.465  23.052  0.00  0.00    +0.000 C 
ATOM     20  N   UNL     1       8.839  -0.151  23.295  0.00  0.00    +0.000 NA
ATOM     21  C   UNL     1       7.979  -0.225  24.371  0.00  0.00    +0.000 C 
ATOM     22  C   UNL     1       7.627  -1.547  25.019  0.00  0.00    +0.000 C 
BRANCH  20  23
ATOM     23  S   UNL     1       8.229   0.396  21.857  0.00  0.00    +0.000 S 
ATOM     24  O   UNL     1       6.828   0.307  21.859  0.00  0.00    +0.000 OA
ATOM     25  O   UNL     1       8.860  -0.344  20.747  0.00  0.00    +0.000 OA
BRANCH  23  26
ATOM     26  C   UNL     1       8.790   2.064  21.682  0.00  0.00    +0.000 A 
ATOM     27  C   UNL     1      10.147   2.050  22.283  0.00  0.00    +0.000 A 
ATOM     28  C   UNL     1      10.683   2.859  23.430  0.00  0.00    +0.000 A 
ATOM     29  C   UNL     1       9.510   3.623  23.931  0.00  0.00    +0.000 A 
ATOM     30  C   UNL     1       8.149   3.824  23.682  0.00  0.00    +0.000 A 
ATOM     31  F   UNL     1       7.507   2.932  24.553  0.00  0.00    +0.000 F 
ATOM     32  C   UNL     1       7.886   3.010  22.344  0.00  0.00    +0.000 A 
ENDBRANCH  23  26
ENDBRANCH  20  23
ENDBRANCH   9  17
TORSDOF 4
ENDMDL
MODEL 7
REMARK VINA RESULT:      -8.1      2.563      4.098
REMARK  Name = 
REMARK  4 active torsions:
REMARK  status: ('A' for Active; 'I' for Inactive)
REMARK    1  A    between atoms: C_7  and  C_8
REMARK    2  A    between atoms: N_23  and  N_24
REMARK    3  A    between atoms: N_31  and  S_32
REMARK    4  A    between atoms: S_32  and  C_35
REMARK                            x       y       z     vdW  Elec       q    Type
REMARK                         _______ _______ _______ _____ _____    ______ ____
ROOT
ATOM      1  C   UNL     1       8.366   0.044  21.370  0.00  0.00    +0.000 C 
ATOM      2  C   UNL     1       8.742   0.784  22.475  0.00  0.00    +0.000 A 
ATOM      3  C   UNL     1       8.716   1.846  23.075  0.00  0.00    +0.000 A 
ATOM      4  C   UNL     1       9.754   2.670  23.771  0.00  0.00    +0.000 A 
ATOM      5  C   UNL     1      10.695   1.567  24.282  0.00  0.00    +0.000 A 
ATOM      6  C   UNL     1      10.882   0.178  24.042  0.00  0.00    +0.000 A 
ATOM      7  C   UNL     1       9.572  -0.316  23.366  0.00  0.00    +0.000 A 
ATOM      8  C   UNL     1       8.831  -1.319  23.940  0.00  0.00    +0.000 C 
ATOM      9  N   UNL     1       7.917  -1.770  23.052  0.00  0.00    +0.000 N 
ATOM     10  C   UNL     1       8.167  -1.310  21.820  0.00  0.00    +0.000 C 
ENDROOT
BRANCH   1  14
ATOM     11  C   UNL     1       5.123   0.586  18.898  0.00  0.00    +0.000 A 
ATOM     12  C   UNL     1       6.396  -0.073  18.452  0.00  0.00    +0.000 A 
ATOM     13  C   UNL     1       7.735   0.025  19.039  0.00  0.00    +0.000 A 
ATOM     14  C   UNL     1       7.648   0.677  20.482  0.00  0.00    +0.000 A 
ATOM     15  C   UNL     1       6.644   1.785  20.724  0.00  0.00    +0.000 A 
ATOM     16  C   UNL     1       5.341   1.634  19.922  0.00  0.00    +0.000 A 
ENDBRANCH   1  14
BRANCH   9  17
ATOM     17  N   UNL     1       6.857  -2.057  23.220  0.00  0.00    +0.000 N 
ATOM     18  C   UNL     1       6.691  -3.437  22.593  0.00  0.00    +0.000 C 
ATOM     19  C   UNL     1       6.913  -4.306  23.801  0.00  0.00    +0.000 C 
ATOM     20  N   UNL     1       5.743  -4.358  24.686  0.00  0.00    +0.000 NA
ATOM     21  C   UNL     1       5.152  -3.113  24.754  0.00  0.00    +0.000 C 
ATOM     22  C   UNL     1       5.798  -1.891  24.134  0.00  0.00    +0.000 C 
BRANCH  20  23
ATOM     23  S   UNL     1       6.215  -5.066  26.105  0.00  0.00    +0.000 S 
ATOM     24  O   UNL     1       6.238  -4.114  27.137  0.00  0.00    +0.000 OA
ATOM     25  O   UNL     1       7.512  -5.742  25.905  0.00  0.00    +0.000 OA
BRANCH  23  26
ATOM     26  C   UNL     1       5.057  -6.364  26.421  0.00  0.00    +0.000 A 
ATOM     27  C   UNL     1       4.679  -6.844  25.068  0.00  0.00    +0.000 A 
ATOM     28  C   UNL     1       3.320  -6.904  24.431  0.00  0.00    +0.000 A 
ATOM     29  C   UNL     1       2.413  -6.262  25.418  0.00  0.00    +0.000 A 
ATOM     30  C   UNL     1       2.421  -5.665  26.682  0.00  0.00    +0.000 A 
ATOM     31  F   UNL     1       2.536  -4.294  26.412  0.00  0.00    +0.000 F 
ATOM     32  C   UNL     1       3.907  -5.886  27.196  0.00  0.00    +0.000 A 
ENDBRANCH  23  26
ENDBRANCH  20  23
ENDBRANCH   9  17
TORSDOF 4
ENDMDL
MODEL 8
REMARK VINA RESULT:      -7.9      3.481      5.486
REMARK  Name = 
REMARK  4 active torsions:
REMARK  status: ('A' for Active; 'I' for Inactive)
REMARK    1  A    between atoms: C_7  and  C_8
REMARK    2  A    between atoms: N_23  and  N_24
REMARK    3  A    between atoms: N_31  and  S_32
REMARK    4  A    between atoms: S_32  and  C_35
REMARK                            x       y       z     vdW  Elec       q    Type
REMARK                         _______ _______ _______ _____ _____    ______ ____
ROOT
ATOM      1  C   UNL     1       7.584   0.213  23.657  0.00  0.00    +0.000 C 
ATOM      2  C   UNL     1       7.844  -0.191  22.361  0.00  0.00    +0.000 A 
ATOM      3  C   UNL     1       8.520  -0.081  21.353  0.00  0.00    +0.000 A 
ATOM      4  C   UNL     1       8.200   0.013  19.893  0.00  0.00    +0.000 A 
ATOM      5  C   UNL     1       6.927  -0.845  19.827  0.00  0.00    +0.000 A 
ATOM      6  C   UNL     1       6.007  -1.399  20.759  0.00  0.00    +0.000 A 
ATOM      7  C   UNL     1       6.730  -1.374  22.135  0.00  0.00    +0.000 A 
ATOM      8  C   UNL     1       6.927  -2.539  22.836  0.00  0.00    +0.000 C 
ATOM      9  N   UNL     1       7.304  -2.246  24.100  0.00  0.00    +0.000 N 
ATOM     10  C   UNL     1       7.123  -0.948  24.374  0.00  0.00    +0.000 C 
ENDROOT
BRANCH   1  14
ATOM     11  C   UNL     1      10.744   2.842  23.527  0.00  0.00    +0.000 A 
ATOM     12  C   UNL     1      10.841   1.469  24.126  0.00  0.00    +0.000 A 
ATOM     13  C   UNL     1       9.766   0.604  24.616  0.00  0.00    +0.000 A 
ATOM     14  C   UNL     1       8.361   1.152  24.124  0.00  0.00    +0.000 A 
ATOM     15  C   UNL     1       8.143   2.650  24.059  0.00  0.00    +0.000 A 
ATOM     16  C   UNL     1       9.402   3.448  23.682  0.00  0.00    +0.000 A 
ENDBRANCH   1  14
BRANCH   9  17
ATOM     17  N   UNL     1       8.071  -2.739  24.736  0.00  0.00    +0.000 N 
ATOM     18  C   UNL     1       7.910  -2.138  26.128  0.00  0.00    +0.000 C 
ATOM     19  C   UNL     1       7.010  -3.166  26.758  0.00  0.00    +0.000 C 
ATOM     20  N   UNL     1       7.729  -4.381  27.158  0.00  0.00    +0.000 NA
ATOM     21  C   UNL     1       8.680  -4.696  26.209  0.00  0.00    +0.000 C 
ATOM     22  C   UNL     1       8.764  -3.956  24.891  0.00  0.00    +0.000 C 
BRANCH  20  23
ATOM     23  S   UNL     1       6.603  -5.534  27.531  0.00  0.00    +0.000 S 
ATOM     24  O   UNL     1       7.112  -6.414  28.501  0.00  0.00    +0.000 OA
ATOM     25  O   UNL     1       6.172  -6.215  26.294  0.00  0.00    +0.000 OA
BRANCH  23  26
ATOM     26  C   UNL     1       5.173  -4.666  28.105  0.00  0.00    +0.000 A 
ATOM     27  C   UNL     1       5.070  -5.053  29.535  0.00  0.00    +0.000 A 
ATOM     28  C   UNL     1       3.935  -5.726  30.253  0.00  0.00    +0.000 A 
ATOM     29  C   UNL     1       2.947  -6.038  29.187  0.00  0.00    +0.000 A 
ATOM     30  C   UNL     1       2.746  -5.902  27.810  0.00  0.00    +0.000 A 
ATOM     31  F   UNL     1       3.191  -7.120  27.278  0.00  0.00    +0.000 F 
ATOM     32  C   UNL     1       3.979  -5.021  27.333  0.00  0.00    +0.000 A 
ENDBRANCH  23  26
ENDBRANCH  20  23
ENDBRANCH   9  17
TORSDOF 4
ENDMDL
MODEL 9
REMARK VINA RESULT:      -7.8      2.458      3.838
REMARK  Name = 
REMARK  4 active torsions:
REMARK  status: ('A' for Active; 'I' for Inactive)
REMARK    1  A    between atoms: C_7  and  C_8
REMARK    2  A    between atoms: N_23  and  N_24
REMARK    3  A    between atoms: N_31  and  S_32
REMARK    4  A    between atoms: S_32  and  C_35
REMARK                            x       y       z     vdW  Elec       q    Type
REMARK                         _______ _______ _______ _____ _____    ______ ____
ROOT
ATOM      1  C   UNL     1       8.663   2.267  24.823  0.00  0.00    +0.000 C 
ATOM      2  C   UNL     1       7.465   2.233  25.512  0.00  0.00    +0.000 A 
ATOM      3  C   UNL     1       6.369   2.725  25.717  0.00  0.00    +0.000 A 
ATOM      4  C   UNL     1       5.594   3.053  26.956  0.00  0.00    +0.000 A 
ATOM      5  C   UNL     1       6.082   1.940  27.898  0.00  0.00    +0.000 A 
ATOM      6  C   UNL     1       7.136   0.985  27.907  0.00  0.00    +0.000 A 
ATOM      7  C   UNL     1       7.633   0.889  26.437  0.00  0.00    +0.000 A 
ATOM      8  C   UNL     1       7.609  -0.314  25.774  0.00  0.00    +0.000 C 
ATOM      9  N   UNL     1       8.339  -0.219  24.641  0.00  0.00    +0.000 N 
ATOM     10  C   UNL     1       9.073   0.900  24.627  0.00  0.00    +0.000 C 
ENDROOT
BRANCH   1  14
ATOM     11  C   UNL     1       7.387   5.516  22.647  0.00  0.00    +0.000 A 
ATOM     12  C   UNL     1       7.347   4.109  22.124  0.00  0.00    +0.000 A 
ATOM     13  C   UNL     1       8.112   2.942  22.570  0.00  0.00    +0.000 A 
ATOM     14  C   UNL     1       8.797   3.245  23.969  0.00  0.00    +0.000 A 
ATOM     15  C   UNL     1       9.335   4.637  24.233  0.00  0.00    +0.000 A 
ATOM     16  C   UNL     1       8.517   5.758  23.572  0.00  0.00    +0.000 A 
ENDBRANCH   1  14
BRANCH   9  17
ATOM     17  N   UNL     1       8.125  -0.632  23.631  0.00  0.00    +0.000 N 
ATOM     18  C   UNL     1       9.406  -1.327  23.183  0.00  0.00    +0.000 C 
ATOM     19  C   UNL     1       9.105  -2.739  23.608  0.00  0.00    +0.000 C 
ATOM     20  N   UNL     1       8.186  -3.424  22.692  0.00  0.00    +0.000 NA
ATOM     21  C   UNL     1       7.214  -2.546  22.261  0.00  0.00    +0.000 C 
ATOM     22  C   UNL     1       7.077  -1.158  22.850  0.00  0.00    +0.000 C 
BRANCH  20  23
ATOM     23  S   UNL     1       7.691  -4.822  23.426  0.00  0.00    +0.000 S 
ATOM     24  O   UNL     1       8.771  -5.435  24.082  0.00  0.00    +0.000 OA
ATOM     25  O   UNL     1       7.044  -5.695  22.426  0.00  0.00    +0.000 OA
BRANCH  23  26
ATOM     26  C   UNL     1       6.403  -4.365  24.548  0.00  0.00    +0.000 A 
ATOM     27  C   UNL     1       6.906  -4.814  25.872  0.00  0.00    +0.000 A 
ATOM     28  C   UNL     1       6.285  -5.778  26.842  0.00  0.00    +0.000 A 
ATOM     29  C   UNL     1       5.080  -6.295  26.141  0.00  0.00    +0.000 A 
ATOM     30  C   UNL     1       4.377  -6.168  24.940  0.00  0.00    +0.000 A 
ATOM     31  F   UNL     1       4.866  -7.214  24.145  0.00  0.00    +0.000 F 
ATOM     32  C   UNL     1       5.125  -4.987  24.186  0.00  0.00    +0.000 A 
ENDBRANCH  23  26
ENDBRANCH  20  23
ENDBRANCH   9  17
TORSDOF 4
ENDMDL
