MODEL 1
REMARK VINA RESULT:      -8.6      0.000      0.000
REMARK  Name = 
REMARK  6 active torsions:
REMARK  status: ('A' for Active; 'I' for Inactive)
REMARK    1  A    between atoms: C_7  and  C_8
REMARK    2  A    between atoms: N_23  and  C_24
REMARK    3  A    between atoms: C_24  and  C_27
REMARK    4  A    between atoms: N_36  and  S_37
REMARK    5  A    between atoms: S_37  and  C_40
REMARK    6  A    between atoms: C_49  and  C_50
REMARK                            x       y       z     vdW  Elec       q    Type
REMARK                         _______ _______ _______ _____ _____    ______ ____
ROOT
ATOM      1  C   UNL     1       6.932  -3.676  22.780  0.00  0.00    +0.000 C 
ATOM      2  O   UNL     1       6.946  -3.763  21.559  0.00  0.00    +0.000 OA
ATOM      3  N   UNL     1       6.203  -4.559  23.506  0.00  0.00    +0.000 N 
ATOM      4  C   UNL     1       5.165  -4.068  24.415  0.00  0.00    +0.000 C 
ATOM      5  C   UNL     1       3.801  -4.710  23.978  0.00  0.00    +0.000 C 
ATOM      6  N   UNL     1       3.822  -6.094  24.156  0.00  0.00    +0.000 NA
ATOM      7  C   UNL     1       5.042  -6.694  23.920  0.00  0.00    +0.000 C 
ATOM      8  C   UNL     1       5.990  -5.900  23.000  0.00  0.00    +0.000 C 
ENDROOT
BRANCH   6   9
ATOM      9  S   UNL     1       2.939  -6.760  25.222  0.00  0.00    +0.000 S 
ATOM     10  O   UNL     1       3.067  -8.260  25.062  0.00  0.00    +0.000 OA
ATOM     11  O   UNL     1       1.486  -6.446  24.824  0.00  0.00    +0.000 OA
BRANCH   9  12
ATOM     12  C   UNL     1       2.922  -6.475  26.962  0.00  0.00    +0.000 A 
ATOM     13  C   UNL     1       1.938  -5.352  27.154  0.00  0.00    +0.000 A 
ATOM     14  C   UNL     1       2.192  -3.962  27.628  0.00  0.00    +0.000 A 
ATOM     15  C   UNL     1       3.676  -3.908  27.822  0.00  0.00    +0.000 A 
ATOM     16  C   UNL     1       4.789  -4.788  27.944  0.00  0.00    +0.000 A 
ATOM     17  C   UNL     1       4.259  -6.160  27.484  0.00  0.00    +0.000 A 
BRANCH  17  18
ATOM     18  C   UNL     1       4.479  -6.972  28.547  0.00  0.00    +0.000 C 
ATOM     19  N   UNL     1       5.591  -7.320  28.461  0.00  0.00    +0.000 NA
ENDBRANCH  17  18
ENDBRANCH   9  12
ENDBRANCH   6   9
BRANCH   1  20
ATOM     20  C   UNL     1       8.098  -2.796  23.445  0.00  0.00    +0.000 C 
BRANCH  20  29
ATOM     21  C   UNL     1       7.791   0.614  22.015  0.00  0.00    +0.000 C 
ATOM     22  C   UNL     1       9.391   0.691  21.825  0.00  0.00    +0.000 A 
ATOM     23  C   UNL     1       9.865   1.715  22.405  0.00  0.00    +0.000 A 
ATOM     24  C   UNL     1      10.279   2.288  23.807  0.00  0.00    +0.000 A 
ATOM     25  C   UNL     1      10.559   0.896  24.433  0.00  0.00    +0.000 A 
ATOM     26  C   UNL     1      10.390  -0.479  24.120  0.00  0.00    +0.000 A 
ATOM     27  C   UNL     1      10.262  -0.379  22.545  0.00  0.00    +0.000 A 
ATOM     28  C   UNL     1       9.710  -1.622  22.153  0.00  0.00    +0.000 C 
ATOM     29  N   UNL     1       8.417  -1.813  22.553  0.00  0.00    +0.000 N 
ATOM     30  C   UNL     1       7.647  -0.723  22.482  0.00  0.00    +0.000 C 
BRANCH  21  34
ATOM     31  C   UNL     1       5.318   0.080  19.158  0.00  0.00    +0.000 A 
ATOM     32  C   UNL     1       5.358   1.482  19.740  0.00  0.00    +0.000 A 
ATOM     33  C   UNL     1       6.483   2.043  20.467  0.00  0.00    +0.000 A 
ATOM     34  C   UNL     1       7.649   1.033  20.632  0.00  0.00    +0.000 A 
ATOM     35  C   UNL     1       7.916   0.051  19.501  0.00  0.00    +0.000 A 
ATOM     36  C   UNL     1       6.626  -0.437  18.763  0.00  0.00    +0.000 A 
ENDBRANCH  21  34
ENDBRANCH  20  29
ENDBRANCH   1  20
TORSDOF 6
ENDMDL
MODEL 2
REMARK VINA RESULT:      -8.6      2.920      8.378
REMARK  Name = 
REMARK  6 active torsions:
REMARK  status: ('A' for Active; 'I' for Inactive)
REMARK    1  A    between atoms: C_7  and  C_8
REMARK    2  A    between atoms: N_23  and  C_24
REMARK    3  A    between atoms: C_24  and  C_27
REMARK    4  A    between atoms: N_36  and  S_37
REMARK    5  A    between atoms: S_37  and  C_40
REMARK    6  A    between atoms: C_49  and  C_50
REMARK                            x       y       z     vdW  Elec       q    Type
REMARK                         _______ _______ _______ _____ _____    ______ ____
ROOT
ATOM      1  C   UNL     1       6.079  -4.966  27.646  0.00  0.00    +0.000 C 
ATOM      2  O   UNL     1       6.703  -5.383  28.613  0.00  0.00    +0.000 OA
ATOM      3  N   UNL     1       6.669  -4.091  26.795  0.00  0.00    +0.000 N 
ATOM      4  C   UNL     1       6.048  -2.787  26.550  0.00  0.00    +0.000 C 
ATOM      5  C   UNL     1       7.086  -1.679  26.948  0.00  0.00    +0.000 C 
ATOM      6  N   UNL     1       8.201  -1.718  26.112  0.00  0.00    +0.000 NA
ATOM      7  C   UNL     1       8.576  -2.979  25.697  0.00  0.00    +0.000 C 
ATOM      8  C   UNL     1       8.106  -4.130  26.608  0.00  0.00    +0.000 C 
ENDROOT
BRANCH   6   9
ATOM      9  S   UNL     1       8.481  -0.574  25.125  0.00  0.00    +0.000 S 
ATOM     10  O   UNL     1       8.493   0.723  25.906  0.00  0.00    +0.000 OA
ATOM     11  O   UNL     1       7.235  -0.477  24.226  0.00  0.00    +0.000 OA
BRANCH   9  12
ATOM     12  C   UNL     1       9.797  -0.432  23.960  0.00  0.00    +0.000 A 
ATOM     13  C   UNL     1      10.420   0.908  24.251  0.00  0.00    +0.000 A 
ATOM     14  C   UNL     1      10.453   2.125  23.392  0.00  0.00    +0.000 A 
ATOM     15  C   UNL     1       9.669   1.736  22.177  0.00  0.00    +0.000 A 
ATOM     16  C   UNL     1       9.177   0.567  21.529  0.00  0.00    +0.000 A 
ATOM     17  C   UNL     1       9.324  -0.556  22.575  0.00  0.00    +0.000 A 
BRANCH  17  18
ATOM     18  C   UNL     1      10.108  -1.477  21.962  0.00  0.00    +0.000 C 
ATOM     19  N   UNL     1      10.463  -2.207  22.801  0.00  0.00    +0.000 NA
ENDBRANCH  17  18
ENDBRANCH   9  12
ENDBRANCH   6   9
BRANCH   1  20
ATOM     20  C   UNL     1       4.774  -5.800  27.228  0.00  0.00    +0.000 C 
BRANCH  20  29
ATOM     21  C   UNL     1       4.694  -6.374  23.563  0.00  0.00    +0.000 C 
ATOM     22  C   UNL     1       3.196  -5.781  23.491  0.00  0.00    +0.000 A 
ATOM     23  C   UNL     1       2.406  -6.615  22.952  0.00  0.00    +0.000 A 
ATOM     24  C   UNL     1       1.582  -7.923  23.223  0.00  0.00    +0.000 A 
ATOM     25  C   UNL     1       1.458  -7.679  24.750  0.00  0.00    +0.000 A 
ATOM     26  C   UNL     1       1.967  -6.803  25.745  0.00  0.00    +0.000 A 
ATOM     27  C   UNL     1       2.421  -5.594  24.828  0.00  0.00    +0.000 A 
ATOM     28  C   UNL     1       3.287  -4.832  25.647  0.00  0.00    +0.000 C 
ATOM     29  N   UNL     1       4.469  -5.450  25.944  0.00  0.00    +0.000 N 
ATOM     30  C   UNL     1       4.998  -6.151  24.935  0.00  0.00    +0.000 C 
BRANCH  21  34
ATOM     31  C   UNL     1       7.750  -4.368  22.467  0.00  0.00    +0.000 A 
ATOM     32  C   UNL     1       7.388  -5.550  21.585  0.00  0.00    +0.000 A 
ATOM     33  C   UNL     1       6.068  -6.152  21.511  0.00  0.00    +0.000 A 
ATOM     34  C   UNL     1       5.053  -5.482  22.475  0.00  0.00    +0.000 A 
ATOM     35  C   UNL     1       5.170  -3.985  22.715  0.00  0.00    +0.000 A 
ATOM     36  C   UNL     1       6.640  -3.453  22.718  0.00  0.00    +0.000 A 
ENDBRANCH  21  34
ENDBRANCH  20  29
ENDBRANCH   1  20
TORSDOF 6
ENDMDL
MODEL 3
REMARK VINA RESULT:      -8.4      3.209      5.091
REMARK  Name = 
REMARK  6 active torsions:
REMARK  status: ('A' for Active; 'I' for Inactive)
REMARK    1  A    between atoms: C_7  and  C_8
REMARK    2  A    between atoms: N_23  and  C_24
REMARK    3  A    between atoms: C_24  and  C_27
REMARK    4  A    between atoms: N_36  and  S_37
REMARK    5  A    between atoms: S_37  and  C_40
REMARK    6  A    between atoms: C_49  and  C_50
REMARK                            x       y       z     vdW  Elec       q    Type
REMARK                         _______ _______ _______ _____ _____    ______ ____
ROOT
ATOM      1  C   UNL     1       6.947   0.403  26.651  0.00  0.00    +0.000 C 
ATOM      2  O   UNL     1       7.291   0.660  27.797  0.00  0.00    +0.000 OA
ATOM      3  N   UNL     1       6.875  -0.889  26.247  0.00  0.00    +0.000 N 
ATOM      4  C   UNL     1       7.660  -1.332  25.091  0.00  0.00    +0.000 C 
ATOM      5  C   UNL     1       8.600  -2.496  25.567  0.00  0.00    +0.000 C 
ATOM      6  N   UNL     1       7.856  -3.609  25.956  0.00  0.00    +0.000 NA
ATOM      7  C   UNL     1       6.652  -3.323  26.566  0.00  0.00    +0.000 C 
ATOM      8  C   UNL     1       6.565  -1.926  27.211  0.00  0.00    +0.000 C 
ENDROOT
BRANCH   6   9
ATOM      9  S   UNL     1       7.904  -4.908  25.136  0.00  0.00    +0.000 S 
ATOM     10  O   UNL     1       7.779  -6.071  26.098  0.00  0.00    +0.000 OA
ATOM     11  O   UNL     1       9.337  -5.008  24.586  0.00  0.00    +0.000 OA
BRANCH   9  12
ATOM     12  C   UNL     1       6.931  -5.353  23.735  0.00  0.00    +0.000 A 
ATOM     13  C   UNL     1       7.306  -4.350  22.677  0.00  0.00    +0.000 A 
ATOM     14  C   UNL     1       6.462  -3.289  22.058  0.00  0.00    +0.000 A 
ATOM     15  C   UNL     1       5.150  -3.404  22.771  0.00  0.00    +0.000 A 
ATOM     16  C   UNL     1       4.439  -4.321  23.598  0.00  0.00    +0.000 A 
ATOM     17  C   UNL     1       5.493  -5.355  24.038  0.00  0.00    +0.000 A 
BRANCH  17  18
ATOM     18  C   UNL     1       4.992  -6.540  23.610  0.00  0.00    +0.000 C 
ATOM     19  N   UNL     1       4.616  -7.094  24.567  0.00  0.00    +0.000 NA
ENDBRANCH  17  18
ENDBRANCH   9  12
ENDBRANCH   6   9
BRANCH   1  20
ATOM     20  C   UNL     1       6.208   1.580  25.849  0.00  0.00    +0.000 C 
BRANCH  20  29
ATOM     21  C   UNL     1       7.032   2.424  22.330  0.00  0.00    +0.000 C 
ATOM     22  C   UNL     1       7.909   3.684  22.826  0.00  0.00    +0.000 A 
ATOM     23  C   UNL     1       7.510   4.755  22.274  0.00  0.00    +0.000 A 
ATOM     24  C   UNL     1       6.395   5.858  22.328  0.00  0.00    +0.000 A 
ATOM     25  C   UNL     1       6.090   5.654  23.836  0.00  0.00    +0.000 A 
ATOM     26  C   UNL     1       6.419   4.761  24.889  0.00  0.00    +0.000 A 
ATOM     27  C   UNL     1       7.755   4.142  24.306  0.00  0.00    +0.000 A 
ATOM     28  C   UNL     1       7.970   2.973  25.073  0.00  0.00    +0.000 C 
ATOM     29  N   UNL     1       7.055   1.982  24.856  0.00  0.00    +0.000 N 
ATOM     30  C   UNL     1       6.674   1.846  23.582  0.00  0.00    +0.000 C 
BRANCH  21  34
ATOM     31  C   UNL     1       9.161  -0.708  21.857  0.00  0.00    +0.000 A 
ATOM     32  C   UNL     1       8.256  -0.345  20.694  0.00  0.00    +0.000 A 
ATOM     33  C   UNL     1       7.732   0.984  20.437  0.00  0.00    +0.000 A 
ATOM     34  C   UNL     1       8.162   2.013  21.517  0.00  0.00    +0.000 A 
ATOM     35  C   UNL     1       9.544   1.870  22.136  0.00  0.00    +0.000 A 
ATOM     36  C   UNL     1      10.014   0.389  22.310  0.00  0.00    +0.000 A 
ENDBRANCH  21  34
ENDBRANCH  20  29
ENDBRANCH   1  20
TORSDOF 6
ENDMDL
MODEL 4
REMARK VINA RESULT:      -8.1      2.237      4.282
REMARK  Name = 
REMARK  6 active torsions:
REMARK  status: ('A' for Active; 'I' for Inactive)
REMARK    1  A    between atoms: C_7  and  C_8
REMARK    2  A    between atoms: N_23  and  C_24
REMARK    3  A    between atoms: C_24  and  C_27
REMARK    4  A    between atoms: N_36  and  S_37
REMARK    5  A    between atoms: S_37  and  C_40
REMARK    6  A    between atoms: C_49  and  C_50
REMARK                            x       y       z     vdW  Elec       q    Type
REMARK                         _______ _______ _______ _____ _____    ______ ____
ROOT
ATOM      1  C   UNL     1       8.863  -3.345  23.803  0.00  0.00    +0.000 C 
ATOM      2  O   UNL     1      10.002  -3.153  24.204  0.00  0.00    +0.000 OA
ATOM      3  N   UNL     1       7.867  -3.575  24.695  0.00  0.00    +0.000 N 
ATOM      4  C   UNL     1       7.083  -4.810  24.605  0.00  0.00    +0.000 C 
ATOM      5  C   UNL     1       7.233  -5.575  25.967  0.00  0.00    +0.000 C 
ATOM      6  N   UNL     1       6.658  -4.849  27.011  0.00  0.00    +0.000 NA
ATOM      7  C   UNL     1       6.779  -3.478  26.905  0.00  0.00    +0.000 C 
ATOM      8  C   UNL     1       7.945  -2.994  26.021  0.00  0.00    +0.000 C 
ENDROOT
BRANCH   6   9
ATOM      9  S   UNL     1       5.394  -5.361  27.718  0.00  0.00    +0.000 S 
ATOM     10  O   UNL     1       5.313  -4.689  29.072  0.00  0.00    +0.000 OA
ATOM     11  O   UNL     1       5.657  -6.844  28.031  0.00  0.00    +0.000 OA
BRANCH   9  12
ATOM     12  C   UNL     1       3.739  -5.393  27.110  0.00  0.00    +0.000 A 
ATOM     13  C   UNL     1       3.545  -6.798  26.606  0.00  0.00    +0.000 A 
ATOM     14  C   UNL     1       3.331  -7.264  25.207  0.00  0.00    +0.000 A 
ATOM     15  C   UNL     1       3.410  -6.012  24.390  0.00  0.00    +0.000 A 
ATOM     16  C   UNL     1       3.356  -4.598  24.557  0.00  0.00    +0.000 A 
ATOM     17  C   UNL     1       3.510  -4.376  26.075  0.00  0.00    +0.000 A 
BRANCH  17  18
ATOM     18  C   UNL     1       2.394  -3.689  26.422  0.00  0.00    +0.000 C 
ATOM     19  N   UNL     1       2.321  -2.795  25.674  0.00  0.00    +0.000 NA
ENDBRANCH  17  18
ENDBRANCH   9  12
ENDBRANCH   6   9
BRANCH   1  20
ATOM     20  C   UNL     1       8.554  -2.897  22.293  0.00  0.00    +0.000 C 
BRANCH  20  29
ATOM     21  C   UNL     1       8.733   0.621  21.127  0.00  0.00    +0.000 C 
ATOM     22  C   UNL     1       7.132   0.759  21.263  0.00  0.00    +0.000 A 
ATOM     23  C   UNL     1       6.617   1.137  20.166  0.00  0.00    +0.000 A 
ATOM     24  C   UNL     1       6.179   0.638  18.745  0.00  0.00    +0.000 A 
ATOM     25  C   UNL     1       5.951  -0.831  19.192  0.00  0.00    +0.000 A 
ATOM     26  C   UNL     1       6.173  -1.657  20.325  0.00  0.00    +0.000 A 
ATOM     27  C   UNL     1       6.300  -0.545  21.445  0.00  0.00    +0.000 A 
ATOM     28  C   UNL     1       6.900  -1.209  22.540  0.00  0.00    +0.000 C 
ATOM     29  N   UNL     1       8.199  -1.580  22.330  0.00  0.00    +0.000 N 
ATOM     30  C   UNL     1       8.927  -0.690  21.648  0.00  0.00    +0.000 C 
BRANCH  21  34
ATOM     31  C   UNL     1       9.592   1.620  24.708  0.00  0.00    +0.000 A 
ATOM     32  C   UNL     1      10.625   1.985  23.658  0.00  0.00    +0.000 A 
ATOM     33  C   UNL     1      10.344   2.140  22.242  0.00  0.00    +0.000 A 
ATOM     34  C   UNL     1       8.861   1.848  21.893  0.00  0.00    +0.000 A 
ATOM     35  C   UNL     1       7.794   2.237  22.905  0.00  0.00    +0.000 A 
ATOM     36  C   UNL     1       8.240   2.075  24.395  0.00  0.00    +0.000 A 
ENDBRANCH  21  34
ENDBRANCH  20  29
ENDBRANCH   1  20
TORSDOF 6
ENDMDL
MODEL 5
REMARK VINA RESULT:      -8.1      3.197      8.446
REMARK  Name = 
REMARK  6 active torsions:
REMARK  status: ('A' for Active; 'I' for Inactive)
REMARK    1  A    between atoms: C_7  and  C_8
REMARK    2  A    between atoms: N_23  and  C_24
REMARK    3  A    between atoms: C_24  and  C_27
REMARK    4  A    between atoms: N_36  and  S_37
REMARK    5  A    between atoms: S_37  and  C_40
REMARK    6  A    between atoms: C_49  and  C_50
REMARK                            x       y       z     vdW  Elec       q    Type
REMARK                         _______ _______ _______ _____ _____    ______ ____
ROOT
ATOM      1  C   UNL     1       8.522  -4.138  26.627  0.00  0.00    +0.000 C 
ATOM      2  O   UNL     1       9.577  -4.753  26.698  0.00  0.00    +0.000 OA
ATOM      3  N   UNL     1       8.427  -3.062  25.807  0.00  0.00    +0.000 N 
ATOM      4  C   UNL     1       8.043  -1.760  26.359  0.00  0.00    +0.000 C 
ATOM      5  C   UNL     1       9.198  -0.745  26.043  0.00  0.00    +0.000 C 
ATOM      6  N   UNL     1       9.318  -0.541  24.668  0.00  0.00    +0.000 NA
ATOM      7  C   UNL     1       9.062  -1.650  23.888  0.00  0.00    +0.000 C 
ATOM      8  C   UNL     1       9.236  -3.003  24.605  0.00  0.00    +0.000 C 
ENDROOT
BRANCH   6   9
ATOM      9  S   UNL     1       8.961   0.817  24.043  0.00  0.00    +0.000 S 
ATOM     10  O   UNL     1       9.844   1.869  24.680  0.00  0.00    +0.000 OA
ATOM     11  O   UNL     1       7.541   1.148  24.536  0.00  0.00    +0.000 OA
BRANCH   9  12
ATOM     12  C   UNL     1       8.878   1.247  22.336  0.00  0.00    +0.000 A 
ATOM     13  C   UNL     1       8.555   2.718  22.328  0.00  0.00    +0.000 A 
ATOM     14  C   UNL     1       7.319   3.397  21.847  0.00  0.00    +0.000 A 
ATOM     15  C   UNL     1       6.428   2.273  21.417  0.00  0.00    +0.000 A 
ATOM     16  C   UNL     1       6.505   0.886  21.098  0.00  0.00    +0.000 A 
ATOM     17  C   UNL     1       7.888   0.439  21.610  0.00  0.00    +0.000 A 
BRANCH  17  18
ATOM     18  C   UNL     1       8.502  -0.060  20.509  0.00  0.00    +0.000 C 
ATOM     19  N   UNL     1       7.767   0.124  19.620  0.00  0.00    +0.000 NA
ENDBRANCH  17  18
ENDBRANCH   9  12
ENDBRANCH   6   9
BRANCH   1  20
ATOM     20  C   UNL     1       7.218  -4.892  27.183  0.00  0.00    +0.000 C 
BRANCH  20  29
ATOM     21  C   UNL     1       5.065  -6.073  24.402  0.00  0.00    +0.000 C 
ATOM     22  C   UNL     1       3.792  -5.330  25.057  0.00  0.00    +0.000 A 
ATOM     23  C   UNL     1       2.837  -6.146  25.238  0.00  0.00    +0.000 A 
ATOM     24  C   UNL     1       2.317  -7.282  26.188  0.00  0.00    +0.000 A 
ATOM     25  C   UNL     1       3.085  -6.766  27.433  0.00  0.00    +0.000 A 
ATOM     26  C   UNL     1       4.069  -5.798  27.766  0.00  0.00    +0.000 A 
ATOM     27  C   UNL     1       3.917  -4.827  26.525  0.00  0.00    +0.000 A 
ATOM     28  C   UNL     1       5.094  -4.042  26.541  0.00  0.00    +0.000 C 
ATOM     29  N   UNL     1       6.236  -4.734  26.248  0.00  0.00    +0.000 N 
ATOM     30  C   UNL     1       6.097  -5.655  25.289  0.00  0.00    +0.000 C 
BRANCH  21  34
ATOM     31  C   UNL     1       6.789  -3.773  21.892  0.00  0.00    +0.000 A 
ATOM     32  C   UNL     1       6.528  -5.191  21.415  0.00  0.00    +0.000 A 
ATOM     33  C   UNL     1       5.516  -6.075  21.964  0.00  0.00    +0.000 A 
ATOM     34  C   UNL     1       4.738  -5.430  23.142  0.00  0.00    +0.000 A 
ATOM     35  C   UNL     1       4.464  -3.935  23.090  0.00  0.00    +0.000 A 
ATOM     36  C   UNL     1       5.608  -3.100  22.427  0.00  0.00    +0.000 A 
ENDBRANCH  21  34
ENDBRANCH  20  29
ENDBRANCH   1  20
TORSDOF 6
ENDMDL
MODEL 6
REMARK VINA RESULT:      -8.1      3.556      8.613
REMARK  Name = 
REMARK  6 active torsions:
REMARK  status: ('A' for Active; 'I' for Inactive)
REMARK    1  A    between atoms: C_7  and  C_8
REMARK    2  A    between atoms: N_23  and  C_24
REMARK    3  A    between atoms: C_24  and  C_27
REMARK    4  A    between atoms: N_36  and  S_37
REMARK    5  A    between atoms: S_37  and  C_40
REMARK    6  A    between atoms: C_49  and  C_50
REMARK                            x       y       z     vdW  Elec       q    Type
REMARK                         _______ _______ _______ _____ _____    ______ ____
ROOT
ATOM      1  C   UNL     1       5.135  -0.820  26.985  0.00  0.00    +0.000 C 
ATOM      2  O   UNL     1       5.033  -0.432  28.141  0.00  0.00    +0.000 OA
ATOM      3  N   UNL     1       6.294  -0.617  26.310  0.00  0.00    +0.000 N 
ATOM      4  C   UNL     1       6.277   0.127  25.048  0.00  0.00    +0.000 C 
ATOM      5  C   UNL     1       7.225   1.367  25.208  0.00  0.00    +0.000 C 
ATOM      6  N   UNL     1       8.549   0.962  25.378  0.00  0.00    +0.000 NA
ATOM      7  C   UNL     1       8.715  -0.205  26.096  0.00  0.00    +0.000 C 
ATOM      8  C   UNL     1       7.547  -0.562  27.036  0.00  0.00    +0.000 C 
ENDROOT
BRANCH   6   9
ATOM      9  S   UNL     1       9.599   1.239  24.292  0.00  0.00    +0.000 S 
ATOM     10  O   UNL     1      10.948   0.810  24.828  0.00  0.00    +0.000 OA
ATOM     11  O   UNL     1       9.693   2.771  24.176  0.00  0.00    +0.000 OA
BRANCH   9  12
ATOM     12  C   UNL     1       9.584   0.734  22.602  0.00  0.00    +0.000 A 
ATOM     13  C   UNL     1       8.831   1.823  21.886  0.00  0.00    +0.000 A 
ATOM     14  C   UNL     1       7.510   1.746  21.201  0.00  0.00    +0.000 A 
ATOM     15  C   UNL     1       7.060   0.336  21.432  0.00  0.00    +0.000 A 
ATOM     16  C   UNL     1       7.592  -0.922  21.838  0.00  0.00    +0.000 A 
ATOM     17  C   UNL     1       8.978  -0.593  22.427  0.00  0.00    +0.000 A 
BRANCH  17  18
ATOM     18  C   UNL     1       9.836  -1.335  21.686  0.00  0.00    +0.000 C 
ATOM     19  N   UNL     1      10.632  -1.749  22.434  0.00  0.00    +0.000 NA
ENDBRANCH  17  18
ENDBRANCH   9  12
ENDBRANCH   6   9
BRANCH   1  20
ATOM     20  C   UNL     1       4.055  -1.904  26.499  0.00  0.00    +0.000 C 
BRANCH  20  29
ATOM     21  C   UNL     1       5.721  -5.207  26.213  0.00  0.00    +0.000 C 
ATOM     22  C   UNL     1       5.071  -5.421  24.752  0.00  0.00    +0.000 A 
ATOM     23  C   UNL     1       4.417  -6.508  24.704  0.00  0.00    +0.000 A 
ATOM     24  C   UNL     1       3.055  -7.176  25.108  0.00  0.00    +0.000 A 
ATOM     25  C   UNL     1       2.260  -5.843  25.115  0.00  0.00    +0.000 A 
ATOM     26  C   UNL     1       2.499  -4.446  25.020  0.00  0.00    +0.000 A 
ATOM     27  C   UNL     1       3.919  -4.467  24.320  0.00  0.00    +0.000 A 
ATOM     28  C   UNL     1       4.432  -3.163  24.520  0.00  0.00    +0.000 C 
ATOM     29  N   UNL     1       4.737  -2.872  25.820  0.00  0.00    +0.000 N 
ATOM     30  C   UNL     1       5.283  -3.884  26.503  0.00  0.00    +0.000 C 
BRANCH  21  34
ATOM     31  C   UNL     1       8.896  -3.381  25.145  0.00  0.00    +0.000 A 
ATOM     32  C   UNL     1       9.028  -4.268  26.370  0.00  0.00    +0.000 A 
ATOM     33  C   UNL     1       8.149  -5.381  26.683  0.00  0.00    +0.000 A 
ATOM     34  C   UNL     1       7.010  -5.551  25.642  0.00  0.00    +0.000 A 
ATOM     35  C   UNL     1       7.315  -5.237  24.186  0.00  0.00    +0.000 A 
ATOM     36  C   UNL     1       8.316  -4.053  23.985  0.00  0.00    +0.000 A 
ENDBRANCH  21  34
ENDBRANCH  20  29
ENDBRANCH   1  20
TORSDOF 6
ENDMDL
MODEL 7
REMARK VINA RESULT:      -7.8      2.116      3.450
REMARK  Name = 
REMARK  6 active torsions:
REMARK  status: ('A' for Active; 'I' for Inactive)
REMARK    1  A    between atoms: C_7  and  C_8
REMARK    2  A    between atoms: N_23  and  C_24
REMARK    3  A    between atoms: C_24  and  C_27
REMARK    4  A    between atoms: N_36  and  S_37
REMARK    5  A    between atoms: S_37  and  C_40
REMARK    6  A    between atoms: C_49  and  C_50
REMARK                            x       y       z     vdW  Elec       q    Type
REMARK                         _______ _______ _______ _____ _____    ______ ____
ROOT
ATOM      1  C   UNL     1       6.516  -2.442  21.762  0.00  0.00    +0.000 C 
ATOM      2  O   UNL     1       5.905  -2.289  20.713  0.00  0.00    +0.000 OA
ATOM      3  N   UNL     1       6.233  -3.506  22.554  0.00  0.00    +0.000 N 
ATOM      4  C   UNL     1       5.816  -3.287  23.941  0.00  0.00    +0.000 C 
ATOM      5  C   UNL     1       4.401  -3.941  24.127  0.00  0.00    +0.000 C 
ATOM      6  N   UNL     1       4.469  -5.326  23.977  0.00  0.00    +0.000 NA
ATOM      7  C   UNL     1       5.380  -5.767  23.039  0.00  0.00    +0.000 C 
ATOM      8  C   UNL     1       5.752  -4.736  21.956  0.00  0.00    +0.000 C 
ENDROOT
BRANCH   6   9
ATOM      9  S   UNL     1       4.232  -6.256  25.176  0.00  0.00    +0.000 S 
ATOM     10  O   UNL     1       4.083  -7.667  24.649  0.00  0.00    +0.000 OA
ATOM     11  O   UNL     1       2.840  -5.894  25.723  0.00  0.00    +0.000 OA
BRANCH   9  12
ATOM     12  C   UNL     1       5.189  -6.406  26.650  0.00  0.00    +0.000 A 
ATOM     13  C   UNL     1       4.228  -6.946  27.675  0.00  0.00    +0.000 A 
ATOM     14  C   UNL     1       3.708  -6.284  28.905  0.00  0.00    +0.000 A 
ATOM     15  C   UNL     1       4.319  -4.917  28.869  0.00  0.00    +0.000 A 
ATOM     16  C   UNL     1       5.372  -4.214  28.217  0.00  0.00    +0.000 A 
ATOM     17  C   UNL     1       5.793  -5.127  27.048  0.00  0.00    +0.000 A 
BRANCH  17  18
ATOM     18  C   UNL     1       7.112  -5.353  27.265  0.00  0.00    +0.000 C 
ATOM     19  N   UNL     1       7.549  -5.709  26.242  0.00  0.00    +0.000 NA
ENDBRANCH  17  18
ENDBRANCH   9  12
ENDBRANCH   6   9
BRANCH   1  20
ATOM     20  C   UNL     1       7.884  -1.616  21.917  0.00  0.00    +0.000 C 
BRANCH  20  29
ATOM     21  C   UNL     1       8.587   0.433  24.929  0.00  0.00    +0.000 C 
ATOM     22  C   UNL     1       8.263   1.780  24.102  0.00  0.00    +0.000 A 
ATOM     23  C   UNL     1       9.239   2.590  24.159  0.00  0.00    +0.000 A 
ATOM     24  C   UNL     1      10.659   2.891  23.563  0.00  0.00    +0.000 A 
ATOM     25  C   UNL     1      10.388   2.165  22.219  0.00  0.00    +0.000 A 
ATOM     26  C   UNL     1       9.404   1.330  21.626  0.00  0.00    +0.000 A 
ATOM     27  C   UNL     1       8.167   1.678  22.552  0.00  0.00    +0.000 A 
ATOM     28  C   UNL     1       7.240   0.636  22.312  0.00  0.00    +0.000 C 
ATOM     29  N   UNL     1       7.635  -0.586  22.777  0.00  0.00    +0.000 N 
ATOM     30  C   UNL     1       8.268  -0.555  23.955  0.00  0.00    +0.000 C 
BRANCH  21  34
ATOM     31  C   UNL     1       5.138  -0.487  26.278  0.00  0.00    +0.000 A 
ATOM     32  C   UNL     1       6.305  -0.770  27.207  0.00  0.00    +0.000 A 
ATOM     33  C   UNL     1       7.597  -0.111  27.136  0.00  0.00    +0.000 A 
ATOM     34  C   UNL     1       7.684   0.903  25.964  0.00  0.00    +0.000 A 
ATOM     35  C   UNL     1       6.433   1.686  25.596  0.00  0.00    +0.000 A 
ATOM     36  C   UNL     1       5.104   0.881  25.767  0.00  0.00    +0.000 A 
ENDBRANCH  21  34
ENDBRANCH  20  29
ENDBRANCH   1  20
TORSDOF 6
ENDMDL
MODEL 8
REMARK VINA RESULT:      -7.8      3.459      8.571
REMARK  Name = 
REMARK  6 active torsions:
REMARK  status: ('A' for Active; 'I' for Inactive)
REMARK    1  A    between atoms: C_7  and  C_8
REMARK    2  A    between atoms: N_23  and  C_24
REMARK    3  A    between atoms: C_24  and  C_27
REMARK    4  A    between atoms: N_36  and  S_37
REMARK    5  A    between atoms: S_37  and  C_40
REMARK    6  A    between atoms: C_49  and  C_50
REMARK                            x       y       z     vdW  Elec       q    Type
REMARK                         _______ _______ _______ _____ _____    ______ ____
ROOT
ATOM      1  C   UNL     1       8.442  -4.006  26.599  0.00  0.00    +0.000 C 
ATOM      2  O   UNL     1       9.455  -4.690  26.661  0.00  0.00    +0.000 OA
ATOM      3  N   UNL     1       8.397  -2.951  25.748  0.00  0.00    +0.000 N 
ATOM      4  C   UNL     1       8.118  -1.610  26.269  0.00  0.00    +0.000 C 
ATOM      5  C   UNL     1       9.328  -0.686  25.891  0.00  0.00    +0.000 C 
ATOM      6  N   UNL     1       9.422  -0.531  24.508  0.00  0.00    +0.000 NA
ATOM      7  C   UNL     1       9.070  -1.643  23.770  0.00  0.00    +0.000 C 
ATOM      8  C   UNL     1       9.173  -2.983  24.525  0.00  0.00    +0.000 C 
ENDROOT
BRANCH   6   9
ATOM      9  S   UNL     1       9.141   0.829  23.851  0.00  0.00    +0.000 S 
ATOM     10  O   UNL     1       9.053   0.615  22.355  0.00  0.00    +0.000 OA
ATOM     11  O   UNL     1      10.417   1.667  24.051  0.00  0.00    +0.000 OA
BRANCH   9  12
ATOM     12  C   UNL     1       7.867   1.986  24.234  0.00  0.00    +0.000 A 
ATOM     13  C   UNL     1       6.866   1.834  23.121  0.00  0.00    +0.000 A 
ATOM     14  C   UNL     1       6.487   2.818  22.068  0.00  0.00    +0.000 A 
ATOM     15  C   UNL     1       7.377   3.993  22.330  0.00  0.00    +0.000 A 
ATOM     16  C   UNL     1       8.210   4.518  23.359  0.00  0.00    +0.000 A 
ATOM     17  C   UNL     1       8.384   3.356  24.357  0.00  0.00    +0.000 A 
BRANCH  17  18
ATOM     18  C   UNL     1       7.925   3.857  25.530  0.00  0.00    +0.000 C 
ATOM     19  N   UNL     1       8.407   4.916  25.638  0.00  0.00    +0.000 NA
ENDBRANCH  17  18
ENDBRANCH   9  12
ENDBRANCH   6   9
BRANCH   1  20
ATOM     20  C   UNL     1       7.107  -4.652  27.213  0.00  0.00    +0.000 C 
BRANCH  20  29
ATOM     21  C   UNL     1       5.071  -6.030  24.433  0.00  0.00    +0.000 C 
ATOM     22  C   UNL     1       3.755  -5.309  25.025  0.00  0.00    +0.000 A 
ATOM     23  C   UNL     1       2.827  -6.154  25.218  0.00  0.00    +0.000 A 
ATOM     24  C   UNL     1       2.325  -7.269  26.202  0.00  0.00    +0.000 A 
ATOM     25  C   UNL     1       3.042  -6.672  27.443  0.00  0.00    +0.000 A 
ATOM     26  C   UNL     1       3.980  -5.653  27.758  0.00  0.00    +0.000 A 
ATOM     27  C   UNL     1       3.824  -4.741  26.473  0.00  0.00    +0.000 A 
ATOM     28  C   UNL     1       4.970  -3.912  26.484  0.00  0.00    +0.000 C 
ATOM     29  N   UNL     1       6.144  -4.571  26.249  0.00  0.00    +0.000 N 
ATOM     30  C   UNL     1       6.064  -5.535  25.326  0.00  0.00    +0.000 C 
BRANCH  21  34
ATOM     31  C   UNL     1       6.833  -3.911  21.793  0.00  0.00    +0.000 A 
ATOM     32  C   UNL     1       6.542  -5.348  21.397  0.00  0.00    +0.000 A 
ATOM     33  C   UNL     1       5.514  -6.179  21.998  0.00  0.00    +0.000 A 
ATOM     34  C   UNL     1       4.753  -5.453  23.140  0.00  0.00    +0.000 A 
ATOM     35  C   UNL     1       4.510  -3.958  23.004  0.00  0.00    +0.000 A 
ATOM     36  C   UNL     1       5.668  -3.185  22.292  0.00  0.00    +0.000 A 
ENDBRANCH  21  34
ENDBRANCH  20  29
ENDBRANCH   1  20
TORSDOF 6
ENDMDL
MODEL 9
REMARK VINA RESULT:      -7.7      2.997      8.310
REMARK  Name = 
REMARK  6 active torsions:
REMARK  status: ('A' for Active; 'I' for Inactive)
REMARK    1  A    between atoms: C_7  and  C_8
REMARK    2  A    between atoms: N_23  and  C_24
REMARK    3  A    between atoms: C_24  and  C_27
REMARK    4  A    between atoms: N_36  and  S_37
REMARK    5  A    between atoms: S_37  and  C_40
REMARK    6  A    between atoms: C_49  and  C_50
REMARK                            x       y       z     vdW  Elec       q    Type
REMARK                         _______ _______ _______ _____ _____    ______ ____
ROOT
ATOM      1  C   UNL     1       8.523  -4.815  25.484  0.00  0.00    +0.000 C 
ATOM      2  O   UNL     1       9.216  -5.746  25.094  0.00  0.00    +0.000 OA
ATOM      3  N   UNL     1       8.068  -3.900  24.593  0.00  0.00    +0.000 N 
ATOM      4  C   UNL     1       8.390  -2.483  24.781  0.00  0.00    +0.000 C 
ATOM      5  C   UNL     1       9.154  -1.991  23.501  0.00  0.00    +0.000 C 
ATOM      6  N   UNL     1       8.326  -2.034  22.379  0.00  0.00    +0.000 NA
ATOM      7  C   UNL     1       7.427  -3.081  22.358  0.00  0.00    +0.000 C 
ATOM      8  C   UNL     1       7.821  -4.296  23.221  0.00  0.00    +0.000 C 
ENDROOT
BRANCH   6   9
ATOM      9  S   UNL     1       7.867  -0.738  21.693  0.00  0.00    +0.000 S 
ATOM     10  O   UNL     1       6.607  -1.045  20.913  0.00  0.00    +0.000 OA
ATOM     11  O   UNL     1       8.927  -0.431  20.620  0.00  0.00    +0.000 OA
BRANCH   9  12
ATOM     12  C   UNL     1       7.596   0.846  22.418  0.00  0.00    +0.000 A 
ATOM     13  C   UNL     1       8.868   1.607  22.158  0.00  0.00    +0.000 A 
ATOM     14  C   UNL     1       9.876   2.099  23.139  0.00  0.00    +0.000 A 
ATOM     15  C   UNL     1       9.366   1.613  24.460  0.00  0.00    +0.000 A 
ATOM     16  C   UNL     1       8.171   1.105  25.044  0.00  0.00    +0.000 A 
ATOM     17  C   UNL     1       7.267   0.751  23.847  0.00  0.00    +0.000 A 
BRANCH  17  18
ATOM     18  C   UNL     1       6.145   1.483  24.053  0.00  0.00    +0.000 C 
ATOM     19  N   UNL     1       5.413   0.791  24.645  0.00  0.00    +0.000 NA
ENDBRANCH  17  18
ENDBRANCH   9  12
ENDBRANCH   6   9
BRANCH   1  20
ATOM     20  C   UNL     1       7.860  -4.980  26.937  0.00  0.00    +0.000 C 
BRANCH  20  29
ATOM     21  C   UNL     1       4.591  -6.651  26.402  0.00  0.00    +0.000 C 
ATOM     22  C   UNL     1       3.892  -5.646  27.453  0.00  0.00    +0.000 A 
ATOM     23  C   UNL     1       3.303  -6.293  28.372  0.00  0.00    +0.000 A 
ATOM     24  C   UNL     1       3.544  -7.084  29.707  0.00  0.00    +0.000 A 
ATOM     25  C   UNL     1       4.852  -6.330  30.065  0.00  0.00    +0.000 A 
ATOM     26  C   UNL     1       5.755  -5.403  29.480  0.00  0.00    +0.000 A 
ATOM     27  C   UNL     1       4.817  -4.786  28.364  0.00  0.00    +0.000 A 
ATOM     28  C   UNL     1       5.704  -4.137  27.472  0.00  0.00    +0.000 C 
ATOM     29  N   UNL     1       6.506  -4.985  26.761  0.00  0.00    +0.000 N 
ATOM     30  C   UNL     1       5.907  -6.110  26.358  0.00  0.00    +0.000 C 
BRANCH  21  34
ATOM     31  C   UNL     1       4.095  -4.367  23.386  0.00  0.00    +0.000 A 
ATOM     32  C   UNL     1       4.132  -5.855  23.086  0.00  0.00    +0.000 A 
ATOM     33  C   UNL     1       3.844  -6.900  24.051  0.00  0.00    +0.000 A 
ATOM     34  C   UNL     1       3.530  -6.338  25.462  0.00  0.00    +0.000 A 
ATOM     35  C   UNL     1       2.783  -5.016  25.559  0.00  0.00    +0.000 A 
ATOM     36  C   UNL     1       3.143  -3.996  24.430  0.00  0.00    +0.000 A 
ENDBRANCH  21  34
ENDBRANCH  20  29
ENDBRANCH   1  20
TORSDOF 6
ENDMDL
