MODEL 1
REMARK VINA RESULT:      -8.8      0.000      0.000
REMARK  Name = 
REMARK  3 active torsions:
REMARK  status: ('A' for Active; 'I' for Inactive)
REMARK    1  A    between atoms: C_7  and  C_8
REMARK    2  A    between atoms: N_10  and  C_12
REMARK    3  A    between atoms: C_33  and  C_35
REMARK                            x       y       z     vdW  Elec       q    Type
REMARK                         _______ _______ _______ _____ _____    ______ ____
ROOT
ATOM      1  C   UNL     1       9.357   0.818  22.758  0.00  0.00    +0.000 C 
ATOM      2  C   UNL     1       9.769   0.759  24.204  0.00  0.00    +0.000 C 
ATOM      3  C   UNL     1      10.394  -0.567  24.568  0.00  0.00    +0.000 C 
ATOM      4  N   UNL     1       9.588  -1.614  23.875  0.00  0.00    +0.000 N 
ATOM      5  C   UNL     1       9.498  -2.820  24.480  0.00  0.00    +0.000 C 
ATOM      6  O   UNL     1      10.376  -3.630  24.307  0.00  0.00    +0.000 OA
ATOM      7  N   UNL     1       8.250  -3.134  24.913  0.00  0.00    +0.000 N 
ATOM      8  C   UNL     1       7.771  -2.493  26.136  0.00  0.00    +0.000 C 
ATOM      9  C   UNL     1       6.256  -2.420  26.142  0.00  0.00    +0.000 C 
ATOM     10  C   UNL     1       5.607  -3.643  25.595  0.00  0.00    +0.000 C 
ATOM     11  C   UNL     1       6.548  -4.835  25.479  0.00  0.00    +0.000 C 
ATOM     12  C   UNL     1       7.789  -4.511  24.690  0.00  0.00    +0.000 C 
ATOM     13  C   UNL     1       9.879  -1.624  22.419  0.00  0.00    +0.000 C 
ATOM     14  C   UNL     1      10.044  -0.221  21.909  0.00  0.00    +0.000 C 
ENDROOT
BRANCH  11  15
ATOM     15  C   UNL     1       5.767  -5.945  24.804  0.00  0.00    +0.000 C 
ATOM     16  N   UNL     1       4.778  -5.288  23.873  0.00  0.00    +0.000 NA
ATOM     17  C   UNL     1       3.655  -6.114  23.721  0.00  0.00    +0.000 A 
ATOM     18  C   UNL     1       2.650  -4.963  23.555  0.00  0.00    +0.000 A 
ATOM     19  C   UNL     1       1.513  -4.606  24.445  0.00  0.00    +0.000 A 
ATOM     20  C   UNL     1       1.456  -5.690  25.468  0.00  0.00    +0.000 A 
ATOM     21  C   UNL     1       2.138  -6.874  25.827  0.00  0.00    +0.000 A 
ATOM     22  C   UNL     1       3.362  -6.930  24.893  0.00  0.00    +0.000 A 
ATOM     23  S   UNL     1       4.748  -6.861  26.004  0.00  0.00    +0.000 S 
ENDBRANCH  11  15
BRANCH   1  26
ATOM     24  C   UNL     1       7.339   0.023  21.658  0.00  0.00    +0.000 C 
ATOM     25  O   UNL     1       6.849  -1.011  21.801  0.00  0.00    +0.000 OA
ATOM     26  N   UNL     1       7.923   0.713  22.645  0.00  0.00    +0.000 N 
ATOM     27  H   UNL     1       7.323   1.302  23.074  0.00  0.00    +0.000 HD
BRANCH  24  31
ATOM     28  C   UNL     1       5.231   0.325  18.425  0.00  0.00    +0.000 A 
ATOM     29  C   UNL     1       6.661  -0.137  18.404  0.00  0.00    +0.000 A 
ATOM     30  C   UNL     1       7.743   0.250  19.308  0.00  0.00    +0.000 A 
ATOM     31  C   UNL     1       7.163   1.003  20.544  0.00  0.00    +0.000 A 
ATOM     32  C   UNL     1       5.911   1.791  20.516  0.00  0.00    +0.000 A 
ATOM     33  C   UNL     1       4.982   1.470  19.308  0.00  0.00    +0.000 A 
ENDBRANCH  24  31
ENDBRANCH   1  26
TORSDOF 3
ENDMDL
MODEL 2
REMARK VINA RESULT:      -8.7      1.529      2.120
REMARK  Name = 
REMARK  3 active torsions:
REMARK  status: ('A' for Active; 'I' for Inactive)
REMARK    1  A    between atoms: C_7  and  C_8
REMARK    2  A    between atoms: N_10  and  C_12
REMARK    3  A    between atoms: C_33  and  C_35
REMARK                            x       y       z     vdW  Elec       q    Type
REMARK                         _______ _______ _______ _____ _____    ______ ____
ROOT
ATOM      1  C   UNL     1       9.134  -0.264  23.016  0.00  0.00    +0.000 C 
ATOM      2  C   UNL     1       9.284   0.437  24.340  0.00  0.00    +0.000 C 
ATOM      3  C   UNL     1       9.557  -0.526  25.470  0.00  0.00    +0.000 C 
ATOM      4  N   UNL     1       8.677  -1.708  25.235  0.00  0.00    +0.000 N 
ATOM      5  C   UNL     1       8.245  -2.379  26.327  0.00  0.00    +0.000 C 
ATOM      6  O   UNL     1       8.955  -3.225  26.816  0.00  0.00    +0.000 OA
ATOM      7  N   UNL     1       6.906  -2.299  26.536  0.00  0.00    +0.000 N 
ATOM      8  C   UNL     1       6.376  -1.058  27.098  0.00  0.00    +0.000 C 
ATOM      9  C   UNL     1       4.927  -0.864  26.690  0.00  0.00    +0.000 C 
ATOM     10  C   UNL     1       4.140  -2.128  26.704  0.00  0.00    +0.000 C 
ATOM     11  C   UNL     1       4.823  -3.267  27.450  0.00  0.00    +0.000 C 
ATOM     12  C   UNL     1       6.216  -3.531  26.941  0.00  0.00    +0.000 C 
ATOM     13  C   UNL     1       9.193  -2.533  24.114  0.00  0.00    +0.000 C 
ATOM     14  C   UNL     1       9.722  -1.652  23.018  0.00  0.00    +0.000 C 
ENDROOT
BRANCH  11  15
ATOM     15  C   UNL     1       3.952  -4.494  27.268  0.00  0.00    +0.000 C 
ATOM     16  N   UNL     1       4.759  -5.497  26.479  0.00  0.00    +0.000 NA
ATOM     17  C   UNL     1       3.894  -6.319  25.742  0.00  0.00    +0.000 A 
ATOM     18  C   UNL     1       4.856  -6.516  24.558  0.00  0.00    +0.000 A 
ATOM     19  C   UNL     1       4.668  -6.085  23.148  0.00  0.00    +0.000 A 
ATOM     20  C   UNL     1       3.280  -5.544  23.080  0.00  0.00    +0.000 A 
ATOM     21  C   UNL     1       2.166  -5.318  23.919  0.00  0.00    +0.000 A 
ATOM     22  C   UNL     1       2.658  -5.662  25.338  0.00  0.00    +0.000 A 
ATOM     23  S   UNL     1       2.504  -4.129  26.225  0.00  0.00    +0.000 S 
ENDBRANCH  11  15
BRANCH   1  26
ATOM     24  C   UNL     1       7.360  -0.735  21.420  0.00  0.00    +0.000 C 
ATOM     25  O   UNL     1       6.857  -1.757  21.244  0.00  0.00    +0.000 OA
ATOM     26  N   UNL     1       7.747  -0.291  22.622  0.00  0.00    +0.000 N 
ATOM     27  H   UNL     1       7.074   0.214  23.051  0.00  0.00    +0.000 HD
BRANCH  24  31
ATOM     28  C   UNL     1       5.205   0.772  18.579  0.00  0.00    +0.000 A 
ATOM     29  C   UNL     1       6.442  -0.034  18.299  0.00  0.00    +0.000 A 
ATOM     30  C   UNL     1       7.649  -0.140  19.117  0.00  0.00    +0.000 A 
ATOM     31  C   UNL     1       7.391   0.466  20.531  0.00  0.00    +0.000 A 
ATOM     32  C   UNL     1       6.413   1.543  20.799  0.00  0.00    +0.000 A 
ATOM     33  C   UNL     1       5.350   1.734  19.677  0.00  0.00    +0.000 A 
ENDBRANCH  24  31
ENDBRANCH   1  26
TORSDOF 3
ENDMDL
MODEL 3
REMARK VINA RESULT:      -8.6      2.269      3.148
REMARK  Name = 
REMARK  3 active torsions:
REMARK  status: ('A' for Active; 'I' for Inactive)
REMARK    1  A    between atoms: C_7  and  C_8
REMARK    2  A    between atoms: N_10  and  C_12
REMARK    3  A    between atoms: C_33  and  C_35
REMARK                            x       y       z     vdW  Elec       q    Type
REMARK                         _______ _______ _______ _____ _____    ______ ____
ROOT
ATOM      1  C   UNL     1       8.802   0.901  21.517  0.00  0.00    +0.000 C 
ATOM      2  C   UNL     1       9.804   1.165  22.609  0.00  0.00    +0.000 C 
ATOM      3  C   UNL     1      10.466  -0.102  23.097  0.00  0.00    +0.000 C 
ATOM      4  N   UNL     1       9.392  -1.135  23.168  0.00  0.00    +0.000 N 
ATOM      5  C   UNL     1       9.523  -2.094  24.112  0.00  0.00    +0.000 C 
ATOM      6  O   UNL     1      10.200  -3.065  23.873  0.00  0.00    +0.000 OA
ATOM      7  N   UNL     1       8.580  -2.048  25.087  0.00  0.00    +0.000 N 
ATOM      8  C   UNL     1       8.715  -1.022  26.120  0.00  0.00    +0.000 C 
ATOM      9  C   UNL     1       7.361  -0.678  26.711  0.00  0.00    +0.000 C 
ATOM     10  C   UNL     1       6.485  -1.868  26.900  0.00  0.00    +0.000 C 
ATOM     11  C   UNL     1       7.226  -3.195  26.808  0.00  0.00    +0.000 C 
ATOM     12  C   UNL     1       8.008  -3.327  25.528  0.00  0.00    +0.000 C 
ATOM     13  C   UNL     1       9.014  -1.594  21.808  0.00  0.00    +0.000 C 
ATOM     14  C   UNL     1       9.000  -0.437  20.851  0.00  0.00    +0.000 C 
ENDROOT
BRANCH  11  15
ATOM     15  C   UNL     1       6.179  -4.288  26.904  0.00  0.00    +0.000 C 
ATOM     16  N   UNL     1       6.442  -5.252  25.773  0.00  0.00    +0.000 NA
ATOM     17  C   UNL     1       5.241  -5.872  25.396  0.00  0.00    +0.000 A 
ATOM     18  C   UNL     1       5.608  -6.005  23.908  0.00  0.00    +0.000 A 
ATOM     19  C   UNL     1       4.941  -5.368  22.743  0.00  0.00    +0.000 A 
ATOM     20  C   UNL     1       3.740  -4.681  23.300  0.00  0.00    +0.000 A 
ATOM     21  C   UNL     1       3.102  -4.456  24.540  0.00  0.00    +0.000 A 
ATOM     22  C   UNL     1       4.061  -5.039  25.595  0.00  0.00    +0.000 A 
ATOM     23  S   UNL     1       4.509  -3.634  26.587  0.00  0.00    +0.000 S 
ENDBRANCH  11  15
BRANCH   1  26
ATOM     24  C   UNL     1       6.733   2.137  21.845  0.00  0.00    +0.000 C 
ATOM     25  O   UNL     1       5.861   2.213  21.096  0.00  0.00    +0.000 OA
ATOM     26  N   UNL     1       7.461   1.029  22.031  0.00  0.00    +0.000 N 
ATOM     27  H   UNL     1       7.113   0.483  22.719  0.00  0.00    +0.000 HD
BRANCH  24  31
ATOM     28  C   UNL     1       5.074   5.062  23.762  0.00  0.00    +0.000 A 
ATOM     29  C   UNL     1       6.122   5.292  22.709  0.00  0.00    +0.000 A 
ATOM     30  C   UNL     1       7.242   4.422  22.352  0.00  0.00    +0.000 A 
ATOM     31  C   UNL     1       7.058   3.018  23.007  0.00  0.00    +0.000 A 
ATOM     32  C   UNL     1       6.322   2.789  24.269  0.00  0.00    +0.000 A 
ATOM     33  C   UNL     1       5.373   3.955  24.676  0.00  0.00    +0.000 A 
ENDBRANCH  24  31
ENDBRANCH   1  26
TORSDOF 3
ENDMDL
MODEL 4
REMARK VINA RESULT:      -8.3      2.666      3.824
REMARK  Name = 
REMARK  3 active torsions:
REMARK  status: ('A' for Active; 'I' for Inactive)
REMARK    1  A    between atoms: C_7  and  C_8
REMARK    2  A    between atoms: N_10  and  C_12
REMARK    3  A    between atoms: C_33  and  C_35
REMARK                            x       y       z     vdW  Elec       q    Type
REMARK                         _______ _______ _______ _____ _____    ______ ____
ROOT
ATOM      1  C   UNL     1       7.730   1.775  21.261  0.00  0.00    +0.000 C 
ATOM      2  C   UNL     1       8.964   2.119  22.050  0.00  0.00    +0.000 C 
ATOM      3  C   UNL     1       9.926   0.958  22.145  0.00  0.00    +0.000 C 
ATOM      4  N   UNL     1       9.092  -0.259  22.367  0.00  0.00    +0.000 N 
ATOM      5  C   UNL     1       9.647  -1.259  23.088  0.00  0.00    +0.000 C 
ATOM      6  O   UNL     1      10.357  -2.061  22.531  0.00  0.00    +0.000 OA
ATOM      7  N   UNL     1       9.048  -1.480  24.287  0.00  0.00    +0.000 N 
ATOM      8  C   UNL     1       9.335  -0.547  25.375  0.00  0.00    +0.000 C 
ATOM      9  C   UNL     1       8.189  -0.517  26.368  0.00  0.00    +0.000 C 
ATOM     10  C   UNL     1       7.601  -1.861  26.625  0.00  0.00    +0.000 C 
ATOM     11  C   UNL     1       8.470  -3.013  26.137  0.00  0.00    +0.000 C 
ATOM     12  C   UNL     1       8.836  -2.879  24.683  0.00  0.00    +0.000 C 
ATOM     13  C   UNL     1       8.393  -0.653  21.119  0.00  0.00    +0.000 C 
ATOM     14  C   UNL     1       7.915   0.565  20.381  0.00  0.00    +0.000 C 
ENDROOT
BRANCH  11  15
ATOM     15  C   UNL     1       7.679  -4.286  26.368  0.00  0.00    +0.000 C 
ATOM     16  N   UNL     1       7.302  -4.825  25.010  0.00  0.00    +0.000 NA
ATOM     17  C   UNL     1       6.109  -5.557  25.109  0.00  0.00    +0.000 A 
ATOM     18  C   UNL     1       5.601  -5.196  23.704  0.00  0.00    +0.000 A 
ATOM     19  C   UNL     1       4.385  -4.420  23.343  0.00  0.00    +0.000 A 
ATOM     20  C   UNL     1       3.671  -4.182  24.631  0.00  0.00    +0.000 A 
ATOM     21  C   UNL     1       3.815  -4.445  26.011  0.00  0.00    +0.000 A 
ATOM     22  C   UNL     1       5.211  -5.079  26.154  0.00  0.00    +0.000 A 
ATOM     23  S   UNL     1       6.093  -3.939  27.194  0.00  0.00    +0.000 S 
ENDBRANCH  11  15
BRANCH   1  26
ATOM     24  C   UNL     1       5.907   2.644  22.616  0.00  0.00    +0.000 C 
ATOM     25  O   UNL     1       4.858   2.937  22.238  0.00  0.00    +0.000 OA
ATOM     26  N   UNL     1       6.605   1.603  22.147  0.00  0.00    +0.000 N 
ATOM     27  H   UNL     1       6.449   0.814  22.642  0.00  0.00    +0.000 HD
BRANCH  24  31
ATOM     28  C   UNL     1       5.054   4.606  25.842  0.00  0.00    +0.000 A 
ATOM     29  C   UNL     1       5.799   5.237  24.700  0.00  0.00    +0.000 A 
ATOM     30  C   UNL     1       6.711   4.591  23.757  0.00  0.00    +0.000 A 
ATOM     31  C   UNL     1       6.598   3.040  23.880  0.00  0.00    +0.000 A 
ATOM     32  C   UNL     1       6.208   2.340  25.124  0.00  0.00    +0.000 A 
ATOM     33  C   UNL     1       5.497   3.247  26.172  0.00  0.00    +0.000 A 
ENDBRANCH  24  31
ENDBRANCH   1  26
TORSDOF 3
ENDMDL
MODEL 5
REMARK VINA RESULT:      -8.1      3.129      7.724
REMARK  Name = 
REMARK  3 active torsions:
REMARK  status: ('A' for Active; 'I' for Inactive)
REMARK    1  A    between atoms: C_7  and  C_8
REMARK    2  A    between atoms: N_10  and  C_12
REMARK    3  A    between atoms: C_33  and  C_35
REMARK                            x       y       z     vdW  Elec       q    Type
REMARK                         _______ _______ _______ _____ _____    ______ ____
ROOT
ATOM      1  C   UNL     1       7.594  -4.097  25.300  0.00  0.00    +0.000 C 
ATOM      2  C   UNL     1       8.642  -4.303  24.239  0.00  0.00    +0.000 C 
ATOM      3  C   UNL     1       9.711  -3.238  24.276  0.00  0.00    +0.000 C 
ATOM      4  N   UNL     1       9.008  -1.947  24.529  0.00  0.00    +0.000 N 
ATOM      5  C   UNL     1       9.563  -0.832  24.003  0.00  0.00    +0.000 C 
ATOM      6  O   UNL     1      10.443  -0.271  24.611  0.00  0.00    +0.000 OA
ATOM      7  N   UNL     1       8.819  -0.245  23.031  0.00  0.00    +0.000 N 
ATOM      8  C   UNL     1       8.820  -0.861  21.706  0.00  0.00    +0.000 C 
ATOM      9  C   UNL     1       7.539  -0.528  20.963  0.00  0.00    +0.000 C 
ATOM     10  C   UNL     1       7.087   0.875  21.173  0.00  0.00    +0.000 C 
ATOM     11  C   UNL     1       8.154   1.778  21.776  0.00  0.00    +0.000 C 
ATOM     12  C   UNL     1       8.721   1.221  23.055  0.00  0.00    +0.000 C 
ATOM     13  C   UNL     1       8.562  -1.860  25.942  0.00  0.00    +0.000 C 
ATOM     14  C   UNL     1       8.059  -3.193  26.415  0.00  0.00    +0.000 C 
ENDROOT
BRANCH  11  15
ATOM     15  C   UNL     1       7.498   3.122  22.029  0.00  0.00    +0.000 C 
ATOM     16  N   UNL     1       8.237   3.765  23.177  0.00  0.00    +0.000 NA
ATOM     17  C   UNL     1       7.371   4.624  23.870  0.00  0.00    +0.000 A 
ATOM     18  C   UNL     1       8.010   4.393  25.249  0.00  0.00    +0.000 A 
ATOM     19  C   UNL     1       7.389   3.782  26.453  0.00  0.00    +0.000 A 
ATOM     20  C   UNL     1       5.957   3.566  26.094  0.00  0.00    +0.000 A 
ATOM     21  C   UNL     1       5.078   3.745  25.002  0.00  0.00    +0.000 A 
ATOM     22  C   UNL     1       5.975   4.205  23.838  0.00  0.00    +0.000 A 
ATOM     23  S   UNL     1       5.788   2.921  22.622  0.00  0.00    +0.000 S 
ENDBRANCH  11  15
BRANCH   1  26
ATOM     24  C   UNL     1       5.173  -4.064  25.071  0.00  0.00    +0.000 C 
ATOM     25  O   UNL     1       4.435  -3.478  25.735  0.00  0.00    +0.000 OA
ATOM     26  N   UNL     1       6.376  -3.602  24.707  0.00  0.00    +0.000 N 
ATOM     27  H   UNL     1       6.349  -3.138  23.886  0.00  0.00    +0.000 HD
BRANCH  24  31
ATOM     28  C   UNL     1       2.321  -6.605  24.444  0.00  0.00    +0.000 A 
ATOM     29  C   UNL     1       3.516  -6.941  25.290  0.00  0.00    +0.000 A 
ATOM     30  C   UNL     1       4.883  -6.440  25.153  0.00  0.00    +0.000 A 
ATOM     31  C   UNL     1       4.913  -5.229  24.172  0.00  0.00    +0.000 A 
ATOM     32  C   UNL     1       3.946  -5.040  23.068  0.00  0.00    +0.000 A 
ATOM     33  C   UNL     1       2.643  -5.881  23.209  0.00  0.00    +0.000 A 
ENDBRANCH  24  31
ENDBRANCH   1  26
TORSDOF 3
ENDMDL
MODEL 6
REMARK VINA RESULT:      -8.1      2.455      3.676
REMARK  Name = 
REMARK  3 active torsions:
REMARK  status: ('A' for Active; 'I' for Inactive)
REMARK    1  A    between atoms: C_7  and  C_8
REMARK    2  A    between atoms: N_10  and  C_12
REMARK    3  A    between atoms: C_33  and  C_35
REMARK                            x       y       z     vdW  Elec       q    Type
REMARK                         _______ _______ _______ _____ _____    ______ ____
ROOT
ATOM      1  C   UNL     1       8.876   1.041  21.535  0.00  0.00    +0.000 C 
ATOM      2  C   UNL     1      10.050   0.240  22.031  0.00  0.00    +0.000 C 
ATOM      3  C   UNL     1       9.813  -1.248  21.924  0.00  0.00    +0.000 C 
ATOM      4  N   UNL     1       8.398  -1.479  22.336  0.00  0.00    +0.000 N 
ATOM      5  C   UNL     1       8.116  -2.661  22.927  0.00  0.00    +0.000 C 
ATOM      6  O   UNL     1       7.888  -3.624  22.235  0.00  0.00    +0.000 OA
ATOM      7  N   UNL     1       7.748  -2.559  24.230  0.00  0.00    +0.000 N 
ATOM      8  C   UNL     1       8.797  -2.323  25.219  0.00  0.00    +0.000 C 
ATOM      9  C   UNL     1       8.232  -1.621  26.440  0.00  0.00    +0.000 C 
ATOM     10  C   UNL     1       6.885  -2.120  26.832  0.00  0.00    +0.000 C 
ATOM     11  C   UNL     1       6.508  -3.442  26.177  0.00  0.00    +0.000 C 
ATOM     12  C   UNL     1       6.623  -3.392  24.676  0.00  0.00    +0.000 C 
ATOM     13  C   UNL     1       7.462  -1.030  21.275  0.00  0.00    +0.000 C 
ATOM     14  C   UNL     1       7.954   0.243  20.648  0.00  0.00    +0.000 C 
ENDROOT
BRANCH  11  15
ATOM     15  C   UNL     1       5.080  -3.742  26.588  0.00  0.00    +0.000 C 
ATOM     16  N   UNL     1       4.934  -5.244  26.619  0.00  0.00    +0.000 NA
ATOM     17  C   UNL     1       3.602  -5.592  26.351  0.00  0.00    +0.000 A 
ATOM     18  C   UNL     1       3.939  -6.910  25.632  0.00  0.00    +0.000 A 
ATOM     19  C   UNL     1       3.682  -7.267  24.212  0.00  0.00    +0.000 A 
ATOM     20  C   UNL     1       2.893  -6.131  23.655  0.00  0.00    +0.000 A 
ATOM     21  C   UNL     1       2.367  -4.882  24.053  0.00  0.00    +0.000 A 
ATOM     22  C   UNL     1       2.912  -4.654  25.475  0.00  0.00    +0.000 A 
ATOM     23  S   UNL     1       3.896  -3.180  25.323  0.00  0.00    +0.000 S 
ENDBRANCH  11  15
BRANCH   1  26
ATOM     24  C   UNL     1       7.316   2.641  22.495  0.00  0.00    +0.000 C 
ATOM     25  O   UNL     1       6.167   2.541  22.519  0.00  0.00    +0.000 OA
ATOM     26  N   UNL     1       8.157   1.611  22.648  0.00  0.00    +0.000 N 
ATOM     27  H   UNL     1       8.407   1.484  23.549  0.00  0.00    +0.000 HD
BRANCH  24  31
ATOM     28  C   UNL     1       7.563   5.629  24.944  0.00  0.00    +0.000 A 
ATOM     29  C   UNL     1       6.858   5.738  23.622  0.00  0.00    +0.000 A 
ATOM     30  C   UNL     1       7.161   5.029  22.380  0.00  0.00    +0.000 A 
ATOM     31  C   UNL     1       8.159   3.863  22.661  0.00  0.00    +0.000 A 
ATOM     32  C   UNL     1       9.145   3.871  23.764  0.00  0.00    +0.000 A 
ATOM     33  C   UNL     1       8.839   4.906  24.886  0.00  0.00    +0.000 A 
ENDBRANCH  24  31
ENDBRANCH   1  26
TORSDOF 3
ENDMDL
MODEL 7
REMARK VINA RESULT:      -8.0      2.067      3.258
REMARK  Name = 
REMARK  3 active torsions:
REMARK  status: ('A' for Active; 'I' for Inactive)
REMARK    1  A    between atoms: C_7  and  C_8
REMARK    2  A    between atoms: N_10  and  C_12
REMARK    3  A    between atoms: C_33  and  C_35
REMARK                            x       y       z     vdW  Elec       q    Type
REMARK                         _______ _______ _______ _____ _____    ______ ____
ROOT
ATOM      1  C   UNL     1       8.121   0.289  22.640  0.00  0.00    +0.000 C 
ATOM      2  C   UNL     1       9.381  -0.535  22.664  0.00  0.00    +0.000 C 
ATOM      3  C   UNL     1       9.160  -1.935  22.141  0.00  0.00    +0.000 C 
ATOM      4  N   UNL     1       7.846  -2.384  22.687  0.00  0.00    +0.000 N 
ATOM      5  C   UNL     1       7.698  -3.707  22.920  0.00  0.00    +0.000 C 
ATOM      6  O   UNL     1       7.370  -4.431  22.011  0.00  0.00    +0.000 OA
ATOM      7  N   UNL     1       7.566  -4.030  24.232  0.00  0.00    +0.000 N 
ATOM      8  C   UNL     1       8.771  -4.026  25.061  0.00  0.00    +0.000 C 
ATOM      9  C   UNL     1       8.418  -3.768  26.514  0.00  0.00    +0.000 C 
ATOM     10  C   UNL     1       7.173  -4.462  26.947  0.00  0.00    +0.000 C 
ATOM     11  C   UNL     1       6.712  -5.549  25.985  0.00  0.00    +0.000 C 
ATOM     12  C   UNL     1       6.557  -5.040  24.576  0.00  0.00    +0.000 C 
ATOM     13  C   UNL     1       6.727  -1.707  21.986  0.00  0.00    +0.000 C 
ATOM     14  C   UNL     1       7.073  -0.271  21.712  0.00  0.00    +0.000 C 
ENDROOT
BRANCH  11  15
ATOM     15  C   UNL     1       5.387  -6.064  26.510  0.00  0.00    +0.000 C 
ATOM     16  N   UNL     1       4.793  -6.938  25.432  0.00  0.00    +0.000 NA
ATOM     17  C   UNL     1       3.394  -6.920  25.531  0.00  0.00    +0.000 A 
ATOM     18  C   UNL     1       3.140  -7.067  24.022  0.00  0.00    +0.000 A 
ATOM     19  C   UNL     1       2.483  -6.097  23.107  0.00  0.00    +0.000 A 
ATOM     20  C   UNL     1       1.984  -5.000  23.985  0.00  0.00    +0.000 A 
ATOM     21  C   UNL     1       1.971  -4.627  25.348  0.00  0.00    +0.000 A 
ATOM     22  C   UNL     1       2.856  -5.670  26.055  0.00  0.00    +0.000 A 
ATOM     23  S   UNL     1       4.190  -4.708  26.731  0.00  0.00    +0.000 S 
ENDBRANCH  11  15
BRANCH   1  26
ATOM     24  C   UNL     1       6.357   0.877  24.207  0.00  0.00    +0.000 C 
ATOM     25  O   UNL     1       5.489   0.196  24.541  0.00  0.00    +0.000 OA
ATOM     26  N   UNL     1       7.601   0.441  23.976  0.00  0.00    +0.000 N 
ATOM     27  H   UNL     1       8.148   0.495  24.744  0.00  0.00    +0.000 HD
BRANCH  24  31
ATOM     28  C   UNL     1       9.020   3.581  23.440  0.00  0.00    +0.000 A 
ATOM     29  C   UNL     1       8.784   3.067  24.832  0.00  0.00    +0.000 A 
ATOM     30  C   UNL     1       7.531   2.583  25.411  0.00  0.00    +0.000 A 
ATOM     31  C   UNL     1       6.472   2.365  24.287  0.00  0.00    +0.000 A 
ATOM     32  C   UNL     1       6.451   3.124  23.017  0.00  0.00    +0.000 A 
ATOM     33  C   UNL     1       7.792   3.840  22.679  0.00  0.00    +0.000 A 
ENDBRANCH  24  31
ENDBRANCH   1  26
TORSDOF 3
ENDMDL
MODEL 8
REMARK VINA RESULT:      -8.0      2.299      3.253
REMARK  Name = 
REMARK  3 active torsions:
REMARK  status: ('A' for Active; 'I' for Inactive)
REMARK    1  A    between atoms: C_7  and  C_8
REMARK    2  A    between atoms: N_10  and  C_12
REMARK    3  A    between atoms: C_33  and  C_35
REMARK                            x       y       z     vdW  Elec       q    Type
REMARK                         _______ _______ _______ _____ _____    ______ ____
ROOT
ATOM      1  C   UNL     1       9.392   2.170  23.030  0.00  0.00    +0.000 C 
ATOM      2  C   UNL     1      10.239   1.759  24.204  0.00  0.00    +0.000 C 
ATOM      3  C   UNL     1      10.830   0.380  24.030  0.00  0.00    +0.000 C 
ATOM      4  N   UNL     1       9.757  -0.463  23.426  0.00  0.00    +0.000 N 
ATOM      5  C   UNL     1       9.761  -1.778  23.738  0.00  0.00    +0.000 C 
ATOM      6  O   UNL     1      10.464  -2.529  23.105  0.00  0.00    +0.000 OA
ATOM      7  N   UNL     1       8.696  -2.179  24.477  0.00  0.00    +0.000 N 
ATOM      8  C   UNL     1       8.691  -1.850  25.902  0.00  0.00    +0.000 C 
ATOM      9  C   UNL     1       7.270  -1.769  26.426  0.00  0.00    +0.000 C 
ATOM     10  C   UNL     1       6.377  -2.819  25.864  0.00  0.00    +0.000 C 
ATOM     11  C   UNL     1       7.124  -3.954  25.176  0.00  0.00    +0.000 C 
ATOM     12  C   UNL     1       8.070  -3.458  24.115  0.00  0.00    +0.000 C 
ATOM     13  C   UNL     1       9.564  -0.123  21.995  0.00  0.00    +0.000 C 
ATOM     14  C   UNL     1       9.678   1.361  21.790  0.00  0.00    +0.000 C 
ENDROOT
BRANCH  11  15
ATOM     15  C   UNL     1       6.075  -4.863  24.566  0.00  0.00    +0.000 C 
ATOM     16  N   UNL     1       4.848  -4.019  24.320  0.00  0.00    +0.000 NA
ATOM     17  C   UNL     1       3.703  -4.827  24.383  0.00  0.00    +0.000 A 
ATOM     18  C   UNL     1       2.786  -3.733  24.955  0.00  0.00    +0.000 A 
ATOM     19  C   UNL     1       2.104  -3.712  26.276  0.00  0.00    +0.000 A 
ATOM     20  C   UNL     1       2.375  -5.047  26.883  0.00  0.00    +0.000 A 
ATOM     21  C   UNL     1       3.066  -6.245  26.595  0.00  0.00    +0.000 A 
ATOM     22  C   UNL     1       3.831  -5.961  25.289  0.00  0.00    +0.000 A 
ATOM     23  S   UNL     1       5.539  -6.141  25.748  0.00  0.00    +0.000 S 
ENDBRANCH  11  15
BRANCH   1  26
ATOM     24  C   UNL     1       7.044   2.630  22.595  0.00  0.00    +0.000 C 
ATOM     25  O   UNL     1       6.339   2.003  21.932  0.00  0.00    +0.000 OA
ATOM     26  N   UNL     1       7.994   2.105  23.378  0.00  0.00    +0.000 N 
ATOM     27  H   UNL     1       7.683   1.934  24.253  0.00  0.00    +0.000 HD
BRANCH  24  31
ATOM     28  C   UNL     1       8.945   5.101  24.890  0.00  0.00    +0.000 A 
ATOM     29  C   UNL     1       7.739   4.341  25.364  0.00  0.00    +0.000 A 
ATOM     30  C   UNL     1       6.589   3.899  24.576  0.00  0.00    +0.000 A 
ATOM     31  C   UNL     1       6.897   4.045  23.054  0.00  0.00    +0.000 A 
ATOM     32  C   UNL     1       7.830   5.047  22.495  0.00  0.00    +0.000 A 
ATOM     33  C   UNL     1       8.814   5.655  23.538  0.00  0.00    +0.000 A 
ENDBRANCH  24  31
ENDBRANCH   1  26
TORSDOF 3
ENDMDL
MODEL 9
REMARK VINA RESULT:      -7.9      3.242      4.852
REMARK  Name = 
REMARK  3 active torsions:
REMARK  status: ('A' for Active; 'I' for Inactive)
REMARK    1  A    between atoms: C_7  and  C_8
REMARK    2  A    between atoms: N_10  and  C_12
REMARK    3  A    between atoms: C_33  and  C_35
REMARK                            x       y       z     vdW  Elec       q    Type
REMARK                         _______ _______ _______ _____ _____    ______ ____
ROOT
ATOM      1  C   UNL     1       6.236   2.723  21.828  0.00  0.00    +0.000 C 
ATOM      2  C   UNL     1       7.567   3.186  22.358  0.00  0.00    +0.000 C 
ATOM      3  C   UNL     1       8.694   2.262  21.961  0.00  0.00    +0.000 C 
ATOM      4  N   UNL     1       8.166   0.874  22.099  0.00  0.00    +0.000 N 
ATOM      5  C   UNL     1       9.055  -0.091  22.427  0.00  0.00    +0.000 C 
ATOM      6  O   UNL     1       9.705  -0.612  21.553  0.00  0.00    +0.000 OA
ATOM      7  N   UNL     1       8.856  -0.638  23.654  0.00  0.00    +0.000 N 
ATOM      8  C   UNL     1       9.276   0.135  24.822  0.00  0.00    +0.000 C 
ATOM      9  C   UNL     1       8.460  -0.255  26.040  0.00  0.00    +0.000 C 
ATOM     10  C   UNL     1       8.195  -1.718  26.124  0.00  0.00    +0.000 C 
ATOM     11  C   UNL     1       9.072  -2.553  25.201  0.00  0.00    +0.000 C 
ATOM     12  C   UNL     1       8.995  -2.096  23.768  0.00  0.00    +0.000 C 
ATOM     13  C   UNL     1       7.223   0.557  20.998  0.00  0.00    +0.000 C 
ATOM     14  C   UNL     1       6.367   1.750  20.684  0.00  0.00    +0.000 C 
ENDROOT
BRANCH  11  15
ATOM     15  C   UNL     1       8.595  -3.988  25.325  0.00  0.00    +0.000 C 
ATOM     16  N   UNL     1       8.596  -4.575  23.935  0.00  0.00    +0.000 NA
ATOM     17  C   UNL     1       7.623  -5.582  23.851  0.00  0.00    +0.000 A 
ATOM     18  C   UNL     1       7.282  -5.331  22.372  0.00  0.00    +0.000 A 
ATOM     19  C   UNL     1       5.989  -4.875  21.798  0.00  0.00    +0.000 A 
ATOM     20  C   UNL     1       5.034  -4.848  22.944  0.00  0.00    +0.000 A 
ATOM     21  C   UNL     1       5.008  -5.096  24.334  0.00  0.00    +0.000 A 
ATOM     22  C   UNL     1       6.474  -5.366  24.720  0.00  0.00    +0.000 A 
ATOM     23  S   UNL     1       6.859  -4.063  25.868  0.00  0.00    +0.000 S 
ENDBRANCH  11  15
BRANCH   1  26
ATOM     24  C   UNL     1       4.550   2.892  23.572  0.00  0.00    +0.000 C 
ATOM     25  O   UNL     1       3.409   2.807  23.426  0.00  0.00    +0.000 OA
ATOM     26  N   UNL     1       5.445   2.162  22.896  0.00  0.00    +0.000 N 
ATOM     27  H   UNL     1       5.669   1.364  23.345  0.00  0.00    +0.000 HD
BRANCH  24  31
ATOM     28  C   UNL     1       3.766   4.464  27.022  0.00  0.00    +0.000 A 
ATOM     29  C   UNL     1       4.030   5.304  25.805  0.00  0.00    +0.000 A 
ATOM     30  C   UNL     1       4.897   4.993  24.669  0.00  0.00    +0.000 A 
ATOM     31  C   UNL     1       5.312   3.490  24.710  0.00  0.00    +0.000 A 
ATOM     32  C   UNL     1       5.419   2.699  25.955  0.00  0.00    +0.000 A 
ATOM     33  C   UNL     1       4.676   3.323  27.174  0.00  0.00    +0.000 A 
ENDBRANCH  24  31
ENDBRANCH   1  26
TORSDOF 3
ENDMDL
