MODEL 1
REMARK VINA RESULT:      -8.7      0.000      0.000
REMARK  Name = 
REMARK  6 active torsions:
REMARK  status: ('A' for Active; 'I' for Inactive)
REMARK    1  A    between atoms: C_4  and  C_6
REMARK    2  A    between atoms: C_21  and  C_23
REMARK    3  A    between atoms: C_34  and  O_35
REMARK    4  A    between atoms: O_35  and  C_36
REMARK    5  A    between atoms: C_41  and  N_42
REMARK    6  A    between atoms: C_44  and  C_46
REMARK                            x       y       z     vdW  Elec       q    Type
REMARK                         _______ _______ _______ _____ _____    ______ ____
ROOT
ATOM      1  C   UNL     1       9.328  -0.527  23.709  0.00  0.00    +0.000 C 
ATOM      2  C   UNL     1       8.870  -0.669  22.394  0.00  0.00    +0.000 C 
ATOM      3  C   UNL     1       8.588   0.662  21.795  0.00  0.00    +0.000 C 
ATOM      4  C   UNL     1       7.087   0.804  21.388  0.00  0.00    +0.000 C 
ATOM      5  N   UNL     1       6.817  -0.356  20.519  0.00  0.00    +0.000 N 
ATOM      6  C   UNL     1       6.671  -0.112  19.180  0.00  0.00    +0.000 C 
ATOM      7  O   UNL     1       7.638   0.211  18.521  0.00  0.00    +0.000 OA
ATOM      8  C   UNL     1       7.192  -1.655  21.071  0.00  0.00    +0.000 C 
ATOM      9  C   UNL     1       8.546  -1.830  21.486  0.00  0.00    +0.000 C 
ATOM     10  N   UNL     1       8.586  -2.661  22.588  0.00  0.00    +0.000 N 
ATOM     11  H   UNL     1       8.256  -3.558  22.546  0.00  0.00    +0.000 HD
ATOM     12  C   UNL     1       8.832  -2.554  23.797  0.00  0.00    +0.000 C 
ATOM     13  N   UNL     1       8.822  -1.499  24.573  0.00  0.00    +0.000 NA
ENDROOT
BRANCH   3  14
ATOM     14  C   UNL     1       9.209   1.959  21.921  0.00  0.00    +0.000 A 
ATOM     15  C   UNL     1       8.138   2.929  22.369  0.00  0.00    +0.000 A 
ATOM     16  C   UNL     1       8.226   3.903  23.478  0.00  0.00    +0.000 A 
ATOM     17  C   UNL     1       9.618   3.760  24.020  0.00  0.00    +0.000 A 
ATOM     18  C   UNL     1      10.845   3.111  23.650  0.00  0.00    +0.000 A 
ATOM     19  C   UNL     1      10.554   2.391  22.321  0.00  0.00    +0.000 A 
ENDBRANCH   3  14
BRANCH   6  20
ATOM     20  C   UNL     1       5.266   0.169  18.722  0.00  0.00    +0.000 C 
ATOM     21 CL   UNL     1       4.743   1.776  19.257  0.00  0.00    +0.000 Cl
ENDBRANCH   6  20
BRANCH  12  22
ATOM     22  O   UNL     1       9.632  -3.563  24.390  0.00  0.00    +0.000 OA
BRANCH  22  23
ATOM     23  C   UNL     1       9.179  -4.352  25.153  0.00  0.00    +0.000 A 
ATOM     24  C   UNL     1       8.180  -5.054  24.247  0.00  0.00    +0.000 A 
ATOM     25  C   UNL     1       6.780  -5.313  24.515  0.00  0.00    +0.000 A 
ATOM     26  C   UNL     1       6.441  -5.114  26.029  0.00  0.00    +0.000 A 
ATOM     27  C   UNL     1       7.300  -4.401  26.960  0.00  0.00    +0.000 A 
ATOM     28  C   UNL     1       8.788  -4.293  26.564  0.00  0.00    +0.000 A 
BRANCH  26  29
ATOM     29  N   UNL     1       5.898  -6.419  26.398  0.00  0.00    +0.000 N 
ATOM     30  H   UNL     1       6.583  -6.956  26.616  0.00  0.00    +0.000 HD
ATOM     31  C   UNL     1       4.947  -6.168  27.278  0.00  0.00    +0.000 C 
ATOM     32  O   UNL     1       3.922  -5.580  26.872  0.00  0.00    +0.000 OA
ATOM     33  C   UNL     1       4.952  -6.642  28.691  0.00  0.00    +0.000 C 
ENDBRANCH  26  29
ENDBRANCH  22  23
ENDBRANCH  12  22
TORSDOF 5
ENDMDL
MODEL 2
REMARK VINA RESULT:      -8.5      1.317      1.478
REMARK  Name = 
REMARK  6 active torsions:
REMARK  status: ('A' for Active; 'I' for Inactive)
REMARK    1  A    between atoms: C_4  and  C_6
REMARK    2  A    between atoms: C_21  and  C_23
REMARK    3  A    between atoms: C_34  and  O_35
REMARK    4  A    between atoms: O_35  and  C_36
REMARK    5  A    between atoms: C_41  and  N_42
REMARK    6  A    between atoms: C_44  and  C_46
REMARK                            x       y       z     vdW  Elec       q    Type
REMARK                         _______ _______ _______ _____ _____    ______ ____
ROOT
ATOM      1  C   UNL     1       8.498   0.143  24.220  0.00  0.00    +0.000 C 
ATOM      2  C   UNL     1       8.311  -0.269  22.895  0.00  0.00    +0.000 C 
ATOM      3  C   UNL     1       8.342   0.900  21.978  0.00  0.00    +0.000 C 
ATOM      4  C   UNL     1       6.992   1.067  21.210  0.00  0.00    +0.000 C 
ATOM      5  N   UNL     1       6.756  -0.239  20.569  0.00  0.00    +0.000 N 
ATOM      6  C   UNL     1       6.927  -0.309  19.212  0.00  0.00    +0.000 C 
ATOM      7  O   UNL     1       8.045  -0.233  18.745  0.00  0.00    +0.000 OA
ATOM      8  C   UNL     1       6.829  -1.397  21.456  0.00  0.00    +0.000 C 
ATOM      9  C   UNL     1       8.030  -1.581  22.205  0.00  0.00    +0.000 C 
ATOM     10  N   UNL     1       7.727  -2.127  23.436  0.00  0.00    +0.000 N 
ATOM     11  H   UNL     1       7.295  -2.978  23.508  0.00  0.00    +0.000 HD
ATOM     12  C   UNL     1       7.726  -1.758  24.617  0.00  0.00    +0.000 C 
ATOM     13  N   UNL     1       7.696  -0.552  25.127  0.00  0.00    +0.000 NA
ENDROOT
BRANCH   3  14
ATOM     14  C   UNL     1       9.092   2.134  21.967  0.00  0.00    +0.000 A 
ATOM     15  C   UNL     1       8.137   3.244  22.350  0.00  0.00    +0.000 A 
ATOM     16  C   UNL     1       8.359   4.300  23.361  0.00  0.00    +0.000 A 
ATOM     17  C   UNL     1       9.748   4.065  23.880  0.00  0.00    +0.000 A 
ATOM     18  C   UNL     1      10.891   3.265  23.542  0.00  0.00    +0.000 A 
ATOM     19  C   UNL     1      10.485   2.461  22.293  0.00  0.00    +0.000 A 
ENDBRANCH   3  14
BRANCH   6  20
ATOM     20  C   UNL     1       5.701  -0.028  18.389  0.00  0.00    +0.000 C 
ATOM     21 CL   UNL     1       5.888   1.483  17.482  0.00  0.00    +0.000 Cl
ENDBRANCH   6  20
BRANCH  12  22
ATOM     22  O   UNL     1       8.241  -2.660  25.581  0.00  0.00    +0.000 OA
BRANCH  22  23
ATOM     23  C   UNL     1       7.531  -3.374  26.211  0.00  0.00    +0.000 A 
ATOM     24  C   UNL     1       7.884  -4.715  25.587  0.00  0.00    +0.000 A 
ATOM     25  C   UNL     1       6.969  -5.716  25.077  0.00  0.00    +0.000 A 
ATOM     26  C   UNL     1       5.505  -5.451  25.558  0.00  0.00    +0.000 A 
ATOM     27  C   UNL     1       5.054  -4.182  26.107  0.00  0.00    +0.000 A 
ATOM     28  C   UNL     1       6.152  -3.268  26.694  0.00  0.00    +0.000 A 
BRANCH  26  29
ATOM     29  N   UNL     1       5.175  -6.697  26.247  0.00  0.00    +0.000 N 
ATOM     30  H   UNL     1       5.196  -6.542  27.130  0.00  0.00    +0.000 HD
ATOM     31  C   UNL     1       4.068  -7.130  25.676  0.00  0.00    +0.000 C 
ATOM     32  O   UNL     1       4.139  -7.516  24.489  0.00  0.00    +0.000 OA
ATOM     33  C   UNL     1       2.765  -7.311  26.379  0.00  0.00    +0.000 C 
ENDBRANCH  26  29
ENDBRANCH  22  23
ENDBRANCH  12  22
TORSDOF 5
ENDMDL
MODEL 3
REMARK VINA RESULT:      -7.9      3.104      4.746
REMARK  Name = 
REMARK  6 active torsions:
REMARK  status: ('A' for Active; 'I' for Inactive)
REMARK    1  A    between atoms: C_4  and  C_6
REMARK    2  A    between atoms: C_21  and  C_23
REMARK    3  A    between atoms: C_34  and  O_35
REMARK    4  A    between atoms: O_35  and  C_36
REMARK    5  A    between atoms: C_41  and  N_42
REMARK    6  A    between atoms: C_44  and  C_46
REMARK                            x       y       z     vdW  Elec       q    Type
REMARK                         _______ _______ _______ _____ _____    ______ ____
ROOT
ATOM      1  C   UNL     1       5.863  -2.244  21.045  0.00  0.00    +0.000 C 
ATOM      2  C   UNL     1       6.329  -1.647  22.223  0.00  0.00    +0.000 C 
ATOM      3  C   UNL     1       7.137  -0.440  21.909  0.00  0.00    +0.000 C 
ATOM      4  C   UNL     1       8.605  -0.580  22.421  0.00  0.00    +0.000 C 
ATOM      5  N   UNL     1       8.479  -0.908  23.853  0.00  0.00    +0.000 N 
ATOM      6  C   UNL     1       8.805   0.075  24.750  0.00  0.00    +0.000 C 
ATOM      7  O   UNL     1       8.084   1.045  24.864  0.00  0.00    +0.000 OA
ATOM      8  C   UNL     1       7.601  -2.032  24.165  0.00  0.00    +0.000 C 
ATOM      9  C   UNL     1       6.255  -1.969  23.696  0.00  0.00    +0.000 C 
ATOM     10  N   UNL     1       5.822  -3.237  23.364  0.00  0.00    +0.000 N 
ATOM     11  H   UNL     1       5.790  -3.937  24.016  0.00  0.00    +0.000 HD
ATOM     12  C   UNL     1       5.547  -3.861  22.330  0.00  0.00    +0.000 C 
ATOM     13  N   UNL     1       5.899  -3.639  21.089  0.00  0.00    +0.000 NA
ENDROOT
BRANCH   3  14
ATOM     14  C   UNL     1       7.046   0.579  20.890  0.00  0.00    +0.000 A 
ATOM     15  C   UNL     1       7.839   0.092  19.696  0.00  0.00    +0.000 A 
ATOM     16  C   UNL     1       7.399   0.071  18.284  0.00  0.00    +0.000 A 
ATOM     17  C   UNL     1       6.030   0.686  18.288  0.00  0.00    +0.000 A 
ATOM     18  C   UNL     1       5.184   1.401  19.201  0.00  0.00    +0.000 A 
ATOM     19  C   UNL     1       5.988   1.522  20.509  0.00  0.00    +0.000 A 
ENDBRANCH   3  14
BRANCH   6  20
ATOM     20  C   UNL     1      10.241   0.095  25.195  0.00  0.00    +0.000 C 
ATOM     21 CL   UNL     1      11.168   1.288  24.269  0.00  0.00    +0.000 Cl
ENDBRANCH   6  20
BRANCH  12  22
ATOM     22  O   UNL     1       4.383  -4.670  22.350  0.00  0.00    +0.000 OA
BRANCH  22  23
ATOM     23  C   UNL     1       4.200  -5.480  23.198  0.00  0.00    +0.000 A 
ATOM     24  C   UNL     1       2.936  -4.919  23.831  0.00  0.00    +0.000 A 
ATOM     25  C   UNL     1       2.690  -4.678  25.238  0.00  0.00    +0.000 A 
ATOM     26  C   UNL     1       3.747  -5.400  26.136  0.00  0.00    +0.000 A 
ATOM     27  C   UNL     1       5.013  -5.913  25.637  0.00  0.00    +0.000 A 
ATOM     28  C   UNL     1       5.078  -6.203  24.122  0.00  0.00    +0.000 A 
BRANCH  26  29
ATOM     29  N   UNL     1       2.908  -6.243  26.984  0.00  0.00    +0.000 N 
ATOM     30  H   UNL     1       2.954  -7.085  26.676  0.00  0.00    +0.000 HD
ATOM     31  C   UNL     1       3.275  -5.971  28.222  0.00  0.00    +0.000 C 
ATOM     32  O   UNL     1       3.012  -4.833  28.668  0.00  0.00    +0.000 OA
ATOM     33  C   UNL     1       3.868  -6.958  29.169  0.00  0.00    +0.000 C 
ENDBRANCH  26  29
ENDBRANCH  22  23
ENDBRANCH  12  22
TORSDOF 5
ENDMDL
MODEL 4
REMARK VINA RESULT:      -7.8      2.384      4.247
REMARK  Name = 
REMARK  6 active torsions:
REMARK  status: ('A' for Active; 'I' for Inactive)
REMARK    1  A    between atoms: C_4  and  C_6
REMARK    2  A    between atoms: C_21  and  C_23
REMARK    3  A    between atoms: C_34  and  O_35
REMARK    4  A    between atoms: O_35  and  C_36
REMARK    5  A    between atoms: C_41  and  N_42
REMARK    6  A    between atoms: C_44  and  C_46
REMARK                            x       y       z     vdW  Elec       q    Type
REMARK                         _______ _______ _______ _____ _____    ______ ____
ROOT
ATOM      1  C   UNL     1       7.480  -1.525  21.750  0.00  0.00    +0.000 C 
ATOM      2  C   UNL     1       7.866  -0.421  22.520  0.00  0.00    +0.000 C 
ATOM      3  C   UNL     1       8.000   0.787  21.665  0.00  0.00    +0.000 C 
ATOM      4  C   UNL     1       9.455   1.352  21.688  0.00  0.00    +0.000 C 
ATOM      5  N   UNL     1       9.766   1.545  23.116  0.00  0.00    +0.000 N 
ATOM      6  C   UNL     1       9.808   2.833  23.578  0.00  0.00    +0.000 C 
ATOM      7  O   UNL     1       8.778   3.470  23.671  0.00  0.00    +0.000 OA
ATOM      8  C   UNL     1       9.534   0.384  23.972  0.00  0.00    +0.000 C 
ATOM      9  C   UNL     1       8.228  -0.191  23.967  0.00  0.00    +0.000 C 
ATOM     10  N   UNL     1       8.325  -1.559  24.127  0.00  0.00    +0.000 N 
ATOM     11  H   UNL     1       8.725  -1.939  24.908  0.00  0.00    +0.000 HD
ATOM     12  C   UNL     1       8.147  -2.568  23.433  0.00  0.00    +0.000 C 
ATOM     13  N   UNL     1       8.119  -2.707  22.131  0.00  0.00    +0.000 NA
ENDROOT
BRANCH   3  14
ATOM     14  C   UNL     1       7.282   1.270  20.508  0.00  0.00    +0.000 A 
ATOM     15  C   UNL     1       7.639   0.365  19.348  0.00  0.00    +0.000 A 
ATOM     16  C   UNL     1       6.704  -0.278  18.400  0.00  0.00    +0.000 A 
ATOM     17  C   UNL     1       5.341   0.205  18.801  0.00  0.00    +0.000 A 
ATOM     18  C   UNL     1       4.774   1.195  19.674  0.00  0.00    +0.000 A 
ATOM     19  C   UNL     1       5.970   1.903  20.337  0.00  0.00    +0.000 A 
ENDBRANCH   3  14
BRANCH   6  20
ATOM     20  C   UNL     1      11.153   3.502  23.511  0.00  0.00    +0.000 C 
ATOM     21 CL   UNL     1      10.988   5.258  23.679  0.00  0.00    +0.000 Cl
ENDBRANCH   6  20
BRANCH  12  22
ATOM     22  O   UNL     1       7.472  -3.660  24.035  0.00  0.00    +0.000 OA
BRANCH  22  23
ATOM     23  C   UNL     1       6.966  -3.568  25.105  0.00  0.00    +0.000 A 
ATOM     24  C   UNL     1       7.927  -4.417  25.924  0.00  0.00    +0.000 A 
ATOM     25  C   UNL     1       7.592  -5.495  26.832  0.00  0.00    +0.000 A 
ATOM     26  C   UNL     1       6.070  -5.491  27.190  0.00  0.00    +0.000 A 
ATOM     27  C   UNL     1       5.065  -4.764  26.430  0.00  0.00    +0.000 A 
ATOM     28  C   UNL     1       5.580  -3.582  25.581  0.00  0.00    +0.000 A 
BRANCH  26  29
ATOM     29  N   UNL     1       6.095  -5.382  28.647  0.00  0.00    +0.000 N 
ATOM     30  H   UNL     1       5.867  -4.543  28.869  0.00  0.00    +0.000 HD
ATOM     31  C   UNL     1       5.381  -6.400  29.087  0.00  0.00    +0.000 C 
ATOM     32  O   UNL     1       5.843  -7.549  28.917  0.00  0.00    +0.000 OA
ATOM     33  C   UNL     1       4.125  -6.276  29.881  0.00  0.00    +0.000 C 
ENDBRANCH  26  29
ENDBRANCH  22  23
ENDBRANCH  12  22
TORSDOF 5
ENDMDL
MODEL 5
REMARK VINA RESULT:      -7.8      3.245      8.277
REMARK  Name = 
REMARK  6 active torsions:
REMARK  status: ('A' for Active; 'I' for Inactive)
REMARK    1  A    between atoms: C_4  and  C_6
REMARK    2  A    between atoms: C_21  and  C_23
REMARK    3  A    between atoms: C_34  and  O_35
REMARK    4  A    between atoms: O_35  and  C_36
REMARK    5  A    between atoms: C_41  and  N_42
REMARK    6  A    between atoms: C_44  and  C_46
REMARK                            x       y       z     vdW  Elec       q    Type
REMARK                         _______ _______ _______ _____ _____    ______ ____
ROOT
ATOM      1  C   UNL     1       7.644  -4.384  24.939  0.00  0.00    +0.000 C 
ATOM      2  C   UNL     1       6.313  -4.353  24.506  0.00  0.00    +0.000 C 
ATOM      3  C   UNL     1       5.475  -5.257  25.336  0.00  0.00    +0.000 C 
ATOM      4  C   UNL     1       4.824  -6.388  24.479  0.00  0.00    +0.000 C 
ATOM      5  N   UNL     1       4.117  -5.684  23.394  0.00  0.00    +0.000 N 
ATOM      6  C   UNL     1       2.750  -5.651  23.457  0.00  0.00    +0.000 C 
ATOM      7  O   UNL     1       2.206  -4.977  24.307  0.00  0.00    +0.000 OA
ATOM      8  C   UNL     1       4.918  -4.718  22.646  0.00  0.00    +0.000 C 
ATOM      9  C   UNL     1       5.560  -3.680  23.384  0.00  0.00    +0.000 C 
ATOM     10  N   UNL     1       6.772  -3.377  22.797  0.00  0.00    +0.000 N 
ATOM     11  H   UNL     1       6.821  -3.062  21.894  0.00  0.00    +0.000 HD
ATOM     12  C   UNL     1       7.972  -3.523  23.064  0.00  0.00    +0.000 C 
ATOM     13  N   UNL     1       8.561  -4.354  23.887  0.00  0.00    +0.000 NA
ENDROOT
BRANCH   3  14
ATOM     14  C   UNL     1       5.489  -5.619  26.735  0.00  0.00    +0.000 A 
ATOM     15  C   UNL     1       5.338  -4.341  27.531  0.00  0.00    +0.000 A 
ATOM     16  C   UNL     1       4.400  -4.093  28.647  0.00  0.00    +0.000 A 
ATOM     17  C   UNL     1       3.678  -5.392  28.852  0.00  0.00    +0.000 A 
ATOM     18  C   UNL     1       3.785  -6.753  28.409  0.00  0.00    +0.000 A 
ATOM     19  C   UNL     1       5.005  -6.793  27.469  0.00  0.00    +0.000 A 
ENDBRANCH   3  14
BRANCH   6  20
ATOM     20  C   UNL     1       2.042  -6.784  22.767  0.00  0.00    +0.000 C 
ATOM     21 CL   UNL     1       1.837  -8.157  23.867  0.00  0.00    +0.000 Cl
ENDBRANCH   6  20
BRANCH  12  22
ATOM     22  O   UNL     1       8.833  -2.426  22.811  0.00  0.00    +0.000 OA
BRANCH  22  23
ATOM     23  C   UNL     1       8.498  -1.307  23.025  0.00  0.00    +0.000 A 
ATOM     24  C   UNL     1       9.027  -0.628  21.772  0.00  0.00    +0.000 A 
ATOM     25  C   UNL     1       9.847   0.564  21.697  0.00  0.00    +0.000 A 
ATOM     26  C   UNL     1       9.859   1.338  23.056  0.00  0.00    +0.000 A 
ATOM     27  C   UNL     1       9.434   0.755  24.318  0.00  0.00    +0.000 A 
ATOM     28  C   UNL     1       8.485  -0.459  24.221  0.00  0.00    +0.000 A 
BRANCH  26  29
ATOM     29  N   UNL     1       9.366   2.657  22.665  0.00  0.00    +0.000 N 
ATOM     30  H   UNL     1       8.472   2.616  22.606  0.00  0.00    +0.000 HD
ATOM     31  C   UNL     1       9.937   3.505  23.498  0.00  0.00    +0.000 C 
ATOM     32  O   UNL     1      11.173   3.667  23.406  0.00  0.00    +0.000 OA
ATOM     33  C   UNL     1       9.201   4.378  24.457  0.00  0.00    +0.000 C 
ENDBRANCH  26  29
ENDBRANCH  22  23
ENDBRANCH  12  22
TORSDOF 5
ENDMDL
MODEL 6
REMARK VINA RESULT:      -7.8      2.610      4.170
REMARK  Name = 
REMARK  6 active torsions:
REMARK  status: ('A' for Active; 'I' for Inactive)
REMARK    1  A    between atoms: C_4  and  C_6
REMARK    2  A    between atoms: C_21  and  C_23
REMARK    3  A    between atoms: C_34  and  O_35
REMARK    4  A    between atoms: O_35  and  C_36
REMARK    5  A    between atoms: C_41  and  N_42
REMARK    6  A    between atoms: C_44  and  C_46
REMARK                            x       y       z     vdW  Elec       q    Type
REMARK                         _______ _______ _______ _____ _____    ______ ____
ROOT
ATOM      1  C   UNL     1       8.812  -1.316  23.348  0.00  0.00    +0.000 C 
ATOM      2  C   UNL     1       8.043  -0.146  23.378  0.00  0.00    +0.000 C 
ATOM      3  C   UNL     1       7.894   0.412  22.008  0.00  0.00    +0.000 C 
ATOM      4  C   UNL     1       8.505   1.844  21.899  0.00  0.00    +0.000 C 
ATOM      5  N   UNL     1       7.859   2.617  22.975  0.00  0.00    +0.000 N 
ATOM      6  C   UNL     1       6.925   3.546  22.603  0.00  0.00    +0.000 C 
ATOM      7  O   UNL     1       5.854   3.176  22.167  0.00  0.00    +0.000 OA
ATOM      8  C   UNL     1       7.919   2.014  24.304  0.00  0.00    +0.000 C 
ATOM      9  C   UNL     1       7.400   0.693  24.454  0.00  0.00    +0.000 C 
ATOM     10  N   UNL     1       8.148   0.007  25.391  0.00  0.00    +0.000 N 
ATOM     11  H   UNL     1       8.215   0.316  26.294  0.00  0.00    +0.000 HD
ATOM     12  C   UNL     1       8.958  -0.928  25.396  0.00  0.00    +0.000 C 
ATOM     13  N   UNL     1       9.690  -1.420  24.428  0.00  0.00    +0.000 NA
ENDROOT
BRANCH   3  14
ATOM     14  C   UNL     1       7.757  -0.187  20.701  0.00  0.00    +0.000 A 
ATOM     15  C   UNL     1       6.742  -1.303  20.822  0.00  0.00    +0.000 A 
ATOM     16  C   UNL     1       5.580  -1.549  19.940  0.00  0.00    +0.000 A 
ATOM     17  C   UNL     1       5.661  -0.493  18.877  0.00  0.00    +0.000 A 
ATOM     18  C   UNL     1       6.600   0.494  18.423  0.00  0.00    +0.000 A 
ATOM     19  C   UNL     1       7.830   0.355  19.339  0.00  0.00    +0.000 A 
ENDBRANCH   3  14
BRANCH   6  20
ATOM     20  C   UNL     1       7.453   4.930  22.346  0.00  0.00    +0.000 C 
ATOM     21 CL   UNL     1       8.842   5.274  23.391  0.00  0.00    +0.000 Cl
ENDBRANCH   6  20
BRANCH  12  22
ATOM     22  O   UNL     1       8.823  -1.899  26.420  0.00  0.00    +0.000 OA
BRANCH  22  23
ATOM     23  C   UNL     1       7.901  -2.647  26.455  0.00  0.00    +0.000 A 
ATOM     24  C   UNL     1       8.561  -3.907  25.919  0.00  0.00    +0.000 A 
ATOM     25  C   UNL     1       8.084  -4.764  24.853  0.00  0.00    +0.000 A 
ATOM     26  C   UNL     1       6.586  -4.474  24.512  0.00  0.00    +0.000 A 
ATOM     27  C   UNL     1       5.884  -3.268  24.923  0.00  0.00    +0.000 A 
ATOM     28  C   UNL     1       6.476  -2.520  26.137  0.00  0.00    +0.000 A 
BRANCH  26  29
ATOM     29  N   UNL     1       5.963  -5.780  24.717  0.00  0.00    +0.000 N 
ATOM     30  H   UNL     1       5.605  -5.793  25.539  0.00  0.00    +0.000 HD
ATOM     31  C   UNL     1       5.200  -5.975  23.659  0.00  0.00    +0.000 C 
ATOM     32  O   UNL     1       5.767  -6.143  22.558  0.00  0.00    +0.000 OA
ATOM     33  C   UNL     1       3.718  -6.134  23.699  0.00  0.00    +0.000 C 
ENDBRANCH  26  29
ENDBRANCH  22  23
ENDBRANCH  12  22
TORSDOF 5
ENDMDL
MODEL 7
REMARK VINA RESULT:      -7.6      3.503      8.708
REMARK  Name = 
REMARK  6 active torsions:
REMARK  status: ('A' for Active; 'I' for Inactive)
REMARK    1  A    between atoms: C_4  and  C_6
REMARK    2  A    between atoms: C_21  and  C_23
REMARK    3  A    between atoms: C_34  and  O_35
REMARK    4  A    between atoms: O_35  and  C_36
REMARK    5  A    between atoms: C_41  and  N_42
REMARK    6  A    between atoms: C_44  and  C_46
REMARK                            x       y       z     vdW  Elec       q    Type
REMARK                         _______ _______ _______ _____ _____    ______ ____
ROOT
ATOM      1  C   UNL     1       7.130  -3.492  22.924  0.00  0.00    +0.000 C 
ATOM      2  C   UNL     1       7.276  -4.063  24.194  0.00  0.00    +0.000 C 
ATOM      3  C   UNL     1       6.070  -4.855  24.550  0.00  0.00    +0.000 C 
ATOM      4  C   UNL     1       5.371  -4.296  25.829  0.00  0.00    +0.000 C 
ATOM      5  N   UNL     1       6.429  -4.252  26.854  0.00  0.00    +0.000 N 
ATOM      6  C   UNL     1       6.369  -5.186  27.854  0.00  0.00    +0.000 C 
ATOM      7  O   UNL     1       6.602  -6.350  27.601  0.00  0.00    +0.000 OA
ATOM      8  C   UNL     1       7.655  -3.561  26.462  0.00  0.00    +0.000 C 
ATOM      9  C   UNL     1       8.320  -4.013  25.283  0.00  0.00    +0.000 C 
ATOM     10  N   UNL     1       8.896  -2.936  24.637  0.00  0.00    +0.000 N 
ATOM     11  H   UNL     1       9.560  -2.398  25.067  0.00  0.00    +0.000 HD
ATOM     12  C   UNL     1       8.707  -2.297  23.594  0.00  0.00    +0.000 C 
ATOM     13  N   UNL     1       7.638  -2.194  22.846  0.00  0.00    +0.000 NA
ENDROOT
BRANCH   3  14
ATOM     14  C   UNL     1       5.161  -5.676  23.786  0.00  0.00    +0.000 A 
ATOM     15  C   UNL     1       4.837  -6.891  24.629  0.00  0.00    +0.000 A 
ATOM     16  C   UNL     1       3.495  -7.445  24.914  0.00  0.00    +0.000 A 
ATOM     17  C   UNL     1       2.540  -6.580  24.145  0.00  0.00    +0.000 A 
ATOM     18  C   UNL     1       2.599  -5.558  23.139  0.00  0.00    +0.000 A 
ATOM     19  C   UNL     1       4.095  -5.364  22.827  0.00  0.00    +0.000 A 
ENDBRANCH   3  14
BRANCH   6  20
ATOM     20  C   UNL     1       5.595  -4.777  29.076  0.00  0.00    +0.000 C 
ATOM     21 CL   UNL     1       5.636  -6.057  30.301  0.00  0.00    +0.000 Cl
ENDBRANCH   6  20
BRANCH  12  22
ATOM     22  O   UNL     1       9.849  -1.952  22.828  0.00  0.00    +0.000 OA
BRANCH  22  23
ATOM     23  C   UNL     1      10.040  -0.840  22.458  0.00  0.00    +0.000 A 
ATOM     24  C   UNL     1      10.477  -0.197  23.765  0.00  0.00    +0.000 A 
ATOM     25  C   UNL     1       9.971   1.025  24.356  0.00  0.00    +0.000 A 
ATOM     26  C   UNL     1       9.144   1.860  23.325  0.00  0.00    +0.000 A 
ATOM     27  C   UNL     1       8.626   1.318  22.079  0.00  0.00    +0.000 A 
ATOM     28  C   UNL     1       9.340   0.060  21.537  0.00  0.00    +0.000 A 
BRANCH  26  29
ATOM     29  N   UNL     1       9.855   3.137  23.319  0.00  0.00    +0.000 N 
ATOM     30  H   UNL     1      10.192   3.267  22.498  0.00  0.00    +0.000 HD
ATOM     31  C   UNL     1       9.011   4.010  23.834  0.00  0.00    +0.000 C 
ATOM     32  O   UNL     1       8.721   3.894  25.045  0.00  0.00    +0.000 OA
ATOM     33  C   UNL     1       8.473   5.199  23.111  0.00  0.00    +0.000 C 
ENDBRANCH  26  29
ENDBRANCH  22  23
ENDBRANCH  12  22
TORSDOF 5
ENDMDL
MODEL 8
REMARK VINA RESULT:      -7.6      1.669      2.177
REMARK  Name = 
REMARK  6 active torsions:
REMARK  status: ('A' for Active; 'I' for Inactive)
REMARK    1  A    between atoms: C_4  and  C_6
REMARK    2  A    between atoms: C_21  and  C_23
REMARK    3  A    between atoms: C_34  and  O_35
REMARK    4  A    between atoms: O_35  and  C_36
REMARK    5  A    between atoms: C_41  and  N_42
REMARK    6  A    between atoms: C_44  and  C_46
REMARK                            x       y       z     vdW  Elec       q    Type
REMARK                         _______ _______ _______ _____ _____    ______ ____
ROOT
ATOM      1  C   UNL     1       8.348  -1.460  25.685  0.00  0.00    +0.000 C 
ATOM      2  C   UNL     1       8.393  -1.265  24.299  0.00  0.00    +0.000 C 
ATOM      3  C   UNL     1       8.367   0.186  23.977  0.00  0.00    +0.000 C 
ATOM      4  C   UNL     1       7.116   0.564  23.122  0.00  0.00    +0.000 C 
ATOM      5  N   UNL     1       7.159  -0.345  21.962  0.00  0.00    +0.000 N 
ATOM      6  C   UNL     1       7.510   0.198  20.755  0.00  0.00    +0.000 C 
ATOM      7  O   UNL     1       8.654   0.559  20.570  0.00  0.00    +0.000 OA
ATOM      8  C   UNL     1       7.290  -1.765  22.281  0.00  0.00    +0.000 C 
ATOM      9  C   UNL     1       8.400  -2.162  23.085  0.00  0.00    +0.000 C 
ATOM     10  N   UNL     1       8.027  -3.212  23.900  0.00  0.00    +0.000 N 
ATOM     11  H   UNL     1       7.720  -4.041  23.531  0.00  0.00    +0.000 HD
ATOM     12  C   UNL     1       7.822  -3.397  25.106  0.00  0.00    +0.000 C 
ATOM     13  N   UNL     1       7.549  -2.541  26.059  0.00  0.00    +0.000 NA
ENDROOT
BRANCH   3  14
ATOM     14  C   UNL     1       8.921   1.356  24.617  0.00  0.00    +0.000 A 
ATOM     15  C   UNL     1      10.250   1.644  23.953  0.00  0.00    +0.000 A 
ATOM     16  C   UNL     1      10.724   2.947  23.438  0.00  0.00    +0.000 A 
ATOM     17  C   UNL     1       9.632   3.923  23.768  0.00  0.00    +0.000 A 
ATOM     18  C   UNL     1       8.432   3.953  24.555  0.00  0.00    +0.000 A 
ATOM     19  C   UNL     1       8.317   2.559  25.199  0.00  0.00    +0.000 A 
ENDBRANCH   3  14
BRANCH   6  20
ATOM     20  C   UNL     1       6.370   0.713  19.921  0.00  0.00    +0.000 C 
ATOM     21 CL   UNL     1       6.015  -0.402  18.590  0.00  0.00    +0.000 Cl
ENDBRANCH   6  20
BRANCH  12  22
ATOM     22  O   UNL     1       8.338  -4.586  25.679  0.00  0.00    +0.000 OA
BRANCH  22  23
ATOM     23  C   UNL     1       7.642  -5.353  26.260  0.00  0.00    +0.000 A 
ATOM     24  C   UNL     1       6.749  -5.816  25.120  0.00  0.00    +0.000 A 
ATOM     25  C   UNL     1       5.301  -5.874  25.106  0.00  0.00    +0.000 A 
ATOM     26  C   UNL     1       4.708  -5.747  26.548  0.00  0.00    +0.000 A 
ATOM     27  C   UNL     1       5.463  -5.254  27.688  0.00  0.00    +0.000 A 
ATOM     28  C   UNL     1       7.000  -5.348  27.578  0.00  0.00    +0.000 A 
BRANCH  26  29
ATOM     29  N   UNL     1       3.929  -6.977  26.671  0.00  0.00    +0.000 N 
ATOM     30  H   UNL     1       4.443  -7.595  27.070  0.00  0.00    +0.000 HD
ATOM     31  C   UNL     1       2.785  -6.614  27.218  0.00  0.00    +0.000 C 
ATOM     32  O   UNL     1       2.016  -5.902  26.536  0.00  0.00    +0.000 OA
ATOM     33  C   UNL     1       2.286  -7.091  28.539  0.00  0.00    +0.000 C 
ENDBRANCH  26  29
ENDBRANCH  22  23
ENDBRANCH  12  22
TORSDOF 5
ENDMDL
MODEL 9
REMARK VINA RESULT:      -7.5      3.374      8.046
REMARK  Name = 
REMARK  6 active torsions:
REMARK  status: ('A' for Active; 'I' for Inactive)
REMARK    1  A    between atoms: C_4  and  C_6
REMARK    2  A    between atoms: C_21  and  C_23
REMARK    3  A    between atoms: C_34  and  O_35
REMARK    4  A    between atoms: O_35  and  C_36
REMARK    5  A    between atoms: C_41  and  N_42
REMARK    6  A    between atoms: C_44  and  C_46
REMARK                            x       y       z     vdW  Elec       q    Type
REMARK                         _______ _______ _______ _____ _____    ______ ____
ROOT
ATOM      1  C   UNL     1       7.068  -1.738  25.334  0.00  0.00    +0.000 C 
ATOM      2  C   UNL     1       6.683  -3.078  25.460  0.00  0.00    +0.000 C 
ATOM      3  C   UNL     1       5.358  -3.177  26.124  0.00  0.00    +0.000 C 
ATOM      4  C   UNL     1       5.443  -3.974  27.465  0.00  0.00    +0.000 C 
ATOM      5  N   UNL     1       6.073  -5.258  27.105  0.00  0.00    +0.000 N 
ATOM      6  C   UNL     1       5.269  -6.366  27.094  0.00  0.00    +0.000 C 
ATOM      7  O   UNL     1       4.428  -6.487  26.228  0.00  0.00    +0.000 OA
ATOM      8  C   UNL     1       7.325  -5.156  26.360  0.00  0.00    +0.000 C 
ATOM      9  C   UNL     1       7.310  -4.414  25.141  0.00  0.00    +0.000 C 
ATOM     10  N   UNL     1       8.521  -3.770  24.978  0.00  0.00    +0.000 N 
ATOM     11  H   UNL     1       9.340  -4.261  24.921  0.00  0.00    +0.000 HD
ATOM     12  C   UNL     1       8.941  -2.606  25.012  0.00  0.00    +0.000 C 
ATOM     13  N   UNL     1       8.430  -1.537  25.568  0.00  0.00    +0.000 NA
ENDROOT
BRANCH   3  14
ATOM     14  C   UNL     1       4.164  -2.364  26.088  0.00  0.00    +0.000 A 
ATOM     15  C   UNL     1       3.062  -3.210  25.488  0.00  0.00    +0.000 A 
ATOM     16  C   UNL     1       1.695  -3.399  26.020  0.00  0.00    +0.000 A 
ATOM     17  C   UNL     1       1.624  -2.531  27.242  0.00  0.00    +0.000 A 
ATOM     18  C   UNL     1       2.409  -1.506  27.869  0.00  0.00    +0.000 A 
ATOM     19  C   UNL     1       3.643  -1.313  26.969  0.00  0.00    +0.000 A 
ENDBRANCH   3  14
BRANCH   6  20
ATOM     20  C   UNL     1       5.189  -7.121  28.392  0.00  0.00    +0.000 C 
ATOM     21 CL   UNL     1       6.373  -6.497  29.553  0.00  0.00    +0.000 Cl
ENDBRANCH   6  20
BRANCH  12  22
ATOM     22  O   UNL     1       9.857  -2.216  24.003  0.00  0.00    +0.000 OA
BRANCH  22  23
ATOM     23  C   UNL     1       9.514  -2.054  22.877  0.00  0.00    +0.000 A 
ATOM     24  C   UNL     1       9.979  -0.622  22.663  0.00  0.00    +0.000 A 
ATOM     25  C   UNL     1       9.208   0.482  22.130  0.00  0.00    +0.000 A 
ATOM     26  C   UNL     1       7.901  -0.017  21.431  0.00  0.00    +0.000 A 
ATOM     27  C   UNL     1       7.341  -1.345  21.623  0.00  0.00    +0.000 A 
ATOM     28  C   UNL     1       8.324  -2.432  22.112  0.00  0.00    +0.000 A 
BRANCH  26  29
ATOM     29  N   UNL     1       8.049   0.518  20.079  0.00  0.00    +0.000 N 
ATOM     30  H   UNL     1       8.643   0.010  19.640  0.00  0.00    +0.000 HD
ATOM     31  C   UNL     1       6.820   0.649  19.618  0.00  0.00    +0.000 C 
ATOM     32  O   UNL     1       6.090   1.514  20.146  0.00  0.00    +0.000 OA
ATOM     33  C   UNL     1       6.279  -0.073  18.430  0.00  0.00    +0.000 C 
ENDBRANCH  26  29
ENDBRANCH  22  23
ENDBRANCH  12  22
TORSDOF 5
ENDMDL
