MODEL 1
REMARK VINA RESULT:      -9.2      0.000      0.000
REMARK  Name = 
REMARK  4 active torsions:
REMARK  status: ('A' for Active; 'I' for Inactive)
REMARK    1  A    between atoms: C_7  and  C_8
REMARK    2  A    between atoms: C_24  and  C_26
REMARK    3  A    between atoms: C_26  and  N_29
REMARK    4  A    between atoms: C_43  and  C_45
REMARK                            x       y       z     vdW  Elec       q    Type
REMARK                         _______ _______ _______ _____ _____    ______ ____
ROOT
ATOM      1  C   UNL     1       8.219   1.971  21.674  0.00  0.00    +0.000 C 
ATOM      2  C   UNL     1       7.366   1.598  20.712  0.00  0.00    +0.000 A 
ATOM      3  C   UNL     1       5.948   1.616  20.676  0.00  0.00    +0.000 A 
ATOM      4  C   UNL     1       5.212   1.368  19.480  0.00  0.00    +0.000 A 
ATOM      5  C   UNL     1       6.096   0.633  18.502  0.00  0.00    +0.000 A 
ATOM      6  C   UNL     1       7.455   0.140  18.581  0.00  0.00    +0.000 A 
ATOM      7  C   UNL     1       7.940   0.236  20.089  0.00  0.00    +0.000 A 
ATOM      8  C   UNL     1       8.292  -0.951  20.794  0.00  0.00    +0.000 C 
ATOM      9  N   UNL     1       8.729  -0.475  21.932  0.00  0.00    +0.000 N 
ATOM     10  C   UNL     1       8.575  -0.983  23.211  0.00  0.00    +0.000 C 
ATOM     11  O   UNL     1       9.662  -1.608  23.447  0.00  0.00    +0.000 OA
ATOM     12  C   UNL     1       9.107   0.811  22.028  0.00  0.00    +0.000 C 
ENDROOT
BRANCH   1  16
ATOM     13  C   UNL     1       7.928   4.939  24.774  0.00  0.00    +0.000 A 
ATOM     14  C   UNL     1       8.580   3.561  24.955  0.00  0.00    +0.000 A 
ATOM     15  C   UNL     1       8.764   2.526  23.936  0.00  0.00    +0.000 A 
ATOM     16  C   UNL     1       8.094   2.912  22.501  0.00  0.00    +0.000 A 
ATOM     17  C   UNL     1       7.292   4.179  22.327  0.00  0.00    +0.000 A 
ATOM     18  C   UNL     1       7.769   5.211  23.342  0.00  0.00    +0.000 A 
ENDBRANCH   1  16
BRANCH  10  19
ATOM     19  C   UNL     1       7.312  -1.744  23.292  0.00  0.00    +0.000 C 
BRANCH  19  20
ATOM     20  N   UNL     1       6.807  -2.870  22.670  0.00  0.00    +0.000 NA
ATOM     21  C   UNL     1       7.682  -4.047  22.682  0.00  0.00    +0.000 C 
ATOM     22  C   UNL     1       7.509  -4.727  23.971  0.00  0.00    +0.000 A 
ATOM     23  C   UNL     1       8.581  -5.383  24.579  0.00  0.00    +0.000 A 
ATOM     24  C   UNL     1       9.480  -5.016  25.747  0.00  0.00    +0.000 A 
ATOM     25  C   UNL     1       8.777  -3.742  26.200  0.00  0.00    +0.000 A 
ATOM     26  C   UNL     1       7.527  -3.064  26.146  0.00  0.00    +0.000 A 
ATOM     27  C   UNL     1       6.812  -3.886  25.087  0.00  0.00    +0.000 A 
ATOM     28  C   UNL     1       5.466  -3.727  24.589  0.00  0.00    +0.000 C 
ATOM     29  C   UNL     1       5.520  -3.250  23.150  0.00  0.00    +0.000 C 
BRANCH  28  30
ATOM     30  C   UNL     1       4.843  -5.144  24.556  0.00  0.00    +0.000 A 
ATOM     31  C   UNL     1       4.136  -5.190  25.887  0.00  0.00    +0.000 A 
ATOM     32  C   UNL     1       2.698  -5.410  26.166  0.00  0.00    +0.000 A 
ATOM     33  C   UNL     1       2.084  -5.695  24.811  0.00  0.00    +0.000 A 
ATOM     34  C   UNL     1       2.431  -5.695  23.455  0.00  0.00    +0.000 A 
ATOM     35  C   UNL     1       3.997  -5.576  23.449  0.00  0.00    +0.000 A 
ENDBRANCH  28  30
ENDBRANCH  19  20
ENDBRANCH  10  19
TORSDOF 4
ENDMDL
MODEL 2
REMARK VINA RESULT:      -9.1      1.500      2.485
REMARK  Name = 
REMARK  4 active torsions:
REMARK  status: ('A' for Active; 'I' for Inactive)
REMARK    1  A    between atoms: C_7  and  C_8
REMARK    2  A    between atoms: C_24  and  C_26
REMARK    3  A    between atoms: C_26  and  N_29
REMARK    4  A    between atoms: C_43  and  C_45
REMARK                            x       y       z     vdW  Elec       q    Type
REMARK                         _______ _______ _______ _____ _____    ______ ____
ROOT
ATOM      1  C   UNL     1       8.689   1.725  22.227  0.00  0.00    +0.000 C 
ATOM      2  C   UNL     1       7.787   1.411  21.288  0.00  0.00    +0.000 A 
ATOM      3  C   UNL     1       6.371   1.360  21.347  0.00  0.00    +0.000 A 
ATOM      4  C   UNL     1       5.564   1.202  20.183  0.00  0.00    +0.000 A 
ATOM      5  C   UNL     1       6.408   0.622  19.074  0.00  0.00    +0.000 A 
ATOM      6  C   UNL     1       7.791   0.195  19.009  0.00  0.00    +0.000 A 
ATOM      7  C   UNL     1       8.376   0.155  20.484  0.00  0.00    +0.000 A 
ATOM      8  C   UNL     1       8.831  -1.079  21.030  0.00  0.00    +0.000 C 
ATOM      9  N   UNL     1       9.325  -0.705  22.183  0.00  0.00    +0.000 N 
ATOM     10  C   UNL     1       9.284  -1.354  23.406  0.00  0.00    +0.000 C 
ATOM     11  O   UNL     1      10.412  -1.942  23.499  0.00  0.00    +0.000 OA
ATOM     12  C   UNL     1       9.651   0.581  22.393  0.00  0.00    +0.000 C 
ENDROOT
BRANCH   1  16
ATOM     13  C   UNL     1       8.144   4.311  25.621  0.00  0.00    +0.000 A 
ATOM     14  C   UNL     1       7.842   2.806  25.624  0.00  0.00    +0.000 A 
ATOM     15  C   UNL     1       8.054   1.856  24.530  0.00  0.00    +0.000 A 
ATOM     16  C   UNL     1       8.581   2.564  23.159  0.00  0.00    +0.000 A 
ATOM     17  C   UNL     1       8.724   4.064  23.057  0.00  0.00    +0.000 A 
ATOM     18  C   UNL     1       8.964   4.635  24.450  0.00  0.00    +0.000 A 
ENDBRANCH   1  16
BRANCH  10  19
ATOM     19  C   UNL     1       8.066  -2.184  23.485  0.00  0.00    +0.000 C 
BRANCH  19  20
ATOM     20  N   UNL     1       6.774  -1.985  23.932  0.00  0.00    +0.000 NA
ATOM     21  C   UNL     1       5.716  -2.533  23.076  0.00  0.00    +0.000 C 
ATOM     22  C   UNL     1       5.567  -3.957  23.395  0.00  0.00    +0.000 A 
ATOM     23  C   UNL     1       5.223  -4.876  22.402  0.00  0.00    +0.000 A 
ATOM     24  C   UNL     1       6.031  -5.905  21.630  0.00  0.00    +0.000 A 
ATOM     25  C   UNL     1       7.359  -5.766  22.365  0.00  0.00    +0.000 A 
ATOM     26  C   UNL     1       7.928  -5.331  23.595  0.00  0.00    +0.000 A 
ATOM     27  C   UNL     1       6.745  -4.593  24.200  0.00  0.00    +0.000 A 
ATOM     28  C   UNL     1       6.663  -3.935  25.482  0.00  0.00    +0.000 C 
ATOM     29  C   UNL     1       6.562  -2.436  25.268  0.00  0.00    +0.000 C 
BRANCH  28  30
ATOM     30  C   UNL     1       5.319  -4.376  26.113  0.00  0.00    +0.000 A 
ATOM     31  C   UNL     1       5.678  -5.736  26.658  0.00  0.00    +0.000 A 
ATOM     32  C   UNL     1       5.602  -6.225  28.054  0.00  0.00    +0.000 A 
ATOM     33  C   UNL     1       4.972  -5.084  28.826  0.00  0.00    +0.000 A 
ATOM     34  C   UNL     1       4.575  -3.754  28.641  0.00  0.00    +0.000 A 
ATOM     35  C   UNL     1       4.626  -3.539  27.087  0.00  0.00    +0.000 A 
ENDBRANCH  28  30
ENDBRANCH  19  20
ENDBRANCH  10  19
TORSDOF 4
ENDMDL
MODEL 3
REMARK VINA RESULT:      -9.1      2.711      4.571
REMARK  Name = 
REMARK  4 active torsions:
REMARK  status: ('A' for Active; 'I' for Inactive)
REMARK    1  A    between atoms: C_7  and  C_8
REMARK    2  A    between atoms: C_24  and  C_26
REMARK    3  A    between atoms: C_26  and  N_29
REMARK    4  A    between atoms: C_43  and  C_45
REMARK                            x       y       z     vdW  Elec       q    Type
REMARK                         _______ _______ _______ _____ _____    ______ ____
ROOT
ATOM      1  C   UNL     1       9.010  -2.404  23.369  0.00  0.00    +0.000 C 
ATOM      2  C   UNL     1       7.941  -2.896  22.730  0.00  0.00    +0.000 A 
ATOM      3  C   UNL     1       6.635  -2.367  22.571  0.00  0.00    +0.000 A 
ATOM      4  C   UNL     1       5.682  -2.941  21.680  0.00  0.00    +0.000 A 
ATOM      5  C   UNL     1       6.083  -4.365  21.382  0.00  0.00    +0.000 A 
ATOM      6  C   UNL     1       7.174  -5.198  21.844  0.00  0.00    +0.000 A 
ATOM      7  C   UNL     1       7.890  -4.465  23.056  0.00  0.00    +0.000 A 
ATOM      8  C   UNL     1       7.904  -5.077  24.342  0.00  0.00    +0.000 C 
ATOM      9  N   UNL     1       8.653  -4.254  25.031  0.00  0.00    +0.000 N 
ATOM     10  C   UNL     1       8.530  -3.853  26.350  0.00  0.00    +0.000 C 
ATOM     11  O   UNL     1       9.348  -4.592  26.993  0.00  0.00    +0.000 OA
ATOM     12  C   UNL     1       9.473  -3.396  24.399  0.00  0.00    +0.000 C 
ENDROOT
BRANCH   1  16
ATOM     13  C   UNL     1      10.255   1.713  23.393  0.00  0.00    +0.000 A 
ATOM     14  C   UNL     1      10.024   0.887  22.120  0.00  0.00    +0.000 A 
ATOM     15  C   UNL     1       9.550  -0.495  22.033  0.00  0.00    +0.000 A 
ATOM     16  C   UNL     1       9.358  -1.200  23.490  0.00  0.00    +0.000 A 
ATOM     17  C   UNL     1       9.739  -0.484  24.763  0.00  0.00    +0.000 A 
ATOM     18  C   UNL     1       9.647   1.020  24.533  0.00  0.00    +0.000 A 
ENDBRANCH   1  16
BRANCH  10  19
ATOM     19  C   UNL     1       7.109  -3.891  26.748  0.00  0.00    +0.000 C 
BRANCH  19  20
ATOM     20  N   UNL     1       6.252  -4.864  27.224  0.00  0.00    +0.000 NA
ATOM     21  C   UNL     1       5.291  -4.421  28.240  0.00  0.00    +0.000 C 
ATOM     22  C   UNL     1       4.151  -3.808  27.549  0.00  0.00    +0.000 A 
ATOM     23  C   UNL     1       3.464  -2.736  28.122  0.00  0.00    +0.000 A 
ATOM     24  C   UNL     1       3.472  -1.243  27.842  0.00  0.00    +0.000 A 
ATOM     25  C   UNL     1       4.366  -1.237  26.607  0.00  0.00    +0.000 A 
ATOM     26  C   UNL     1       4.836  -2.066  25.550  0.00  0.00    +0.000 A 
ATOM     27  C   UNL     1       4.395  -3.430  26.053  0.00  0.00    +0.000 A 
ATOM     28  C   UNL     1       4.549  -4.713  25.410  0.00  0.00    +0.000 C 
ATOM     29  C   UNL     1       5.545  -5.548  26.192  0.00  0.00    +0.000 C 
BRANCH  28  30
ATOM     30  C   UNL     1       3.184  -5.431  25.536  0.00  0.00    +0.000 A 
ATOM     31  C   UNL     1       2.409  -4.801  24.406  0.00  0.00    +0.000 A 
ATOM     32  C   UNL     1       1.768  -5.456  23.242  0.00  0.00    +0.000 A 
ATOM     33  C   UNL     1       1.962  -6.939  23.483  0.00  0.00    +0.000 A 
ATOM     34  C   UNL     1       2.624  -7.806  24.360  0.00  0.00    +0.000 A 
ATOM     35  C   UNL     1       3.089  -6.887  25.546  0.00  0.00    +0.000 A 
ENDBRANCH  28  30
ENDBRANCH  19  20
ENDBRANCH  10  19
TORSDOF 4
ENDMDL
MODEL 4
REMARK VINA RESULT:      -9.1      1.166      2.118
REMARK  Name = 
REMARK  4 active torsions:
REMARK  status: ('A' for Active; 'I' for Inactive)
REMARK    1  A    between atoms: C_7  and  C_8
REMARK    2  A    between atoms: C_24  and  C_26
REMARK    3  A    between atoms: C_26  and  N_29
REMARK    4  A    between atoms: C_43  and  C_45
REMARK                            x       y       z     vdW  Elec       q    Type
REMARK                         _______ _______ _______ _____ _____    ______ ____
ROOT
ATOM      1  C   UNL     1       8.546   1.763  21.804  0.00  0.00    +0.000 C 
ATOM      2  C   UNL     1       7.553   1.435  20.968  0.00  0.00    +0.000 A 
ATOM      3  C   UNL     1       6.167   1.249  21.208  0.00  0.00    +0.000 A 
ATOM      4  C   UNL     1       5.223   1.101  20.150  0.00  0.00    +0.000 A 
ATOM      5  C   UNL     1       5.951   0.681  18.896  0.00  0.00    +0.000 A 
ATOM      6  C   UNL     1       7.341   0.389  18.616  0.00  0.00    +0.000 A 
ATOM      7  C   UNL     1       8.126   0.298  19.993  0.00  0.00    +0.000 A 
ATOM      8  C   UNL     1       8.750  -0.924  20.372  0.00  0.00    +0.000 C 
ATOM      9  N   UNL     1       9.366  -0.589  21.476  0.00  0.00    +0.000 N 
ATOM     10  C   UNL     1       9.547  -1.323  22.637  0.00  0.00    +0.000 C 
ATOM     11  O   UNL     1      10.722  -1.810  22.533  0.00  0.00    +0.000 OA
ATOM     12  C   UNL     1       9.612   0.704  21.748  0.00  0.00    +0.000 C 
ENDROOT
BRANCH   1  16
ATOM     13  C   UNL     1       8.272   4.639  24.991  0.00  0.00    +0.000 A 
ATOM     14  C   UNL     1       7.819   4.902  23.548  0.00  0.00    +0.000 A 
ATOM     15  C   UNL     1       7.830   3.958  22.429  0.00  0.00    +0.000 A 
ATOM     16  C   UNL     1       8.499   2.521  22.808  0.00  0.00    +0.000 A 
ATOM     17  C   UNL     1       9.117   2.279  24.164  0.00  0.00    +0.000 A 
ATOM     18  C   UNL     1       8.454   3.197  25.183  0.00  0.00    +0.000 A 
ENDBRANCH   1  16
BRANCH  10  19
ATOM     19  C   UNL     1       8.423  -2.265  22.806  0.00  0.00    +0.000 C 
BRANCH  19  20
ATOM     20  N   UNL     1       8.228  -3.439  23.509  0.00  0.00    +0.000 NA
ATOM     21  C   UNL     1       8.442  -3.353  24.957  0.00  0.00    +0.000 C 
ATOM     22  C   UNL     1       7.215  -2.828  25.566  0.00  0.00    +0.000 A 
ATOM     23  C   UNL     1       7.274  -2.008  26.694  0.00  0.00    +0.000 A 
ATOM     24  C   UNL     1       7.114  -0.509  26.884  0.00  0.00    +0.000 A 
ATOM     25  C   UNL     1       6.703  -0.132  25.466  0.00  0.00    +0.000 A 
ATOM     26  C   UNL     1       6.138  -0.667  24.275  0.00  0.00    +0.000 A 
ATOM     27  C   UNL     1       6.209  -2.154  24.579  0.00  0.00    +0.000 A 
ATOM     28  C   UNL     1       5.756  -3.256  23.766  0.00  0.00    +0.000 C 
ATOM     29  C   UNL     1       6.957  -4.037  23.268  0.00  0.00    +0.000 C 
BRANCH  28  30
ATOM     30  C   UNL     1       4.980  -4.206  24.711  0.00  0.00    +0.000 A 
ATOM     31  C   UNL     1       3.557  -3.966  24.274  0.00  0.00    +0.000 A 
ATOM     32  C   UNL     1       2.570  -4.940  23.754  0.00  0.00    +0.000 A 
ATOM     33  C   UNL     1       3.265  -6.282  23.855  0.00  0.00    +0.000 A 
ATOM     34  C   UNL     1       4.521  -6.818  24.165  0.00  0.00    +0.000 A 
ATOM     35  C   UNL     1       5.313  -5.623  24.805  0.00  0.00    +0.000 A 
ENDBRANCH  28  30
ENDBRANCH  19  20
ENDBRANCH  10  19
TORSDOF 4
ENDMDL
MODEL 5
REMARK VINA RESULT:      -8.9      1.769      2.837
REMARK  Name = 
REMARK  4 active torsions:
REMARK  status: ('A' for Active; 'I' for Inactive)
REMARK    1  A    between atoms: C_7  and  C_8
REMARK    2  A    between atoms: C_24  and  C_26
REMARK    3  A    between atoms: C_26  and  N_29
REMARK    4  A    between atoms: C_43  and  C_45
REMARK                            x       y       z     vdW  Elec       q    Type
REMARK                         _______ _______ _______ _____ _____    ______ ____
ROOT
ATOM      1  C   UNL     1       8.649   2.492  22.327  0.00  0.00    +0.000 C 
ATOM      2  C   UNL     1       7.974   1.608  21.581  0.00  0.00    +0.000 A 
ATOM      3  C   UNL     1       6.642   1.133  21.691  0.00  0.00    +0.000 A 
ATOM      4  C   UNL     1       6.029   0.340  20.677  0.00  0.00    +0.000 A 
ATOM      5  C   UNL     1       7.105  -0.283  19.821  0.00  0.00    +0.000 A 
ATOM      6  C   UNL     1       8.551  -0.243  19.875  0.00  0.00    +0.000 A 
ATOM      7  C   UNL     1       8.988   0.410  21.255  0.00  0.00    +0.000 A 
ATOM      8  C   UNL     1       9.747  -0.352  22.188  0.00  0.00    +0.000 C 
ATOM      9  N   UNL     1       9.999   0.529  23.122  0.00  0.00    +0.000 N 
ATOM     10  C   UNL     1      10.050   0.359  24.496  0.00  0.00    +0.000 C 
ATOM     11  O   UNL     1      11.292   0.228  24.761  0.00  0.00    +0.000 OA
ATOM     12  C   UNL     1       9.896   1.843  22.859  0.00  0.00    +0.000 C 
ENDROOT
BRANCH   1  16
ATOM     13  C   UNL     1       7.206   5.814  24.649  0.00  0.00    +0.000 A 
ATOM     14  C   UNL     1       7.883   4.571  25.245  0.00  0.00    +0.000 A 
ATOM     15  C   UNL     1       8.446   3.433  24.517  0.00  0.00    +0.000 A 
ATOM     16  C   UNL     1       8.206   3.518  22.907  0.00  0.00    +0.000 A 
ATOM     17  C   UNL     1       7.393   4.633  22.295  0.00  0.00    +0.000 A 
ATOM     18  C   UNL     1       7.460   5.854  23.205  0.00  0.00    +0.000 A 
ENDBRANCH   1  16
BRANCH  10  19
ATOM     19  C   UNL     1       9.143  -0.736  24.893  0.00  0.00    +0.000 C 
BRANCH  19  20
ATOM     20  N   UNL     1       9.303  -2.064  25.237  0.00  0.00    +0.000 NA
ATOM     21  C   UNL     1       8.583  -2.499  26.439  0.00  0.00    +0.000 C 
ATOM     22  C   UNL     1       7.201  -2.806  26.052  0.00  0.00    +0.000 A 
ATOM     23  C   UNL     1       6.146  -2.568  26.934  0.00  0.00    +0.000 A 
ATOM     24  C   UNL     1       5.089  -1.478  27.003  0.00  0.00    +0.000 A 
ATOM     25  C   UNL     1       5.409  -0.754  25.701  0.00  0.00    +0.000 A 
ATOM     26  C   UNL     1       6.031  -0.932  24.433  0.00  0.00    +0.000 A 
ATOM     27  C   UNL     1       6.752  -2.250  24.663  0.00  0.00    +0.000 A 
ATOM     28  C   UNL     1       7.555  -3.005  23.730  0.00  0.00    +0.000 C 
ATOM     29  C   UNL     1       9.005  -2.964  24.173  0.00  0.00    +0.000 C 
BRANCH  28  30
ATOM     30  C   UNL     1       7.101  -4.480  23.859  0.00  0.00    +0.000 A 
ATOM     31  C   UNL     1       5.602  -4.340  23.770  0.00  0.00    +0.000 A 
ATOM     32  C   UNL     1       4.670  -4.950  22.795  0.00  0.00    +0.000 A 
ATOM     33  C   UNL     1       5.540  -5.855  21.947  0.00  0.00    +0.000 A 
ATOM     34  C   UNL     1       6.890  -6.171  21.754  0.00  0.00    +0.000 A 
ATOM     35  C   UNL     1       7.627  -5.516  22.976  0.00  0.00    +0.000 A 
ENDBRANCH  28  30
ENDBRANCH  19  20
ENDBRANCH  10  19
TORSDOF 4
ENDMDL
MODEL 6
REMARK VINA RESULT:      -8.9      1.960      4.479
REMARK  Name = 
REMARK  4 active torsions:
REMARK  status: ('A' for Active; 'I' for Inactive)
REMARK    1  A    between atoms: C_7  and  C_8
REMARK    2  A    between atoms: C_24  and  C_26
REMARK    3  A    between atoms: C_26  and  N_29
REMARK    4  A    between atoms: C_43  and  C_45
REMARK                            x       y       z     vdW  Elec       q    Type
REMARK                         _______ _______ _______ _____ _____    ______ ____
ROOT
ATOM      1  C   UNL     1       7.218   1.909  21.812  0.00  0.00    +0.000 C 
ATOM      2  C   UNL     1       8.420   2.230  22.308  0.00  0.00    +0.000 A 
ATOM      3  C   UNL     1       9.648   1.520  22.287  0.00  0.00    +0.000 A 
ATOM      4  C   UNL     1      10.879   2.114  22.691  0.00  0.00    +0.000 A 
ATOM      5  C   UNL     1      10.586   3.315  23.557  0.00  0.00    +0.000 A 
ATOM      6  C   UNL     1       9.354   3.902  24.041  0.00  0.00    +0.000 A 
ATOM      7  C   UNL     1       8.164   2.894  23.745  0.00  0.00    +0.000 A 
ATOM      8  C   UNL     1       7.418   2.343  24.826  0.00  0.00    +0.000 C 
ATOM      9  N   UNL     1       6.487   1.668  24.203  0.00  0.00    +0.000 N 
ATOM     10  C   UNL     1       5.920   0.448  24.532  0.00  0.00    +0.000 C 
ATOM     11  O   UNL     1       4.830   0.745  25.125  0.00  0.00    +0.000 OA
ATOM     12  C   UNL     1       6.200   1.938  22.918  0.00  0.00    +0.000 C 
ENDROOT
BRANCH   1  16
ATOM     13  C   UNL     1       5.976  -0.146  18.243  0.00  0.00    +0.000 A 
ATOM     14  C   UNL     1       5.170   0.970  18.923  0.00  0.00    +0.000 A 
ATOM     15  C   UNL     1       5.554   1.749  20.101  0.00  0.00    +0.000 A 
ATOM     16  C   UNL     1       6.957   1.257  20.767  0.00  0.00    +0.000 A 
ATOM     17  C   UNL     1       7.695   0.050  20.237  0.00  0.00    +0.000 A 
ATOM     18  C   UNL     1       7.346  -0.137  18.765  0.00  0.00    +0.000 A 
ENDBRANCH   1  16
BRANCH  10  19
ATOM     19  C   UNL     1       6.903  -0.371  25.268  0.00  0.00    +0.000 C 
BRANCH  19  20
ATOM     20  N   UNL     1       7.888  -1.273  24.913  0.00  0.00    +0.000 NA
ATOM     21  C   UNL     1       8.264  -2.241  25.949  0.00  0.00    +0.000 C 
ATOM     22  C   UNL     1       7.295  -3.343  25.912  0.00  0.00    +0.000 A 
ATOM     23  C   UNL     1       6.927  -4.005  27.084  0.00  0.00    +0.000 A 
ATOM     24  C   UNL     1       5.684  -3.938  27.955  0.00  0.00    +0.000 A 
ATOM     25  C   UNL     1       4.834  -3.017  27.088  0.00  0.00    +0.000 A 
ATOM     26  C   UNL     1       4.678  -2.550  25.752  0.00  0.00    +0.000 A 
ATOM     27  C   UNL     1       5.973  -3.050  25.133  0.00  0.00    +0.000 A 
ATOM     28  C   UNL     1       6.417  -2.925  23.765  0.00  0.00    +0.000 C 
ATOM     29  C   UNL     1       7.600  -1.978  23.708  0.00  0.00    +0.000 C 
BRANCH  28  30
ATOM     30  C   UNL     1       6.952  -4.318  23.352  0.00  0.00    +0.000 A 
ATOM     31  C   UNL     1       5.854  -5.222  23.855  0.00  0.00    +0.000 A 
ATOM     32  C   UNL     1       5.019  -6.178  23.093  0.00  0.00    +0.000 A 
ATOM     33  C   UNL     1       5.580  -6.141  21.686  0.00  0.00    +0.000 A 
ATOM     34  C   UNL     1       6.515  -5.432  20.923  0.00  0.00    +0.000 A 
ATOM     35  C   UNL     1       7.338  -4.606  21.974  0.00  0.00    +0.000 A 
ENDBRANCH  28  30
ENDBRANCH  19  20
ENDBRANCH  10  19
TORSDOF 4
ENDMDL
MODEL 7
REMARK VINA RESULT:      -8.7      2.184      4.118
REMARK  Name = 
REMARK  4 active torsions:
REMARK  status: ('A' for Active; 'I' for Inactive)
REMARK    1  A    between atoms: C_7  and  C_8
REMARK    2  A    between atoms: C_24  and  C_26
REMARK    3  A    between atoms: C_26  and  N_29
REMARK    4  A    between atoms: C_43  and  C_45
REMARK                            x       y       z     vdW  Elec       q    Type
REMARK                         _______ _______ _______ _____ _____    ______ ____
ROOT
ATOM      1  C   UNL     1       7.607   1.157  22.119  0.00  0.00    +0.000 C 
ATOM      2  C   UNL     1       8.696   0.473  22.493  0.00  0.00    +0.000 A 
ATOM      3  C   UNL     1       9.146  -0.820  22.123  0.00  0.00    +0.000 A 
ATOM      4  C   UNL     1      10.442  -1.304  22.469  0.00  0.00    +0.000 A 
ATOM      5  C   UNL     1      10.976  -0.497  23.627  0.00  0.00    +0.000 A 
ATOM      6  C   UNL     1      10.420   0.584  24.413  0.00  0.00    +0.000 A 
ATOM      7  C   UNL     1       8.876   0.716  24.067  0.00  0.00    +0.000 A 
ATOM      8  C   UNL     1       7.903   0.509  25.087  0.00  0.00    +0.000 C 
ATOM      9  N   UNL     1       6.788   0.801  24.468  0.00  0.00    +0.000 N 
ATOM     10  C   UNL     1       5.542   0.208  24.580  0.00  0.00    +0.000 C 
ATOM     11  O   UNL     1       4.895   0.961  25.381  0.00  0.00    +0.000 OA
ATOM     12  C   UNL     1       6.813   1.531  23.339  0.00  0.00    +0.000 C 
ENDROOT
BRANCH   1  16
ATOM     13  C   UNL     1       5.946   0.935  18.157  0.00  0.00    +0.000 A 
ATOM     14  C   UNL     1       7.241   0.234  18.592  0.00  0.00    +0.000 A 
ATOM     15  C   UNL     1       7.835   0.219  19.931  0.00  0.00    +0.000 A 
ATOM     16  C   UNL     1       7.029   1.147  21.001  0.00  0.00    +0.000 A 
ATOM     17  C   UNL     1       5.853   1.993  20.575  0.00  0.00    +0.000 A 
ATOM     18  C   UNL     1       5.205   1.359  19.349  0.00  0.00    +0.000 A 
ENDBRANCH   1  16
BRANCH  10  19
ATOM     19  C   UNL     1       5.702  -1.213  24.948  0.00  0.00    +0.000 C 
BRANCH  19  20
ATOM     20  N   UNL     1       5.058  -2.389  24.614  0.00  0.00    +0.000 NA
ATOM     21  C   UNL     1       5.827  -3.315  23.775  0.00  0.00    +0.000 C 
ATOM     22  C   UNL     1       6.711  -4.093  24.651  0.00  0.00    +0.000 A 
ATOM     23  C   UNL     1       7.970  -4.501  24.209  0.00  0.00    +0.000 A 
ATOM     24  C   UNL     1       9.374  -3.996  24.495  0.00  0.00    +0.000 A 
ATOM     25  C   UNL     1       9.041  -2.962  25.564  0.00  0.00    +0.000 A 
ATOM     26  C   UNL     1       8.050  -2.607  26.522  0.00  0.00    +0.000 A 
ATOM     27  C   UNL     1       6.911  -3.515  26.088  0.00  0.00    +0.000 A 
ATOM     28  C   UNL     1       5.605  -3.660  26.687  0.00  0.00    +0.000 C 
ATOM     29  C   UNL     1       4.558  -3.100  25.743  0.00  0.00    +0.000 C 
BRANCH  28  30
ATOM     30  C   UNL     1       5.337  -5.182  26.784  0.00  0.00    +0.000 A 
ATOM     31  C   UNL     1       6.273  -5.580  27.897  0.00  0.00    +0.000 A 
ATOM     32  C   UNL     1       5.954  -6.230  29.189  0.00  0.00    +0.000 A 
ATOM     33  C   UNL     1       4.469  -6.518  29.117  0.00  0.00    +0.000 A 
ATOM     34  C   UNL     1       3.366  -6.263  28.294  0.00  0.00    +0.000 A 
ATOM     35  C   UNL     1       3.987  -5.705  26.964  0.00  0.00    +0.000 A 
ENDBRANCH  28  30
ENDBRANCH  19  20
ENDBRANCH  10  19
TORSDOF 4
ENDMDL
MODEL 8
REMARK VINA RESULT:      -8.6      2.001      7.273
REMARK  Name = 
REMARK  4 active torsions:
REMARK  status: ('A' for Active; 'I' for Inactive)
REMARK    1  A    between atoms: C_7  and  C_8
REMARK    2  A    between atoms: C_24  and  C_26
REMARK    3  A    between atoms: C_26  and  N_29
REMARK    4  A    between atoms: C_43  and  C_45
REMARK                            x       y       z     vdW  Elec       q    Type
REMARK                         _______ _______ _______ _____ _____    ______ ____
ROOT
ATOM      1  C   UNL     1       5.948  -3.242  26.555  0.00  0.00    +0.000 C 
ATOM      2  C   UNL     1       6.404  -1.996  26.737  0.00  0.00    +0.000 A 
ATOM      3  C   UNL     1       5.849  -0.745  26.364  0.00  0.00    +0.000 A 
ATOM      4  C   UNL     1       6.382   0.494  26.825  0.00  0.00    +0.000 A 
ATOM      5  C   UNL     1       7.803   0.277  27.285  0.00  0.00    +0.000 A 
ATOM      6  C   UNL     1       8.667  -0.885  27.301  0.00  0.00    +0.000 A 
ATOM      7  C   UNL     1       7.981  -2.035  26.449  0.00  0.00    +0.000 A 
ATOM      8  C   UNL     1       8.630  -2.533  25.282  0.00  0.00    +0.000 C 
ATOM      9  N   UNL     1       7.839  -3.511  24.923  0.00  0.00    +0.000 N 
ATOM     10  C   UNL     1       7.474  -3.922  23.652  0.00  0.00    +0.000 C 
ATOM     11  O   UNL     1       8.245  -4.905  23.394  0.00  0.00    +0.000 OA
ATOM     12  C   UNL     1       6.977  -4.043  25.807  0.00  0.00    +0.000 C 
ENDROOT
BRANCH   1  16
ATOM     13  C   UNL     1       1.846  -4.482  26.181  0.00  0.00    +0.000 A 
ATOM     14  C   UNL     1       2.705  -3.972  25.015  0.00  0.00    +0.000 A 
ATOM     15  C   UNL     1       4.117  -3.587  25.055  0.00  0.00    +0.000 A 
ATOM     16  C   UNL     1       4.754  -3.640  26.555  0.00  0.00    +0.000 A 
ATOM     17  C   UNL     1       3.901  -3.967  27.757  0.00  0.00    +0.000 A 
ATOM     18  C   UNL     1       2.719  -4.819  27.309  0.00  0.00    +0.000 A 
ENDBRANCH   1  16
BRANCH  10  19
ATOM     19  C   UNL     1       7.501  -2.767  22.733  0.00  0.00    +0.000 C 
BRANCH  19  20
ATOM     20  N   UNL     1       6.631  -1.736  22.431  0.00  0.00    +0.000 NA
ATOM     21  C   UNL     1       6.735  -0.549  23.287  0.00  0.00    +0.000 C 
ATOM     22  C   UNL     1       7.834   0.280  22.779  0.00  0.00    +0.000 A 
ATOM     23  C   UNL     1       8.624   1.027  23.655  0.00  0.00    +0.000 A 
ATOM     24  C   UNL     1      10.028   0.824  24.198  0.00  0.00    +0.000 A 
ATOM     25  C   UNL     1      10.427  -0.399  23.380  0.00  0.00    +0.000 A 
ATOM     26  C   UNL     1      10.120  -1.104  22.182  0.00  0.00    +0.000 A 
ATOM     27  C   UNL     1       8.814  -0.432  21.793  0.00  0.00    +0.000 A 
ATOM     28  C   UNL     1       7.993  -0.678  20.632  0.00  0.00    +0.000 C 
ATOM     29  C   UNL     1       6.693  -1.326  21.067  0.00  0.00    +0.000 C 
BRANCH  28  30
ATOM     30  C   UNL     1       7.618   0.712  20.061  0.00  0.00    +0.000 A 
ATOM     31  C   UNL     1       7.274   0.365  18.634  0.00  0.00    +0.000 A 
ATOM     32  C   UNL     1       6.003   0.586  17.906  0.00  0.00    +0.000 A 
ATOM     33  C   UNL     1       5.131   1.349  18.882  0.00  0.00    +0.000 A 
ATOM     34  C   UNL     1       5.132   1.774  20.215  0.00  0.00    +0.000 A 
ATOM     35  C   UNL     1       6.608   1.549  20.700  0.00  0.00    +0.000 A 
ENDBRANCH  28  30
ENDBRANCH  19  20
ENDBRANCH  10  19
TORSDOF 4
ENDMDL
MODEL 9
REMARK VINA RESULT:      -8.6      1.912      3.484
REMARK  Name = 
REMARK  4 active torsions:
REMARK  status: ('A' for Active; 'I' for Inactive)
REMARK    1  A    between atoms: C_7  and  C_8
REMARK    2  A    between atoms: C_24  and  C_26
REMARK    3  A    between atoms: C_26  and  N_29
REMARK    4  A    between atoms: C_43  and  C_45
REMARK                            x       y       z     vdW  Elec       q    Type
REMARK                         _______ _______ _______ _____ _____    ______ ____
ROOT
ATOM      1  C   UNL     1       8.638   1.715  21.907  0.00  0.00    +0.000 C 
ATOM      2  C   UNL     1       7.660   1.467  21.026  0.00  0.00    +0.000 A 
ATOM      3  C   UNL     1       6.251   1.462  21.186  0.00  0.00    +0.000 A 
ATOM      4  C   UNL     1       5.357   1.375  20.078  0.00  0.00    +0.000 A 
ATOM      5  C   UNL     1       6.098   0.806  18.892  0.00  0.00    +0.000 A 
ATOM      6  C   UNL     1       7.455   0.335  18.713  0.00  0.00    +0.000 A 
ATOM      7  C   UNL     1       8.143   0.221  20.139  0.00  0.00    +0.000 A 
ATOM      8  C   UNL     1       8.589  -1.047  20.609  0.00  0.00    +0.000 C 
ATOM      9  N   UNL     1       9.178  -0.733  21.734  0.00  0.00    +0.000 N 
ATOM     10  C   UNL     1       9.200  -1.423  22.935  0.00  0.00    +0.000 C 
ATOM     11  O   UNL     1      10.310  -2.053  22.926  0.00  0.00    +0.000 OA
ATOM     12  C   UNL     1       9.566   0.534  21.964  0.00  0.00    +0.000 C 
ENDROOT
BRANCH   1  16
ATOM     13  C   UNL     1       8.552   4.763  24.941  0.00  0.00    +0.000 A 
ATOM     14  C   UNL     1       8.251   5.012  23.456  0.00  0.00    +0.000 A 
ATOM     15  C   UNL     1       8.207   4.019  22.381  0.00  0.00    +0.000 A 
ATOM     16  C   UNL     1       8.627   2.523  22.872  0.00  0.00    +0.000 A 
ATOM     17  C   UNL     1       9.100   2.266  24.282  0.00  0.00    +0.000 A 
ATOM     18  C   UNL     1       8.505   3.322  25.206  0.00  0.00    +0.000 A 
ENDBRANCH   1  16
BRANCH  10  19
ATOM     19  C   UNL     1       7.961  -2.213  23.074  0.00  0.00    +0.000 C 
BRANCH  19  20
ATOM     20  N   UNL     1       6.645  -1.923  23.379  0.00  0.00    +0.000 NA
ATOM     21  C   UNL     1       5.903  -2.989  24.061  0.00  0.00    +0.000 C 
ATOM     22  C   UNL     1       6.212  -2.911  25.493  0.00  0.00    +0.000 A 
ATOM     23  C   UNL     1       6.275  -4.068  26.271  0.00  0.00    +0.000 A 
ATOM     24  C   UNL     1       7.439  -4.868  26.831  0.00  0.00    +0.000 A 
ATOM     25  C   UNL     1       8.581  -3.945  26.422  0.00  0.00    +0.000 A 
ATOM     26  C   UNL     1       8.871  -2.597  26.067  0.00  0.00    +0.000 A 
ATOM     27  C   UNL     1       7.465  -2.057  25.865  0.00  0.00    +0.000 A 
ATOM     28  C   UNL     1       7.065  -0.714  25.518  0.00  0.00    +0.000 C 
ATOM     29  C   UNL     1       6.489  -0.712  24.115  0.00  0.00    +0.000 C 
BRANCH  28  30
ATOM     30  C   UNL     1       5.899  -0.347  26.468  0.00  0.00    +0.000 A 
ATOM     31  C   UNL     1       6.647   0.148  27.681  0.00  0.00    +0.000 A 
ATOM     32  C   UNL     1       6.573   1.472  28.340  0.00  0.00    +0.000 A 
ATOM     33  C   UNL     1       5.483   2.212  27.592  0.00  0.00    +0.000 A 
ATOM     34  C   UNL     1       4.665   2.063  26.466  0.00  0.00    +0.000 A 
ATOM     35  C   UNL     1       4.834   0.559  26.050  0.00  0.00    +0.000 A 
ENDBRANCH  28  30
ENDBRANCH  19  20
ENDBRANCH  10  19
TORSDOF 4
ENDMDL
