MODEL 1
REMARK VINA RESULT:      -8.7      0.000      0.000
REMARK  Name = 
REMARK  4 active torsions:
REMARK  status: ('A' for Active; 'I' for Inactive)
REMARK    1  A    between atoms: C_8  and  C_9
REMARK    2  A    between atoms: C_9  and  N_12
REMARK    3  A    between atoms: N_19  and  N_20
REMARK    4  A    between atoms: C_27  and  C_29
REMARK                            x       y       z     vdW  Elec       q    Type
REMARK                         _______ _______ _______ _____ _____    ______ ____
ROOT
ATOM      1  N   UNL     1       9.017   1.912  23.074  0.00  0.00    +0.000 NA
ATOM      2  C   UNL     1      10.173   1.326  23.553  0.00  0.00    +0.000 C 
ATOM      3  C   UNL     1       9.972   0.544  24.876  0.00  0.00    +0.000 C 
ATOM      4  N   UNL     1       8.655   0.419  25.318  0.00  0.00    +0.000 NA
ATOM      5  C   UNL     1       8.090   1.663  25.344  0.00  0.00    +0.000 C 
ATOM      6  C   UNL     1       8.310   2.537  24.098  0.00  0.00    +0.000 C 
ENDROOT
BRANCH   4   7
ATOM      7  N   UNL     1       8.093  -0.758  25.696  0.00  0.00    +0.000 NA
ATOM      8  C   UNL     1       8.457  -1.511  26.800  0.00  0.00    +0.000 C 
ATOM      9  C   UNL     1       8.519  -3.028  26.464  0.00  0.00    +0.000 C 
ATOM     10  C   UNL     1       7.086  -3.512  26.245  0.00  0.00    +0.000 C 
ATOM     11  C   UNL     1       6.219  -2.472  25.735  0.00  0.00    +0.000 C 
ATOM     12  C   UNL     1       6.750  -1.097  25.385  0.00  0.00    +0.000 C 
BRANCH  10  13
ATOM     13  C   UNL     1       7.101  -4.820  25.561  0.00  0.00    +0.000 C 
ATOM     14  O   UNL     1       7.784  -5.746  26.101  0.00  0.00    +0.000 OA
ATOM     15  N   UNL     1       6.698  -5.120  24.293  0.00  0.00    +0.000 N 
ATOM     16  C   UNL     1       5.469  -5.925  24.152  0.00  0.00    +0.000 C 
ATOM     17  C   UNL     1       4.840  -5.731  22.797  0.00  0.00    +0.000 C 
ATOM     18  C   UNL     1       5.802  -5.293  21.730  0.00  0.00    +0.000 C 
ATOM     19  C   UNL     1       7.197  -5.790  21.978  0.00  0.00    +0.000 C 
ATOM     20  C   UNL     1       7.752  -5.505  23.333  0.00  0.00    +0.000 C 
ENDBRANCH  10  13
ENDBRANCH   4   7
BRANCH   1  21
ATOM     21  C   UNL     1       8.754   2.030  21.634  0.00  0.00    +0.000 C 
BRANCH  21  26
ATOM     22  C   UNL     1       6.741  -2.029  21.744  0.00  0.00    +0.000 A 
ATOM     23  C   UNL     1       8.094  -1.408  21.977  0.00  0.00    +0.000 A 
ATOM     24  C   UNL     1       8.875  -0.642  20.952  0.00  0.00    +0.000 A 
ATOM     25  C   UNL     1       8.096   0.119  20.099  0.00  0.00    +0.000 A 
ATOM     26  C   UNL     1       7.735   1.455  21.215  0.00  0.00    +0.000 A 
ATOM     27  C   UNL     1       6.348   1.768  21.124  0.00  0.00    +0.000 A 
ATOM     28  C   UNL     1       5.800   1.629  19.874  0.00  0.00    +0.000 A 
ATOM     29  C   UNL     1       5.893   0.429  18.916  0.00  0.00    +0.000 A 
ATOM     30  C   UNL     1       6.747  -0.480  19.626  0.00  0.00    +0.000 A 
ATOM     31  C   UNL     1       6.009  -1.494  20.562  0.00  0.00    +0.000 A 
ENDBRANCH  21  26
ENDBRANCH   1  21
TORSDOF 4
ENDMDL
MODEL 2
REMARK VINA RESULT:      -7.3      2.298      3.967
REMARK  Name = 
REMARK  4 active torsions:
REMARK  status: ('A' for Active; 'I' for Inactive)
REMARK    1  A    between atoms: C_8  and  C_9
REMARK    2  A    between atoms: C_9  and  N_12
REMARK    3  A    between atoms: N_19  and  N_20
REMARK    4  A    between atoms: C_27  and  C_29
REMARK                            x       y       z     vdW  Elec       q    Type
REMARK                         _______ _______ _______ _____ _____    ______ ____
ROOT
ATOM      1  N   UNL     1       9.287  -0.274  24.654  0.00  0.00    +0.000 NA
ATOM      2  C   UNL     1      10.145  -1.052  23.902  0.00  0.00    +0.000 C 
ATOM      3  C   UNL     1       9.728  -2.544  23.827  0.00  0.00    +0.000 C 
ATOM      4  N   UNL     1       8.494  -2.862  24.394  0.00  0.00    +0.000 NA
ATOM      5  C   UNL     1       8.464  -2.365  25.666  0.00  0.00    +0.000 C 
ATOM      6  C   UNL     1       8.939  -0.912  25.841  0.00  0.00    +0.000 C 
ENDROOT
BRANCH   4   7
ATOM      7  N   UNL     1       7.538  -3.592  23.763  0.00  0.00    +0.000 NA
ATOM      8  C   UNL     1       6.676  -3.122  22.786  0.00  0.00    +0.000 C 
ATOM      9  C   UNL     1       5.224  -3.636  23.006  0.00  0.00    +0.000 C 
ATOM     10  C   UNL     1       5.214  -5.135  22.706  0.00  0.00    +0.000 C 
ATOM     11  C   UNL     1       6.486  -5.767  22.981  0.00  0.00    +0.000 C 
ATOM     12  C   UNL     1       7.639  -4.996  23.589  0.00  0.00    +0.000 C 
BRANCH  10  13
ATOM     13  C   UNL     1       3.987  -5.745  23.254  0.00  0.00    +0.000 C 
ATOM     14  O   UNL     1       3.088  -6.083  22.421  0.00  0.00    +0.000 OA
ATOM     15  N   UNL     1       3.555  -5.769  24.547  0.00  0.00    +0.000 N 
ATOM     16  C   UNL     1       3.591  -7.070  25.243  0.00  0.00    +0.000 C 
ATOM     17  C   UNL     1       3.630  -6.891  26.739  0.00  0.00    +0.000 C 
ATOM     18  C   UNL     1       3.057  -5.587  27.216  0.00  0.00    +0.000 C 
ATOM     19  C   UNL     1       1.982  -5.067  26.305  0.00  0.00    +0.000 C 
ATOM     20  C   UNL     1       2.346  -4.982  24.861  0.00  0.00    +0.000 C 
ENDBRANCH  10  13
ENDBRANCH   4   7
BRANCH   1  21
ATOM     21  C   UNL     1       9.011   1.125  24.303  0.00  0.00    +0.000 C 
BRANCH  21  26
ATOM     22  C   UNL     1       7.242   0.313  20.210  0.00  0.00    +0.000 A 
ATOM     23  C   UNL     1       8.581   0.343  20.900  0.00  0.00    +0.000 A 
ATOM     24  C   UNL     1       9.170   1.543  21.579  0.00  0.00    +0.000 A 
ATOM     25  C   UNL     1       8.241   2.347  22.215  0.00  0.00    +0.000 A 
ATOM     26  C   UNL     1       7.973   1.331  23.649  0.00  0.00    +0.000 A 
ATOM     27  C   UNL     1       6.573   1.251  23.901  0.00  0.00    +0.000 A 
ATOM     28  C   UNL     1       5.863   2.388  23.609  0.00  0.00    +0.000 A 
ATOM     29  C   UNL     1       5.881   3.223  22.316  0.00  0.00    +0.000 A 
ATOM     30  C   UNL     1       6.872   2.555  21.521  0.00  0.00    +0.000 A 
ATOM     31  C   UNL     1       6.325   1.424  20.587  0.00  0.00    +0.000 A 
ENDBRANCH  21  26
ENDBRANCH   1  21
TORSDOF 4
ENDMDL
MODEL 3
REMARK VINA RESULT:      -7.2      2.110      4.269
REMARK  Name = 
REMARK  4 active torsions:
REMARK  status: ('A' for Active; 'I' for Inactive)
REMARK    1  A    between atoms: C_8  and  C_9
REMARK    2  A    between atoms: C_9  and  N_12
REMARK    3  A    between atoms: N_19  and  N_20
REMARK    4  A    between atoms: C_27  and  C_29
REMARK                            x       y       z     vdW  Elec       q    Type
REMARK                         _______ _______ _______ _____ _____    ______ ____
ROOT
ATOM      1  N   UNL     1       8.439   0.344  21.735  0.00  0.00    +0.000 NA
ATOM      2  C   UNL     1       7.445  -0.553  21.396  0.00  0.00    +0.000 C 
ATOM      3  C   UNL     1       7.667  -1.975  21.973  0.00  0.00    +0.000 C 
ATOM      4  N   UNL     1       8.738  -2.115  22.856  0.00  0.00    +0.000 NA
ATOM      5  C   UNL     1       9.856  -1.602  22.262  0.00  0.00    +0.000 C 
ATOM      6  C   UNL     1       9.701  -0.225  21.593  0.00  0.00    +0.000 C 
ENDROOT
BRANCH   4   7
ATOM      7  N   UNL     1       8.643  -2.715  24.071  0.00  0.00    +0.000 NA
ATOM      8  C   UNL     1       9.428  -3.765  24.518  0.00  0.00    +0.000 C 
ATOM      9  C   UNL     1       8.581  -4.840  25.258  0.00  0.00    +0.000 C 
ATOM     10  C   UNL     1       8.124  -4.234  26.585  0.00  0.00    +0.000 C 
ATOM     11  C   UNL     1       7.966  -2.798  26.518  0.00  0.00    +0.000 C 
ATOM     12  C   UNL     1       8.157  -2.040  25.221  0.00  0.00    +0.000 C 
BRANCH  10  13
ATOM     13  C   UNL     1       7.023  -5.042  27.148  0.00  0.00    +0.000 C 
ATOM     14  O   UNL     1       7.343  -5.970  27.955  0.00  0.00    +0.000 OA
ATOM     15  N   UNL     1       5.725  -5.112  26.737  0.00  0.00    +0.000 N 
ATOM     16  C   UNL     1       4.707  -4.510  27.621  0.00  0.00    +0.000 C 
ATOM     17  C   UNL     1       3.457  -4.159  26.857  0.00  0.00    +0.000 C 
ATOM     18  C   UNL     1       3.255  -4.967  25.606  0.00  0.00    +0.000 C 
ATOM     19  C   UNL     1       3.857  -6.339  25.708  0.00  0.00    +0.000 C 
ATOM     20  C   UNL     1       5.284  -6.387  26.137  0.00  0.00    +0.000 C 
ENDBRANCH  10  13
ENDBRANCH   4   7
BRANCH   1  21
ATOM     21  C   UNL     1       8.144   1.763  21.973  0.00  0.00    +0.000 C 
BRANCH  21  26
ATOM     22  C   UNL     1       8.264   4.748  25.381  0.00  0.00    +0.000 A 
ATOM     23  C   UNL     1       9.143   4.232  24.271  0.00  0.00    +0.000 A 
ATOM     24  C   UNL     1       9.561   2.802  24.103  0.00  0.00    +0.000 A 
ATOM     25  C   UNL     1       8.595   1.883  24.469  0.00  0.00    +0.000 A 
ATOM     26  C   UNL     1       7.554   2.030  23.035  0.00  0.00    +0.000 A 
ATOM     27  C   UNL     1       6.196   2.107  23.458  0.00  0.00    +0.000 A 
ATOM     28  C   UNL     1       5.889   1.363  24.569  0.00  0.00    +0.000 A 
ATOM     29  C   UNL     1       6.616   1.321  25.924  0.00  0.00    +0.000 A 
ATOM     30  C   UNL     1       7.730   2.201  25.715  0.00  0.00    +0.000 A 
ATOM     31  C   UNL     1       7.474   3.700  26.085  0.00  0.00    +0.000 A 
ENDBRANCH  21  26
ENDBRANCH   1  21
TORSDOF 4
ENDMDL
MODEL 4
REMARK VINA RESULT:      -7.1      2.545      6.945
REMARK  Name = 
REMARK  4 active torsions:
REMARK  status: ('A' for Active; 'I' for Inactive)
REMARK    1  A    between atoms: C_8  and  C_9
REMARK    2  A    between atoms: C_9  and  N_12
REMARK    3  A    between atoms: N_19  and  N_20
REMARK    4  A    between atoms: C_27  and  C_29
REMARK                            x       y       z     vdW  Elec       q    Type
REMARK                         _______ _______ _______ _____ _____    ______ ____
ROOT
ATOM      1  N   UNL     1       6.028  -4.184  27.047  0.00  0.00    +0.000 NA
ATOM      2  C   UNL     1       6.153  -2.832  27.301  0.00  0.00    +0.000 C 
ATOM      3  C   UNL     1       7.387  -2.183  26.623  0.00  0.00    +0.000 C 
ATOM      4  N   UNL     1       8.105  -3.001  25.751  0.00  0.00    +0.000 NA
ATOM      5  C   UNL     1       8.406  -4.164  26.401  0.00  0.00    +0.000 C 
ATOM      6  C   UNL     1       7.253  -4.834  27.168  0.00  0.00    +0.000 C 
ENDROOT
BRANCH   4   7
ATOM      7  N   UNL     1       8.465  -2.634  24.493  0.00  0.00    +0.000 NA
ATOM      8  C   UNL     1       9.760  -2.410  24.055  0.00  0.00    +0.000 C 
ATOM      9  C   UNL     1       9.849  -1.142  23.158  0.00  0.00    +0.000 C 
ATOM     10  C   UNL     1       9.148  -1.459  21.838  0.00  0.00    +0.000 C 
ATOM     11  C   UNL     1       8.084  -2.427  21.990  0.00  0.00    +0.000 C 
ATOM     12  C   UNL     1       7.690  -2.964  23.351  0.00  0.00    +0.000 C 
BRANCH  10  13
ATOM     13  C   UNL     1       8.866  -0.206  21.111  0.00  0.00    +0.000 C 
ATOM     14  O   UNL     1       9.677   0.757  21.283  0.00  0.00    +0.000 OA
ATOM     15  N   UNL     1       7.719   0.168  20.475  0.00  0.00    +0.000 N 
ATOM     16  C   UNL     1       7.756   0.223  19.000  0.00  0.00    +0.000 C 
ATOM     17  C   UNL     1       6.374   0.100  18.412  0.00  0.00    +0.000 C 
ATOM     18  C   UNL     1       5.272   0.526  19.339  0.00  0.00    +0.000 C 
ATOM     19  C   UNL     1       5.716   1.587  20.305  0.00  0.00    +0.000 C 
ATOM     20  C   UNL     1       6.958   1.282  21.073  0.00  0.00    +0.000 C 
ENDBRANCH  10  13
ENDBRANCH   4   7
BRANCH   1  21
ATOM     21  C   UNL     1       4.712  -4.822  26.910  0.00  0.00    +0.000 C 
BRANCH  21  26
ATOM     22  C   UNL     1       1.581  -7.074  24.531  0.00  0.00    +0.000 A 
ATOM     23  C   UNL     1       2.342  -7.184  25.827  0.00  0.00    +0.000 A 
ATOM     24  C   UNL     1       3.835  -7.254  25.942  0.00  0.00    +0.000 A 
ATOM     25  C   UNL     1       4.511  -6.491  25.008  0.00  0.00    +0.000 A 
ATOM     26  C   UNL     1       4.257  -4.898  25.756  0.00  0.00    +0.000 A 
ATOM     27  C   UNL     1       3.877  -3.970  24.744  0.00  0.00    +0.000 A 
ATOM     28  C   UNL     1       4.463  -4.171  23.519  0.00  0.00    +0.000 A 
ATOM     29  C   UNL     1       4.556  -5.472  22.704  0.00  0.00    +0.000 A 
ATOM     30  C   UNL     1       3.937  -6.435  23.570  0.00  0.00    +0.000 A 
ATOM     31  C   UNL     1       2.395  -6.615  23.372  0.00  0.00    +0.000 A 
ENDBRANCH  21  26
ENDBRANCH   1  21
TORSDOF 4
ENDMDL
MODEL 5
REMARK VINA RESULT:      -7.1      2.070      4.228
REMARK  Name = 
REMARK  4 active torsions:
REMARK  status: ('A' for Active; 'I' for Inactive)
REMARK    1  A    between atoms: C_8  and  C_9
REMARK    2  A    between atoms: C_9  and  N_12
REMARK    3  A    between atoms: N_19  and  N_20
REMARK    4  A    between atoms: C_27  and  C_29
REMARK                            x       y       z     vdW  Elec       q    Type
REMARK                         _______ _______ _______ _____ _____    ______ ____
ROOT
ATOM      1  N   UNL     1       8.140   0.374  21.469  0.00  0.00    +0.000 NA
ATOM      2  C   UNL     1       7.065  -0.466  21.253  0.00  0.00    +0.000 C 
ATOM      3  C   UNL     1       7.239  -1.873  21.880  0.00  0.00    +0.000 C 
ATOM      4  N   UNL     1       8.367  -2.049  22.682  0.00  0.00    +0.000 NA
ATOM      5  C   UNL     1       9.464  -1.641  21.977  0.00  0.00    +0.000 C 
ATOM      6  C   UNL     1       9.346  -0.288  21.256  0.00  0.00    +0.000 C 
ENDROOT
BRANCH   4   7
ATOM      7  N   UNL     1       8.332  -2.588  23.928  0.00  0.00    +0.000 NA
ATOM      8  C   UNL     1       9.245  -3.493  24.444  0.00  0.00    +0.000 C 
ATOM      9  C   UNL     1       8.539  -4.631  25.236  0.00  0.00    +0.000 C 
ATOM     10  C   UNL     1       7.978  -4.021  26.520  0.00  0.00    +0.000 C 
ATOM     11  C   UNL     1       7.627  -2.626  26.369  0.00  0.00    +0.000 C 
ATOM     12  C   UNL     1       7.736  -1.922  25.031  0.00  0.00    +0.000 C 
BRANCH  10  13
ATOM     13  C   UNL     1       6.989  -4.939  27.117  0.00  0.00    +0.000 C 
ATOM     14  O   UNL     1       7.437  -5.871  27.857  0.00  0.00    +0.000 OA
ATOM     15  N   UNL     1       5.674  -5.100  26.791  0.00  0.00    +0.000 N 
ATOM     16  C   UNL     1       4.676  -4.621  27.768  0.00  0.00    +0.000 C 
ATOM     17  C   UNL     1       3.351  -4.345  27.106  0.00  0.00    +0.000 C 
ATOM     18  C   UNL     1       3.127  -5.114  25.836  0.00  0.00    +0.000 C 
ATOM     19  C   UNL     1       3.842  -6.434  25.832  0.00  0.00    +0.000 C 
ATOM     20  C   UNL     1       5.296  -6.381  26.162  0.00  0.00    +0.000 C 
ENDBRANCH  10  13
ENDBRANCH   4   7
BRANCH   1  21
ATOM     21  C   UNL     1       7.960   1.819  21.659  0.00  0.00    +0.000 C 
BRANCH  21  26
ATOM     22  C   UNL     1       6.594   1.639  25.976  0.00  0.00    +0.000 A 
ATOM     23  C   UNL     1       6.070   1.363  24.590  0.00  0.00    +0.000 A 
ATOM     24  C   UNL     1       5.973   2.378  23.492  0.00  0.00    +0.000 A 
ATOM     25  C   UNL     1       7.001   3.303  23.482  0.00  0.00    +0.000 A 
ATOM     26  C   UNL     1       8.262   2.266  22.779  0.00  0.00    +0.000 A 
ATOM     27  C   UNL     1       9.468   2.442  23.518  0.00  0.00    +0.000 A 
ATOM     28  C   UNL     1       9.680   3.713  23.992  0.00  0.00    +0.000 A 
ATOM     29  C   UNL     1       8.715   4.612  24.785  0.00  0.00    +0.000 A 
ATOM     30  C   UNL     1       7.520   3.819  24.848  0.00  0.00    +0.000 A 
ATOM     31  C   UNL     1       7.409   2.880  26.095  0.00  0.00    +0.000 A 
ENDBRANCH  21  26
ENDBRANCH   1  21
TORSDOF 4
ENDMDL
MODEL 6
REMARK VINA RESULT:      -7.0      3.054      7.717
REMARK  Name = 
REMARK  4 active torsions:
REMARK  status: ('A' for Active; 'I' for Inactive)
REMARK    1  A    between atoms: C_8  and  C_9
REMARK    2  A    between atoms: C_9  and  N_12
REMARK    3  A    between atoms: N_19  and  N_20
REMARK    4  A    between atoms: C_27  and  C_29
REMARK                            x       y       z     vdW  Elec       q    Type
REMARK                         _______ _______ _______ _____ _____    ______ ____
ROOT
ATOM      1  N   UNL     1       7.408  -3.337  24.428  0.00  0.00    +0.000 NA
ATOM      2  C   UNL     1       8.722  -3.605  24.763  0.00  0.00    +0.000 C 
ATOM      3  C   UNL     1       9.752  -2.771  23.959  0.00  0.00    +0.000 C 
ATOM      4  N   UNL     1       9.222  -1.782  23.130  0.00  0.00    +0.000 NA
ATOM      5  C   UNL     1       8.265  -2.351  22.338  0.00  0.00    +0.000 C 
ATOM      6  C   UNL     1       7.247  -3.261  23.048  0.00  0.00    +0.000 C 
ENDROOT
BRANCH   4   7
ATOM      7  N   UNL     1       9.657  -0.495  23.115  0.00  0.00    +0.000 NA
ATOM      8  C   UNL     1      10.570   0.060  23.996  0.00  0.00    +0.000 C 
ATOM      9  C   UNL     1      10.128   1.478  24.461  0.00  0.00    +0.000 C 
ATOM     10  C   UNL     1      10.269   2.420  23.266  0.00  0.00    +0.000 C 
ATOM     11  C   UNL     1      10.082   1.747  21.999  0.00  0.00    +0.000 C 
ATOM     12  C   UNL     1       9.696   0.283  21.929  0.00  0.00    +0.000 C 
BRANCH  10  13
ATOM     13  C   UNL     1       9.520   3.666  23.523  0.00  0.00    +0.000 C 
ATOM     14  O   UNL     1      10.198   4.692  23.844  0.00  0.00    +0.000 OA
ATOM     15  N   UNL     1       8.180   3.826  23.720  0.00  0.00    +0.000 N 
ATOM     16  C   UNL     1       7.419   4.498  22.648  0.00  0.00    +0.000 C 
ATOM     17  C   UNL     1       5.957   4.138  22.707  0.00  0.00    +0.000 C 
ATOM     18  C   UNL     1       5.484   3.710  24.066  0.00  0.00    +0.000 C 
ATOM     19  C   UNL     1       6.267   4.355  25.174  0.00  0.00    +0.000 C 
ATOM     20  C   UNL     1       7.750   4.232  25.073  0.00  0.00    +0.000 C 
ENDBRANCH  10  13
ENDBRANCH   4   7
BRANCH   1  21
ATOM     21  C   UNL     1       6.336  -3.378  25.430  0.00  0.00    +0.000 C 
BRANCH  21  26
ATOM     22  C   UNL     1       3.436  -6.189  23.374  0.00  0.00    +0.000 A 
ATOM     23  C   UNL     1       3.864  -4.745  23.334  0.00  0.00    +0.000 A 
ATOM     24  C   UNL     1       3.774  -3.791  24.487  0.00  0.00    +0.000 A 
ATOM     25  C   UNL     1       4.016  -4.370  25.720  0.00  0.00    +0.000 A 
ATOM     26  C   UNL     1       5.787  -4.481  25.600  0.00  0.00    +0.000 A 
ATOM     27  C   UNL     1       6.198  -5.770  26.047  0.00  0.00    +0.000 A 
ATOM     28  C   UNL     1       5.453  -6.296  27.072  0.00  0.00    +0.000 A 
ATOM     29  C   UNL     1       3.923  -6.424  27.176  0.00  0.00    +0.000 A 
ATOM     30  C   UNL     1       3.469  -5.798  25.968  0.00  0.00    +0.000 A 
ATOM     31  C   UNL     1       3.300  -6.758  24.743  0.00  0.00    +0.000 A 
ENDBRANCH  21  26
ENDBRANCH   1  21
TORSDOF 4
ENDMDL
MODEL 7
REMARK VINA RESULT:      -6.8      2.667      7.002
REMARK  Name = 
REMARK  4 active torsions:
REMARK  status: ('A' for Active; 'I' for Inactive)
REMARK    1  A    between atoms: C_8  and  C_9
REMARK    2  A    between atoms: C_9  and  N_12
REMARK    3  A    between atoms: N_19  and  N_20
REMARK    4  A    between atoms: C_27  and  C_29
REMARK                            x       y       z     vdW  Elec       q    Type
REMARK                         _______ _______ _______ _____ _____    ______ ____
ROOT
ATOM      1  N   UNL     1       7.529  -5.157  25.610  0.00  0.00    +0.000 NA
ATOM      2  C   UNL     1       7.803  -4.486  26.786  0.00  0.00    +0.000 C 
ATOM      3  C   UNL     1       8.512  -3.123  26.574  0.00  0.00    +0.000 C 
ATOM      4  N   UNL     1       8.643  -2.702  25.251  0.00  0.00    +0.000 NA
ATOM      5  C   UNL     1       9.211  -3.715  24.531  0.00  0.00    +0.000 C 
ATOM      6  C   UNL     1       8.618  -5.118  24.743  0.00  0.00    +0.000 C 
ENDROOT
BRANCH   4   7
ATOM      7  N   UNL     1       8.295  -1.464  24.813  0.00  0.00    +0.000 NA
ATOM      8  C   UNL     1       7.019  -0.927  24.835  0.00  0.00    +0.000 C 
ATOM      9  C   UNL     1       6.691  -0.174  23.514  0.00  0.00    +0.000 C 
ATOM     10  C   UNL     1       7.539   1.097  23.485  0.00  0.00    +0.000 C 
ATOM     11  C   UNL     1       8.790   0.950  24.195  0.00  0.00    +0.000 C 
ATOM     12  C   UNL     1       9.205  -0.375  24.803  0.00  0.00    +0.000 C 
BRANCH  10  13
ATOM     13  C   UNL     1       7.563   1.648  22.115  0.00  0.00    +0.000 C 
ATOM     14  O   UNL     1       7.983   2.841  21.980  0.00  0.00    +0.000 OA
ATOM     15  N   UNL     1       6.960   1.162  20.993  0.00  0.00    +0.000 N 
ATOM     16  C   UNL     1       7.838   0.591  19.953  0.00  0.00    +0.000 C 
ATOM     17  C   UNL     1       7.086  -0.370  19.069  0.00  0.00    +0.000 C 
ATOM     18  C   UNL     1       5.605  -0.127  19.016  0.00  0.00    +0.000 C 
ATOM     19  C   UNL     1       5.256   1.319  19.225  0.00  0.00    +0.000 C 
ATOM     20  C   UNL     1       5.849   1.958  20.435  0.00  0.00    +0.000 C 
ENDBRANCH  10  13
ENDBRANCH   4   7
BRANCH   1  21
ATOM     21  C   UNL     1       6.323  -5.981  25.458  0.00  0.00    +0.000 C 
BRANCH  21  26
ATOM     22  C   UNL     1       2.455  -4.384  27.198  0.00  0.00    +0.000 A 
ATOM     23  C   UNL     1       3.550  -5.362  27.533  0.00  0.00    +0.000 A 
ATOM     24  C   UNL     1       3.924  -6.551  26.699  0.00  0.00    +0.000 A 
ATOM     25  C   UNL     1       3.813  -6.344  25.336  0.00  0.00    +0.000 A 
ATOM     26  C   UNL     1       5.291  -5.382  25.109  0.00  0.00    +0.000 A 
ATOM     27  C   UNL     1       4.989  -4.264  24.279  0.00  0.00    +0.000 A 
ATOM     28  C   UNL     1       4.056  -4.500  23.301  0.00  0.00    +0.000 A 
ATOM     29  C   UNL     1       2.666  -5.147  23.439  0.00  0.00    +0.000 A 
ATOM     30  C   UNL     1       2.617  -5.501  24.829  0.00  0.00    +0.000 A 
ATOM     31  C   UNL     1       2.019  -4.405  25.774  0.00  0.00    +0.000 A 
ENDBRANCH  21  26
ENDBRANCH   1  21
TORSDOF 4
ENDMDL
MODEL 8
REMARK VINA RESULT:      -6.7      1.400      2.434
REMARK  Name = 
REMARK  4 active torsions:
REMARK  status: ('A' for Active; 'I' for Inactive)
REMARK    1  A    between atoms: C_8  and  C_9
REMARK    2  A    between atoms: C_9  and  N_12
REMARK    3  A    between atoms: N_19  and  N_20
REMARK    4  A    between atoms: C_27  and  C_29
REMARK                            x       y       z     vdW  Elec       q    Type
REMARK                         _______ _______ _______ _____ _____    ______ ____
ROOT
ATOM      1  N   UNL     1       7.163   3.107  23.854  0.00  0.00    +0.000 NA
ATOM      2  C   UNL     1       8.069   3.263  24.885  0.00  0.00    +0.000 C 
ATOM      3  C   UNL     1       7.752   2.393  26.129  0.00  0.00    +0.000 C 
ATOM      4  N   UNL     1       6.704   1.484  25.987  0.00  0.00    +0.000 NA
ATOM      5  C   UNL     1       5.611   2.157  25.517  0.00  0.00    +0.000 C 
ATOM      6  C   UNL     1       5.854   3.105  24.330  0.00  0.00    +0.000 C 
ENDROOT
BRANCH   4   7
ATOM      7  N   UNL     1       6.790   0.171  26.324  0.00  0.00    +0.000 NA
ATOM      8  C   UNL     1       7.883  -0.442  26.915  0.00  0.00    +0.000 C 
ATOM      9  C   UNL     1       8.183  -1.825  26.270  0.00  0.00    +0.000 C 
ATOM     10  C   UNL     1       7.061  -2.778  26.678  0.00  0.00    +0.000 C 
ATOM     11  C   UNL     1       5.803  -2.098  26.897  0.00  0.00    +0.000 C 
ATOM     12  C   UNL     1       5.651  -0.612  26.642  0.00  0.00    +0.000 C 
BRANCH  10  13
ATOM     13  C   UNL     1       7.079  -3.970  25.807  0.00  0.00    +0.000 C 
ATOM     14  O   UNL     1       7.744  -4.974  26.215  0.00  0.00    +0.000 OA
ATOM     15  N   UNL     1       6.698  -4.074  24.501  0.00  0.00    +0.000 N 
ATOM     16  C   UNL     1       5.466  -4.836  24.220  0.00  0.00    +0.000 C 
ATOM     17  C   UNL     1       4.865  -4.435  22.897  0.00  0.00    +0.000 C 
ATOM     18  C   UNL     1       5.851  -3.853  21.926  0.00  0.00    +0.000 C 
ATOM     19  C   UNL     1       7.237  -4.397  22.122  0.00  0.00    +0.000 C 
ATOM     20  C   UNL     1       7.767  -4.323  23.514  0.00  0.00    +0.000 C 
ENDBRANCH  10  13
ENDBRANCH   4   7
BRANCH   1  21
ATOM     21  C   UNL     1       7.578   3.181  22.447  0.00  0.00    +0.000 C 
BRANCH  21  26
ATOM     22  C   UNL     1       7.426   0.276  18.972  0.00  0.00    +0.000 A 
ATOM     23  C   UNL     1       6.543   1.270  19.681  0.00  0.00    +0.000 A 
ATOM     24  C   UNL     1       6.169   1.205  21.131  0.00  0.00    +0.000 A 
ATOM     25  C   UNL     1       7.173   0.724  21.953  0.00  0.00    +0.000 A 
ATOM     26  C   UNL     1       8.179   2.188  22.001  0.00  0.00    +0.000 A 
ATOM     27  C   UNL     1       9.543   1.816  21.818  0.00  0.00    +0.000 A 
ATOM     28  C   UNL     1       9.896   0.610  22.371  0.00  0.00    +0.000 A 
ATOM     29  C   UNL     1       9.197  -0.753  22.222  0.00  0.00    +0.000 A 
ATOM     30  C   UNL     1       8.050  -0.436  21.419  0.00  0.00    +0.000 A 
ATOM     31  C   UNL     1       8.263  -0.562  19.873  0.00  0.00    +0.000 A 
ENDBRANCH  21  26
ENDBRANCH   1  21
TORSDOF 4
ENDMDL
MODEL 9
REMARK VINA RESULT:      -6.7      2.379      3.540
REMARK  Name = 
REMARK  4 active torsions:
REMARK  status: ('A' for Active; 'I' for Inactive)
REMARK    1  A    between atoms: C_8  and  C_9
REMARK    2  A    between atoms: C_9  and  N_12
REMARK    3  A    between atoms: N_19  and  N_20
REMARK    4  A    between atoms: C_27  and  C_29
REMARK                            x       y       z     vdW  Elec       q    Type
REMARK                         _______ _______ _______ _____ _____    ______ ____
ROOT
ATOM      1  N   UNL     1       7.284   3.691  24.006  0.00  0.00    +0.000 NA
ATOM      2  C   UNL     1       7.921   3.893  25.215  0.00  0.00    +0.000 C 
ATOM      3  C   UNL     1       7.098   3.417  26.439  0.00  0.00    +0.000 C 
ATOM      4  N   UNL     1       5.917   2.732  26.152  0.00  0.00    +0.000 NA
ATOM      5  C   UNL     1       5.184   3.485  25.280  0.00  0.00    +0.000 C 
ATOM      6  C   UNL     1       5.944   4.065  24.074  0.00  0.00    +0.000 C 
ENDROOT
BRANCH   4   7
ATOM      7  N   UNL     1       5.577   1.542  26.714  0.00  0.00    +0.000 NA
ATOM      8  C   UNL     1       6.220   0.940  27.783  0.00  0.00    +0.000 C 
ATOM      9  C   UNL     1       6.405  -0.587  27.553  0.00  0.00    +0.000 C 
ATOM     10  C   UNL     1       5.025  -1.238  27.640  0.00  0.00    +0.000 C 
ATOM     11  C   UNL     1       3.962  -0.350  27.226  0.00  0.00    +0.000 C 
ATOM     12  C   UNL     1       4.252   1.035  26.684  0.00  0.00    +0.000 C 
BRANCH  10  13
ATOM     13  C   UNL     1       5.078  -2.596  27.063  0.00  0.00    +0.000 C 
ATOM     14  O   UNL     1       4.059  -3.337  27.235  0.00  0.00    +0.000 OA
ATOM     15  N   UNL     1       6.160  -3.276  26.589  0.00  0.00    +0.000 N 
ATOM     16  C   UNL     1       6.234  -3.486  25.129  0.00  0.00    +0.000 C 
ATOM     17  C   UNL     1       7.653  -3.729  24.682  0.00  0.00    +0.000 C 
ATOM     18  C   UNL     1       8.550  -4.276  25.756  0.00  0.00    +0.000 C 
ATOM     19  C   UNL     1       7.800  -5.102  26.761  0.00  0.00    +0.000 C 
ATOM     20  C   UNL     1       6.599  -4.454  27.362  0.00  0.00    +0.000 C 
ENDBRANCH  10  13
ENDBRANCH   4   7
BRANCH   1  21
ATOM     21  C   UNL     1       8.033   3.352  22.789  0.00  0.00    +0.000 C 
BRANCH  21  26
ATOM     22  C   UNL     1      10.023  -0.491  24.135  0.00  0.00    +0.000 A 
ATOM     23  C   UNL     1      10.184   1.001  24.278  0.00  0.00    +0.000 A 
ATOM     24  C   UNL     1      10.388   1.955  23.140  0.00  0.00    +0.000 A 
ATOM     25  C   UNL     1       9.703   1.616  21.987  0.00  0.00    +0.000 A 
ATOM     26  C   UNL     1       8.083   2.145  22.495  0.00  0.00    +0.000 A 
ATOM     27  C   UNL     1       7.139   1.139  22.141  0.00  0.00    +0.000 A 
ATOM     28  C   UNL     1       7.409   0.472  20.972  0.00  0.00    +0.000 A 
ATOM     29  C   UNL     1       8.725  -0.193  20.532  0.00  0.00    +0.000 A 
ATOM     30  C   UNL     1       9.615   0.115  21.615  0.00  0.00    +0.000 A 
ATOM     31  C   UNL     1       9.656  -0.946  22.766  0.00  0.00    +0.000 A 
ENDBRANCH  21  26
ENDBRANCH   1  21
TORSDOF 4
ENDMDL
