MODEL 1
REMARK VINA RESULT:      -8.8      0.000      0.000
REMARK  Name = 
REMARK  7 active torsions:
REMARK  status: ('A' for Active; 'I' for Inactive)
REMARK    1  A    between atoms: C_10  and  C_11
REMARK    2  A    between atoms: C_11  and  C_14
REMARK    3  A    between atoms: N_23  and  S_24
REMARK    4  A    between atoms: S_24  and  C_27
REMARK    5  A    between atoms: C_32  and  C_33
REMARK    6  A    between atoms: C_33  and  N_36
REMARK    7  A    between atoms: C_38  and  C_40
REMARK                            x       y       z     vdW  Elec       q    Type
REMARK                         _______ _______ _______ _____ _____    ______ ____
ROOT
ATOM      1  C   UNL     1       7.341  -4.589  25.607  0.00  0.00    +0.000 C 
ATOM      2  O   UNL     1       8.016  -5.517  26.082  0.00  0.00    +0.000 OA
ATOM      3  N   UNL     1       7.937  -3.839  24.656  0.00  0.00    +0.000 N 
ATOM      4  C   UNL     1       7.247  -3.513  23.408  0.00  0.00    +0.000 C 
ATOM      5  C   UNL     1       7.645  -2.068  23.046  0.00  0.00    +0.000 C 
ATOM      6  N   UNL     1       8.640  -1.593  23.871  0.00  0.00    +0.000 NA
ATOM      7  C   UNL     1       9.759  -2.396  23.994  0.00  0.00    +0.000 C 
ATOM      8  C   UNL     1       9.409  -3.749  24.594  0.00  0.00    +0.000 C 
ENDROOT
BRANCH   6   9
ATOM      9  S   UNL     1       8.353  -0.409  24.890  0.00  0.00    +0.000 S 
ATOM     10  O   UNL     1       6.930  -0.472  25.181  0.00  0.00    +0.000 OA
ATOM     11  O   UNL     1       9.216  -0.576  26.028  0.00  0.00    +0.000 OA
BRANCH   9  12
ATOM     12  C   UNL     1       8.663   1.171  24.152  0.00  0.00    +0.000 A 
ATOM     13  C   UNL     1       9.783   0.873  23.215  0.00  0.00    +0.000 A 
ATOM     14  C   UNL     1       9.822   1.087  21.776  0.00  0.00    +0.000 A 
ATOM     15  C   UNL     1       8.357   1.226  21.219  0.00  0.00    +0.000 A 
ATOM     16  C   UNL     1       7.292   1.881  21.975  0.00  0.00    +0.000 A 
ATOM     17  C   UNL     1       7.479   1.778  23.534  0.00  0.00    +0.000 A 
BRANCH  15  18
ATOM     18  C   UNL     1       8.182  -0.013  20.270  0.00  0.00    +0.000 C 
BRANCH  18  19
ATOM     19  N   UNL     1       7.593   0.302  19.034  0.00  0.00    +0.000 N 
ATOM     20  H   UNL     1       8.026   0.748  18.321  0.00  0.00    +0.000 HD
ATOM     21  C   UNL     1       6.310   0.041  18.662  0.00  0.00    +0.000 C 
ATOM     22  O   UNL     1       6.170  -0.888  17.843  0.00  0.00    +0.000 OA
ATOM     23  C   UNL     1       5.386   1.229  18.595  0.00  0.00    +0.000 C 
ENDBRANCH  18  19
ENDBRANCH  15  18
ENDBRANCH   9  12
ENDBRANCH   6   9
BRANCH   1  24
ATOM     24  C   UNL     1       6.413  -3.814  26.533  0.00  0.00    +0.000 C 
BRANCH  24  31
ATOM     25  C   UNL     1       4.421  -6.306  23.450  0.00  0.00    +0.000 A 
ATOM     26  N   UNL     1       4.419  -7.144  24.669  0.00  0.00    +0.000 NA
ATOM     27  C   UNL     1       4.355  -6.340  25.664  0.00  0.00    +0.000 A 
ATOM     28  C   UNL     1       4.178  -4.847  26.053  0.00  0.00    +0.000 A 
ATOM     29  C   UNL     1       3.982  -4.032  24.812  0.00  0.00    +0.000 A 
ATOM     30  C   UNL     1       3.870  -5.011  23.626  0.00  0.00    +0.000 A 
ATOM     31  C   UNL     1       5.320  -4.585  27.099  0.00  0.00    +0.000 C 
ATOM     32  C   UNL     1       5.666  -5.979  27.531  0.00  0.00    +0.000 C 
ATOM     33  N   UNL     1       5.262  -6.915  26.603  0.00  0.00    +0.000 N 
ATOM     34  H   UNL     1       6.027  -7.151  26.064  0.00  0.00    +0.000 HD
ENDBRANCH  24  31
ENDBRANCH   1  24
TORSDOF 6
ENDMDL
MODEL 2
REMARK VINA RESULT:      -8.7      1.465      2.285
REMARK  Name = 
REMARK  7 active torsions:
REMARK  status: ('A' for Active; 'I' for Inactive)
REMARK    1  A    between atoms: C_10  and  C_11
REMARK    2  A    between atoms: C_11  and  C_14
REMARK    3  A    between atoms: N_23  and  S_24
REMARK    4  A    between atoms: S_24  and  C_27
REMARK    5  A    between atoms: C_32  and  C_33
REMARK    6  A    between atoms: C_33  and  N_36
REMARK    7  A    between atoms: C_38  and  C_40
REMARK                            x       y       z     vdW  Elec       q    Type
REMARK                         _______ _______ _______ _____ _____    ______ ____
ROOT
ATOM      1  C   UNL     1       5.644  -4.895  24.623  0.00  0.00    +0.000 C 
ATOM      2  O   UNL     1       6.044  -6.066  24.728  0.00  0.00    +0.000 OA
ATOM      3  N   UNL     1       6.291  -4.117  23.730  0.00  0.00    +0.000 N 
ATOM      4  C   UNL     1       5.554  -3.292  22.772  0.00  0.00    +0.000 C 
ATOM      5  C   UNL     1       6.339  -1.974  22.626  0.00  0.00    +0.000 C 
ATOM      6  N   UNL     1       7.555  -2.032  23.271  0.00  0.00    +0.000 NA
ATOM      7  C   UNL     1       8.353  -3.118  22.961  0.00  0.00    +0.000 C 
ATOM      8  C   UNL     1       7.680  -4.429  23.340  0.00  0.00    +0.000 C 
ENDROOT
BRANCH   6   9
ATOM      9  S   UNL     1       7.841  -1.130  24.545  0.00  0.00    +0.000 S 
ATOM     10  O   UNL     1       6.552  -0.928  25.187  0.00  0.00    +0.000 OA
ATOM     11  O   UNL     1       8.827  -1.794  25.354  0.00  0.00    +0.000 OA
BRANCH   9  12
ATOM     12  C   UNL     1       8.449   0.469  24.085  0.00  0.00    +0.000 A 
ATOM     13  C   UNL     1       9.598   0.132  23.198  0.00  0.00    +0.000 A 
ATOM     14  C   UNL     1       9.805   0.538  21.816  0.00  0.00    +0.000 A 
ATOM     15  C   UNL     1       8.437   0.986  21.182  0.00  0.00    +0.000 A 
ATOM     16  C   UNL     1       7.412   1.689  21.950  0.00  0.00    +0.000 A 
ATOM     17  C   UNL     1       7.432   1.339  23.484  0.00  0.00    +0.000 A 
BRANCH  15  18
ATOM     18  C   UNL     1       8.174  -0.062  20.042  0.00  0.00    +0.000 C 
BRANCH  18  19
ATOM     19  N   UNL     1       7.462   0.460  18.949  0.00  0.00    +0.000 N 
ATOM     20  H   UNL     1       7.810   1.062  18.308  0.00  0.00    +0.000 HD
ATOM     21  C   UNL     1       6.161   0.206  18.640  0.00  0.00    +0.000 C 
ATOM     22  O   UNL     1       5.981  -0.547  17.663  0.00  0.00    +0.000 OA
ATOM     23  C   UNL     1       5.190   1.330  18.891  0.00  0.00    +0.000 C 
ENDBRANCH  18  19
ENDBRANCH  15  18
ENDBRANCH   9  12
ENDBRANCH   6   9
BRANCH   1  24
ATOM     24  C   UNL     1       5.185  -4.167  25.879  0.00  0.00    +0.000 C 
BRANCH  24  31
ATOM     25  C   UNL     1       4.434  -7.173  29.055  0.00  0.00    +0.000 A 
ATOM     26  N   UNL     1       5.908  -7.110  28.937  0.00  0.00    +0.000 NA
ATOM     27  C   UNL     1       6.194  -5.914  28.581  0.00  0.00    +0.000 A 
ATOM     28  C   UNL     1       5.588  -4.507  28.332  0.00  0.00    +0.000 A 
ATOM     29  C   UNL     1       4.124  -4.536  28.647  0.00  0.00    +0.000 A 
ATOM     30  C   UNL     1       3.807  -5.916  29.253  0.00  0.00    +0.000 A 
ATOM     31  C   UNL     1       6.173  -4.076  26.939  0.00  0.00    +0.000 C 
ATOM     32  C   UNL     1       7.352  -4.994  26.805  0.00  0.00    +0.000 C 
ATOM     33  N   UNL     1       7.229  -6.103  27.616  0.00  0.00    +0.000 N 
ATOM     34  H   UNL     1       6.904  -6.834  27.076  0.00  0.00    +0.000 HD
ENDBRANCH  24  31
ENDBRANCH   1  24
TORSDOF 6
ENDMDL
MODEL 3
REMARK VINA RESULT:      -8.4      2.140      7.004
REMARK  Name = 
REMARK  7 active torsions:
REMARK  status: ('A' for Active; 'I' for Inactive)
REMARK    1  A    between atoms: C_10  and  C_11
REMARK    2  A    between atoms: C_11  and  C_14
REMARK    3  A    between atoms: N_23  and  S_24
REMARK    4  A    between atoms: S_24  and  C_27
REMARK    5  A    between atoms: C_32  and  C_33
REMARK    6  A    between atoms: C_33  and  N_36
REMARK    7  A    between atoms: C_38  and  C_40
REMARK                            x       y       z     vdW  Elec       q    Type
REMARK                         _______ _______ _______ _____ _____    ______ ____
ROOT
ATOM      1  C   UNL     1       9.231  -1.216  22.888  0.00  0.00    +0.000 C 
ATOM      2  O   UNL     1       9.973  -1.828  22.104  0.00  0.00    +0.000 OA
ATOM      3  N   UNL     1       9.120  -1.727  24.133  0.00  0.00    +0.000 N 
ATOM      4  C   UNL     1       9.240  -0.874  25.314  0.00  0.00    +0.000 C 
ATOM      5  C   UNL     1       8.222  -1.398  26.346  0.00  0.00    +0.000 C 
ATOM      6  N   UNL     1       7.652  -2.585  25.939  0.00  0.00    +0.000 NA
ATOM      7  C   UNL     1       8.533  -3.582  25.566  0.00  0.00    +0.000 C 
ATOM      8  C   UNL     1       9.377  -3.161  24.373  0.00  0.00    +0.000 C 
ENDROOT
BRANCH   6   9
ATOM      9  S   UNL     1       6.109  -2.658  25.569  0.00  0.00    +0.000 S 
ATOM     10  O   UNL     1       5.530  -1.408  26.030  0.00  0.00    +0.000 OA
ATOM     11  O   UNL     1       5.998  -2.898  24.155  0.00  0.00    +0.000 OA
BRANCH   9  12
ATOM     12  C   UNL     1       5.293  -3.964  26.445  0.00  0.00    +0.000 A 
ATOM     13  C   UNL     1       3.897  -3.870  25.932  0.00  0.00    +0.000 A 
ATOM     14  C   UNL     1       3.119  -4.908  25.273  0.00  0.00    +0.000 A 
ATOM     15  C   UNL     1       4.081  -6.020  24.713  0.00  0.00    +0.000 A 
ATOM     16  C   UNL     1       5.298  -6.424  25.412  0.00  0.00    +0.000 A 
ATOM     17  C   UNL     1       5.930  -5.275  26.281  0.00  0.00    +0.000 A 
BRANCH  15  18
ATOM     18  C   UNL     1       3.897  -5.946  23.155  0.00  0.00    +0.000 C 
BRANCH  18  19
ATOM     19  N   UNL     1       4.999  -6.434  22.433  0.00  0.00    +0.000 N 
ATOM     20  H   UNL     1       5.215  -7.348  22.319  0.00  0.00    +0.000 HD
ATOM     21  C   UNL     1       5.943  -5.686  21.800  0.00  0.00    +0.000 C 
ATOM     22  O   UNL     1       5.864  -5.668  20.556  0.00  0.00    +0.000 OA
ATOM     23  C   UNL     1       7.300  -5.642  22.452  0.00  0.00    +0.000 C 
ENDBRANCH  18  19
ENDBRANCH  15  18
ENDBRANCH   9  12
ENDBRANCH   6   9
BRANCH   1  24
ATOM     24  C   UNL     1       7.952  -0.591  22.345  0.00  0.00    +0.000 C 
BRANCH  24  31
ATOM     25  C   UNL     1       5.323   0.405  18.914  0.00  0.00    +0.000 A 
ATOM     26  N   UNL     1       5.247   1.587  19.801  0.00  0.00    +0.000 NA
ATOM     27  C   UNL     1       6.376   1.667  20.398  0.00  0.00    +0.000 A 
ATOM     28  C   UNL     1       7.803   1.056  20.459  0.00  0.00    +0.000 A 
ATOM     29  C   UNL     1       7.929  -0.011  19.416  0.00  0.00    +0.000 A 
ATOM     30  C   UNL     1       6.642   0.013  18.569  0.00  0.00    +0.000 A 
ATOM     31  C   UNL     1       8.052   0.814  21.991  0.00  0.00    +0.000 C 
ATOM     32  C   UNL     1       7.027   1.714  22.615  0.00  0.00    +0.000 C 
ATOM     33  N   UNL     1       6.012   2.018  21.733  0.00  0.00    +0.000 N 
ATOM     34  H   UNL     1       5.266   1.436  21.924  0.00  0.00    +0.000 HD
ENDBRANCH  24  31
ENDBRANCH   1  24
TORSDOF 6
ENDMDL
MODEL 4
REMARK VINA RESULT:      -8.2      2.292      3.954
REMARK  Name = 
REMARK  7 active torsions:
REMARK  status: ('A' for Active; 'I' for Inactive)
REMARK    1  A    between atoms: C_10  and  C_11
REMARK    2  A    between atoms: C_11  and  C_14
REMARK    3  A    between atoms: N_23  and  S_24
REMARK    4  A    between atoms: S_24  and  C_27
REMARK    5  A    between atoms: C_32  and  C_33
REMARK    6  A    between atoms: C_33  and  N_36
REMARK    7  A    between atoms: C_38  and  C_40
REMARK                            x       y       z     vdW  Elec       q    Type
REMARK                         _______ _______ _______ _____ _____    ______ ____
ROOT
ATOM      1  C   UNL     1       4.514  -2.921  25.037  0.00  0.00    +0.000 C 
ATOM      2  O   UNL     1       3.292  -3.142  25.045  0.00  0.00    +0.000 OA
ATOM      3  N   UNL     1       4.967  -2.022  25.936  0.00  0.00    +0.000 N 
ATOM      4  C   UNL     1       6.137  -2.307  26.766  0.00  0.00    +0.000 C 
ATOM      5  C   UNL     1       6.917  -0.984  26.902  0.00  0.00    +0.000 C 
ATOM      6  N   UNL     1       6.212   0.078  26.379  0.00  0.00    +0.000 NA
ATOM      7  C   UNL     1       4.914   0.223  26.830  0.00  0.00    +0.000 C 
ATOM      8  C   UNL     1       4.062  -0.986  26.473  0.00  0.00    +0.000 C 
ENDROOT
BRANCH   6   9
ATOM      9  S   UNL     1       6.729   0.834  25.082  0.00  0.00    +0.000 S 
ATOM     10  O   UNL     1       7.177  -0.204  24.168  0.00  0.00    +0.000 OA
ATOM     11  O   UNL     1       5.661   1.662  24.589  0.00  0.00    +0.000 OA
BRANCH   9  12
ATOM     12  C   UNL     1       8.134   1.851  25.441  0.00  0.00    +0.000 A 
ATOM     13  C   UNL     1       9.274   0.941  25.140  0.00  0.00    +0.000 A 
ATOM     14  C   UNL     1      10.363   1.158  24.199  0.00  0.00    +0.000 A 
ATOM     15  C   UNL     1       9.953   2.264  23.158  0.00  0.00    +0.000 A 
ATOM     16  C   UNL     1       9.131   3.415  23.523  0.00  0.00    +0.000 A 
ATOM     17  C   UNL     1       8.145   3.125  24.713  0.00  0.00    +0.000 A 
BRANCH  15  18
ATOM     18  C   UNL     1       9.919   1.509  21.781  0.00  0.00    +0.000 C 
BRANCH  18  19
ATOM     19  N   UNL     1       8.766   0.729  21.594  0.00  0.00    +0.000 N 
ATOM     20  H   UNL     1       8.579  -0.085  22.039  0.00  0.00    +0.000 HD
ATOM     21  C   UNL     1       7.741   0.996  20.740  0.00  0.00    +0.000 C 
ATOM     22  O   UNL     1       6.689   1.397  21.275  0.00  0.00    +0.000 OA
ATOM     23  C   UNL     1       7.658   0.126  19.513  0.00  0.00    +0.000 C 
ENDBRANCH  18  19
ENDBRANCH  15  18
ENDBRANCH   9  12
ENDBRANCH   6   9
BRANCH   1  24
ATOM     24  C   UNL     1       5.242  -2.900  23.700  0.00  0.00    +0.000 C 
BRANCH  24  31
ATOM     25  C   UNL     1       9.657  -2.910  24.142  0.00  0.00    +0.000 A 
ATOM     26  N   UNL     1       9.237  -4.278  24.524  0.00  0.00    +0.000 NA
ATOM     27  C   UNL     1       8.186  -4.539  23.842  0.00  0.00    +0.000 A 
ATOM     28  C   UNL     1       7.266  -4.005  22.711  0.00  0.00    +0.000 A 
ATOM     29  C   UNL     1       7.815  -2.711  22.196  0.00  0.00    +0.000 A 
ATOM     30  C   UNL     1       9.178  -2.481  22.878  0.00  0.00    +0.000 A 
ATOM     31  C   UNL     1       5.813  -4.169  23.287  0.00  0.00    +0.000 C 
ATOM     32  C   UNL     1       6.029  -5.169  24.383  0.00  0.00    +0.000 C 
ATOM     33  N   UNL     1       7.349  -5.210  24.784  0.00  0.00    +0.000 N 
ATOM     34  H   UNL     1       7.434  -4.675  25.583  0.00  0.00    +0.000 HD
ENDBRANCH  24  31
ENDBRANCH   1  24
TORSDOF 6
ENDMDL
MODEL 5
REMARK VINA RESULT:      -8.1      2.352      7.538
REMARK  Name = 
REMARK  7 active torsions:
REMARK  status: ('A' for Active; 'I' for Inactive)
REMARK    1  A    between atoms: C_10  and  C_11
REMARK    2  A    between atoms: C_11  and  C_14
REMARK    3  A    between atoms: N_23  and  S_24
REMARK    4  A    between atoms: S_24  and  C_27
REMARK    5  A    between atoms: C_32  and  C_33
REMARK    6  A    between atoms: C_33  and  N_36
REMARK    7  A    between atoms: C_38  and  C_40
REMARK                            x       y       z     vdW  Elec       q    Type
REMARK                         _______ _______ _______ _____ _____    ______ ____
ROOT
ATOM      1  C   UNL     1       8.902   0.121  21.113  0.00  0.00    +0.000 C 
ATOM      2  O   UNL     1       8.237   0.100  20.065  0.00  0.00    +0.000 OA
ATOM      3  N   UNL     1       8.980  -1.040  21.799  0.00  0.00    +0.000 N 
ATOM      4  C   UNL     1      10.261  -1.542  22.293  0.00  0.00    +0.000 C 
ATOM      5  C   UNL     1       9.986  -2.183  23.668  0.00  0.00    +0.000 C 
ATOM      6  N   UNL     1       8.636  -2.258  23.932  0.00  0.00    +0.000 NA
ATOM      7  C   UNL     1       7.860  -2.845  22.951  0.00  0.00    +0.000 C 
ATOM      8  C   UNL     1       7.928  -2.065  21.646  0.00  0.00    +0.000 C 
ENDROOT
BRANCH   6   9
ATOM      9  S   UNL     1       7.988  -1.396  25.098  0.00  0.00    +0.000 S 
ATOM     10  O   UNL     1       8.921  -0.311  25.355  0.00  0.00    +0.000 OA
ATOM     11  O   UNL     1       6.676  -0.985  24.676  0.00  0.00    +0.000 OA
BRANCH   9  12
ATOM     12  C   UNL     1       7.851  -2.330  26.596  0.00  0.00    +0.000 A 
ATOM     13  C   UNL     1       6.384  -2.568  26.693  0.00  0.00    +0.000 A 
ATOM     14  C   UNL     1       5.691  -3.845  26.776  0.00  0.00    +0.000 A 
ATOM     15  C   UNL     1       6.635  -4.995  26.262  0.00  0.00    +0.000 A 
ATOM     16  C   UNL     1       8.076  -4.987  26.497  0.00  0.00    +0.000 A 
ATOM     17  C   UNL     1       8.681  -3.540  26.618  0.00  0.00    +0.000 A 
BRANCH  15  18
ATOM     18  C   UNL     1       5.915  -5.545  24.979  0.00  0.00    +0.000 C 
BRANCH  18  19
ATOM     19  N   UNL     1       5.016  -4.633  24.402  0.00  0.00    +0.000 N 
ATOM     20  H   UNL     1       4.820  -3.772  24.741  0.00  0.00    +0.000 HD
ATOM     21  C   UNL     1       4.270  -4.834  23.282  0.00  0.00    +0.000 C 
ATOM     22  O   UNL     1       4.653  -4.220  22.267  0.00  0.00    +0.000 OA
ATOM     23  C   UNL     1       2.795  -5.050  23.499  0.00  0.00    +0.000 C 
ENDBRANCH  18  19
ENDBRANCH  15  18
ENDBRANCH   9  12
ENDBRANCH   6   9
BRANCH   1  24
ATOM     24  C   UNL     1       8.849   1.368  21.986  0.00  0.00    +0.000 C 
BRANCH  24  31
ATOM     25  C   UNL     1       8.637   5.539  23.483  0.00  0.00    +0.000 A 
ATOM     26  N   UNL     1       7.291   5.269  22.930  0.00  0.00    +0.000 NA
ATOM     27  C   UNL     1       7.077   4.017  23.088  0.00  0.00    +0.000 A 
ATOM     28  C   UNL     1       7.651   2.722  23.725  0.00  0.00    +0.000 A 
ATOM     29  C   UNL     1       8.918   3.049  24.453  0.00  0.00    +0.000 A 
ATOM     30  C   UNL     1       9.087   4.581  24.428  0.00  0.00    +0.000 A 
ATOM     31  C   UNL     1       7.554   1.653  22.578  0.00  0.00    +0.000 C 
ATOM     32  C   UNL     1       6.546   2.279  21.660  0.00  0.00    +0.000 C 
ATOM     33  N   UNL     1       6.446   3.639  21.864  0.00  0.00    +0.000 N 
ATOM     34  H   UNL     1       6.978   4.082  21.190  0.00  0.00    +0.000 HD
ENDBRANCH  24  31
ENDBRANCH   1  24
TORSDOF 6
ENDMDL
MODEL 6
REMARK VINA RESULT:      -8.1      2.558      5.304
REMARK  Name = 
REMARK  7 active torsions:
REMARK  status: ('A' for Active; 'I' for Inactive)
REMARK    1  A    between atoms: C_10  and  C_11
REMARK    2  A    between atoms: C_11  and  C_14
REMARK    3  A    between atoms: N_23  and  S_24
REMARK    4  A    between atoms: S_24  and  C_27
REMARK    5  A    between atoms: C_32  and  C_33
REMARK    6  A    between atoms: C_33  and  N_36
REMARK    7  A    between atoms: C_38  and  C_40
REMARK                            x       y       z     vdW  Elec       q    Type
REMARK                         _______ _______ _______ _____ _____    ______ ____
ROOT
ATOM      1  C   UNL     1       9.275  -1.691  22.216  0.00  0.00    +0.000 C 
ATOM      2  O   UNL     1      10.491  -1.931  22.291  0.00  0.00    +0.000 OA
ATOM      3  N   UNL     1       8.932  -0.436  21.858  0.00  0.00    +0.000 N 
ATOM      4  C   UNL     1       7.925  -0.192  20.826  0.00  0.00    +0.000 C 
ATOM      5  C   UNL     1       7.118   1.041  21.276  0.00  0.00    +0.000 C 
ATOM      6  N   UNL     1       7.680   1.641  22.382  0.00  0.00    +0.000 NA
ATOM      7  C   UNL     1       9.026   1.941  22.288  0.00  0.00    +0.000 C 
ATOM      8  C   UNL     1       9.863   0.686  22.094  0.00  0.00    +0.000 C 
ENDROOT
BRANCH   6   9
ATOM      9  S   UNL     1       6.927   1.633  23.780  0.00  0.00    +0.000 S 
ATOM     10  O   UNL     1       6.178   2.878  23.834  0.00  0.00    +0.000 OA
ATOM     11  O   UNL     1       6.130   0.438  23.854  0.00  0.00    +0.000 OA
BRANCH   9  12
ATOM     12  C   UNL     1       8.070   1.654  25.133  0.00  0.00    +0.000 A 
ATOM     13  C   UNL     1       7.345   2.463  26.152  0.00  0.00    +0.000 A 
ATOM     14  C   UNL     1       6.984   2.074  27.507  0.00  0.00    +0.000 A 
ATOM     15  C   UNL     1       7.014   0.506  27.635  0.00  0.00    +0.000 A 
ATOM     16  C   UNL     1       7.994  -0.317  26.930  0.00  0.00    +0.000 A 
ATOM     17  C   UNL     1       8.485   0.320  25.578  0.00  0.00    +0.000 A 
BRANCH  15  18
ATOM     18  C   UNL     1       5.523   0.110  27.932  0.00  0.00    +0.000 C 
BRANCH  18  19
ATOM     19  N   UNL     1       4.818  -0.322  26.796  0.00  0.00    +0.000 N 
ATOM     20  H   UNL     1       4.442   0.245  26.139  0.00  0.00    +0.000 HD
ATOM     21  C   UNL     1       4.544  -1.612  26.460  0.00  0.00    +0.000 C 
ATOM     22  O   UNL     1       5.213  -2.071  25.513  0.00  0.00    +0.000 OA
ATOM     23  C   UNL     1       3.113  -2.050  26.632  0.00  0.00    +0.000 C 
ENDBRANCH  18  19
ENDBRANCH  15  18
ENDBRANCH   9  12
ENDBRANCH   6   9
BRANCH   1  24
ATOM     24  C   UNL     1       8.340  -2.337  23.230  0.00  0.00    +0.000 C 
BRANCH  24  31
ATOM     25  C   UNL     1       7.465  -4.618  26.933  0.00  0.00    +0.000 A 
ATOM     26  N   UNL     1       6.468  -5.100  25.950  0.00  0.00    +0.000 NA
ATOM     27  C   UNL     1       7.023  -5.015  24.799  0.00  0.00    +0.000 A 
ATOM     28  C   UNL     1       8.361  -4.698  24.078  0.00  0.00    +0.000 A 
ATOM     29  C   UNL     1       9.416  -4.403  25.099  0.00  0.00    +0.000 A 
ATOM     30  C   UNL     1       8.809  -4.685  26.488  0.00  0.00    +0.000 A 
ATOM     31  C   UNL     1       7.953  -3.704  22.932  0.00  0.00    +0.000 C 
ATOM     32  C   UNL     1       6.478  -3.950  22.823  0.00  0.00    +0.000 C 
ATOM     33  N   UNL     1       5.971  -4.524  23.969  0.00  0.00    +0.000 N 
ATOM     34  H   UNL     1       5.571  -3.825  24.502  0.00  0.00    +0.000 HD
ENDBRANCH  24  31
ENDBRANCH   1  24
TORSDOF 6
ENDMDL
MODEL 7
REMARK VINA RESULT:      -8.0      2.010      3.217
REMARK  Name = 
REMARK  7 active torsions:
REMARK  status: ('A' for Active; 'I' for Inactive)
REMARK    1  A    between atoms: C_10  and  C_11
REMARK    2  A    between atoms: C_11  and  C_14
REMARK    3  A    between atoms: N_23  and  S_24
REMARK    4  A    between atoms: S_24  and  C_27
REMARK    5  A    between atoms: C_32  and  C_33
REMARK    6  A    between atoms: C_33  and  N_36
REMARK    7  A    between atoms: C_38  and  C_40
REMARK                            x       y       z     vdW  Elec       q    Type
REMARK                         _______ _______ _______ _____ _____    ______ ____
ROOT
ATOM      1  C   UNL     1       4.612  -5.200  23.477  0.00  0.00    +0.000 C 
ATOM      2  O   UNL     1       4.291  -5.635  22.359  0.00  0.00    +0.000 OA
ATOM      3  N   UNL     1       4.980  -3.902  23.533  0.00  0.00    +0.000 N 
ATOM      4  C   UNL     1       4.441  -3.007  24.557  0.00  0.00    +0.000 C 
ATOM      5  C   UNL     1       5.590  -2.068  24.975  0.00  0.00    +0.000 C 
ATOM      6  N   UNL     1       6.691  -2.218  24.160  0.00  0.00    +0.000 NA
ATOM      7  C   UNL     1       6.454  -2.132  22.801  0.00  0.00    +0.000 C 
ATOM      8  C   UNL     1       5.506  -3.226  22.331  0.00  0.00    +0.000 C 
ENDROOT
BRANCH   6   9
ATOM      9  S   UNL     1       8.045  -2.821  24.729  0.00  0.00    +0.000 S 
ATOM     10  O   UNL     1       7.795  -3.105  26.132  0.00  0.00    +0.000 OA
ATOM     11  O   UNL     1       8.399  -3.963  23.930  0.00  0.00    +0.000 OA
BRANCH   9  12
ATOM     12  C   UNL     1       9.361  -1.637  24.664  0.00  0.00    +0.000 A 
ATOM     13  C   UNL     1      10.137  -2.085  23.474  0.00  0.00    +0.000 A 
ATOM     14  C   UNL     1      10.461  -1.318  22.281  0.00  0.00    +0.000 A 
ATOM     15  C   UNL     1       9.484  -0.091  22.156  0.00  0.00    +0.000 A 
ATOM     16  C   UNL     1       8.995   0.640  23.321  0.00  0.00    +0.000 A 
ATOM     17  C   UNL     1       8.902  -0.244  24.619  0.00  0.00    +0.000 A 
BRANCH  15  18
ATOM     18  C   UNL     1       8.674  -0.371  20.839  0.00  0.00    +0.000 C 
BRANCH  18  19
ATOM     19  N   UNL     1       8.034   0.766  20.319  0.00  0.00    +0.000 N 
ATOM     20  H   UNL     1       8.466   1.479  19.872  0.00  0.00    +0.000 HD
ATOM     21  C   UNL     1       6.703   1.041  20.383  0.00  0.00    +0.000 C 
ATOM     22  O   UNL     1       6.076   0.905  19.314  0.00  0.00    +0.000 OA
ATOM     23  C   UNL     1       6.299   2.134  21.339  0.00  0.00    +0.000 C 
ENDBRANCH  18  19
ENDBRANCH  15  18
ENDBRANCH   9  12
ENDBRANCH   6   9
BRANCH   1  24
ATOM     24  C   UNL     1       5.377  -6.115  24.424  0.00  0.00    +0.000 C 
BRANCH  24  31
ATOM     25  C   UNL     1       4.414  -3.953  28.176  0.00  0.00    +0.000 A 
ATOM     26  N   UNL     1       3.183  -4.708  27.850  0.00  0.00    +0.000 NA
ATOM     27  C   UNL     1       3.558  -5.770  27.242  0.00  0.00    +0.000 A 
ATOM     28  C   UNL     1       4.805  -6.592  26.819  0.00  0.00    +0.000 A 
ATOM     29  C   UNL     1       6.040  -5.916  27.329  0.00  0.00    +0.000 A 
ATOM     30  C   UNL     1       5.592  -4.741  28.220  0.00  0.00    +0.000 A 
ATOM     31  C   UNL     1       4.552  -6.923  25.304  0.00  0.00    +0.000 C 
ATOM     32  C   UNL     1       3.073  -6.705  25.185  0.00  0.00    +0.000 C 
ATOM     33  N   UNL     1       2.593  -5.902  26.198  0.00  0.00    +0.000 N 
ATOM     34  H   UNL     1       2.509  -5.004  25.853  0.00  0.00    +0.000 HD
ENDBRANCH  24  31
ENDBRANCH   1  24
TORSDOF 6
ENDMDL
MODEL 8
REMARK VINA RESULT:      -8.0      2.442      6.907
REMARK  Name = 
REMARK  7 active torsions:
REMARK  status: ('A' for Active; 'I' for Inactive)
REMARK    1  A    between atoms: C_10  and  C_11
REMARK    2  A    between atoms: C_11  and  C_14
REMARK    3  A    between atoms: N_23  and  S_24
REMARK    4  A    between atoms: S_24  and  C_27
REMARK    5  A    between atoms: C_32  and  C_33
REMARK    6  A    between atoms: C_33  and  N_36
REMARK    7  A    between atoms: C_38  and  C_40
REMARK                            x       y       z     vdW  Elec       q    Type
REMARK                         _______ _______ _______ _____ _____    ______ ____
ROOT
ATOM      1  C   UNL     1       7.740   2.633  25.100  0.00  0.00    +0.000 C 
ATOM      2  O   UNL     1       7.969   3.578  25.873  0.00  0.00    +0.000 OA
ATOM      3  N   UNL     1       7.023   1.606  25.603  0.00  0.00    +0.000 N 
ATOM      4  C   UNL     1       5.892   1.042  24.869  0.00  0.00    +0.000 C 
ATOM      5  C   UNL     1       5.921  -0.481  25.110  0.00  0.00    +0.000 C 
ATOM      6  N   UNL     1       6.856  -0.827  26.060  0.00  0.00    +0.000 NA
ATOM      7  C   UNL     1       6.784  -0.140  27.258  0.00  0.00    +0.000 C 
ATOM      8  C   UNL     1       7.009   1.352  27.057  0.00  0.00    +0.000 C 
ENDROOT
BRANCH   6   9
ATOM      9  S   UNL     1       8.141  -1.671  25.664  0.00  0.00    +0.000 S 
ATOM     10  O   UNL     1       8.009  -1.954  24.245  0.00  0.00    +0.000 OA
ATOM     11  O   UNL     1       9.307  -0.913  26.029  0.00  0.00    +0.000 OA
BRANCH   9  12
ATOM     12  C   UNL     1       8.177  -3.230  26.504  0.00  0.00    +0.000 A 
ATOM     13  C   UNL     1       6.869  -3.831  26.120  0.00  0.00    +0.000 A 
ATOM     14  C   UNL     1       6.634  -5.102  25.451  0.00  0.00    +0.000 A 
ATOM     15  C   UNL     1       7.949  -5.574  24.728  0.00  0.00    +0.000 A 
ATOM     16  C   UNL     1       9.277  -5.336  25.288  0.00  0.00    +0.000 A 
ATOM     17  C   UNL     1       9.354  -4.047  26.186  0.00  0.00    +0.000 A 
BRANCH  15  18
ATOM     18  C   UNL     1       7.580  -5.563  23.202  0.00  0.00    +0.000 C 
BRANCH  18  19
ATOM     19  N   UNL     1       7.092  -4.326  22.748  0.00  0.00    +0.000 N 
ATOM     20  H   UNL     1       7.561  -3.506  22.789  0.00  0.00    +0.000 HD
ATOM     21  C   UNL     1       5.869  -4.095  22.197  0.00  0.00    +0.000 C 
ATOM     22  O   UNL     1       5.866  -3.899  20.966  0.00  0.00    +0.000 OA
ATOM     23  C   UNL     1       4.882  -3.356  23.063  0.00  0.00    +0.000 C 
ENDBRANCH  18  19
ENDBRANCH  15  18
ENDBRANCH   9  12
ENDBRANCH   6   9
BRANCH   1  24
ATOM     24  C   UNL     1       8.820   2.225  24.107  0.00  0.00    +0.000 C 
BRANCH  24  31
ATOM     25  C   UNL     1       7.448  -0.690  21.056  0.00  0.00    +0.000 A 
ATOM     26  N   UNL     1       6.792   0.583  20.683  0.00  0.00    +0.000 NA
ATOM     27  C   UNL     1       7.581   1.522  21.051  0.00  0.00    +0.000 A 
ATOM     28  C   UNL     1       8.989   1.810  21.639  0.00  0.00    +0.000 A 
ATOM     29  C   UNL     1       9.720   0.518  21.828  0.00  0.00    +0.000 A 
ATOM     30  C   UNL     1       8.855  -0.600  21.216  0.00  0.00    +0.000 A 
ATOM     31  C   UNL     1       8.719   2.839  22.795  0.00  0.00    +0.000 C 
ATOM     32  C   UNL     1       7.362   3.363  22.429  0.00  0.00    +0.000 C 
ATOM     33  N   UNL     1       6.692   2.499  21.589  0.00  0.00    +0.000 N 
ATOM     34  H   UNL     1       6.080   1.978  22.124  0.00  0.00    +0.000 HD
ENDBRANCH  24  31
ENDBRANCH   1  24
TORSDOF 6
ENDMDL
MODEL 9
REMARK VINA RESULT:      -7.9      2.732      8.033
REMARK  Name = 
REMARK  7 active torsions:
REMARK  status: ('A' for Active; 'I' for Inactive)
REMARK    1  A    between atoms: C_10  and  C_11
REMARK    2  A    between atoms: C_11  and  C_14
REMARK    3  A    between atoms: N_23  and  S_24
REMARK    4  A    between atoms: S_24  and  C_27
REMARK    5  A    between atoms: C_32  and  C_33
REMARK    6  A    between atoms: C_33  and  N_36
REMARK    7  A    between atoms: C_38  and  C_40
REMARK                            x       y       z     vdW  Elec       q    Type
REMARK                         _______ _______ _______ _____ _____    ______ ____
ROOT
ATOM      1  C   UNL     1       9.835   1.621  24.301  0.00  0.00    +0.000 C 
ATOM      2  O   UNL     1      10.891   2.105  23.862  0.00  0.00    +0.000 OA
ATOM      3  N   UNL     1       9.746   0.274  24.301  0.00  0.00    +0.000 N 
ATOM      4  C   UNL     1       9.282  -0.453  25.482  0.00  0.00    +0.000 C 
ATOM      5  C   UNL     1       8.431  -1.633  24.971  0.00  0.00    +0.000 C 
ATOM      6  N   UNL     1       8.509  -1.760  23.601  0.00  0.00    +0.000 NA
ATOM      7  C   UNL     1       9.784  -1.805  23.070  0.00  0.00    +0.000 C 
ATOM      8  C   UNL     1      10.553  -0.524  23.357  0.00  0.00    +0.000 C 
ENDROOT
BRANCH   6   9
ATOM      9  S   UNL     1       7.239  -1.488  22.688  0.00  0.00    +0.000 S 
ATOM     10  O   UNL     1       6.387  -0.589  23.449  0.00  0.00    +0.000 OA
ATOM     11  O   UNL     1       7.695  -0.973  21.426  0.00  0.00    +0.000 OA
BRANCH   9  12
ATOM     12  C   UNL     1       6.312  -2.972  22.410  0.00  0.00    +0.000 A 
ATOM     13  C   UNL     1       7.374  -4.016  22.397  0.00  0.00    +0.000 A 
ATOM     14  C   UNL     1       7.477  -5.193  23.247  0.00  0.00    +0.000 A 
ATOM     15  C   UNL     1       6.591  -4.999  24.533  0.00  0.00    +0.000 A 
ATOM     16  C   UNL     1       5.312  -4.293  24.502  0.00  0.00    +0.000 A 
ATOM     17  C   UNL     1       5.236  -3.189  23.383  0.00  0.00    +0.000 A 
BRANCH  15  18
ATOM     18  C   UNL     1       7.622  -4.982  25.718  0.00  0.00    +0.000 C 
BRANCH  18  19
ATOM     19  N   UNL     1       7.283  -5.846  26.772  0.00  0.00    +0.000 N 
ATOM     20  H   UNL     1       7.747  -6.639  26.999  0.00  0.00    +0.000 HD
ATOM     21  C   UNL     1       6.233  -5.703  27.626  0.00  0.00    +0.000 C 
ATOM     22  O   UNL     1       6.528  -5.338  28.781  0.00  0.00    +0.000 OA
ATOM     23  C   UNL     1       5.083  -6.657  27.426  0.00  0.00    +0.000 C 
ENDBRANCH  18  19
ENDBRANCH  15  18
ENDBRANCH   9  12
ENDBRANCH   6   9
BRANCH   1  24
ATOM     24  C   UNL     1       8.525   2.341  24.008  0.00  0.00    +0.000 C 
BRANCH  24  31
ATOM     25  C   UNL     1       4.549   4.093  23.114  0.00  0.00    +0.000 A 
ATOM     26  N   UNL     1       5.445   5.259  23.277  0.00  0.00    +0.000 NA
ATOM     27  C   UNL     1       6.607   4.881  22.894  0.00  0.00    +0.000 A 
ATOM     28  C   UNL     1       7.386   3.708  22.240  0.00  0.00    +0.000 A 
ATOM     29  C   UNL     1       6.428   2.608  21.899  0.00  0.00    +0.000 A 
ATOM     30  C   UNL     1       5.005   3.127  22.182  0.00  0.00    +0.000 A 
ATOM     31  C   UNL     1       8.642   3.517  23.164  0.00  0.00    +0.000 C 
ATOM     32  C   UNL     1       8.693   4.830  23.886  0.00  0.00    +0.000 C 
ATOM     33  N   UNL     1       7.475   5.475  23.860  0.00  0.00    +0.000 N 
ATOM     34  H   UNL     1       7.029   5.305  24.699  0.00  0.00    +0.000 HD
ENDBRANCH  24  31
ENDBRANCH   1  24
TORSDOF 6
ENDMDL
