MODEL 1
REMARK VINA RESULT:      -8.6      0.000      0.000
REMARK  Name = 
REMARK  4 active torsions:
REMARK  status: ('A' for Active; 'I' for Inactive)
REMARK    1  A    between atoms: C_6  and  N_7
REMARK    2  A    between atoms: C_9  and  C_11
REMARK    3  A    between atoms: N_20  and  S_21
REMARK    4  A    between atoms: S_21  and  C_24
REMARK                            x       y       z     vdW  Elec       q    Type
REMARK                         _______ _______ _______ _____ _____    ______ ____
ROOT
ATOM      1  C   UNL     1       9.561   2.419  22.823  0.00  0.00    +0.000 C 
ATOM      2  O   UNL     1      10.418   2.432  21.967  0.00  0.00    +0.000 OA
ATOM      3  N   UNL     1       9.716   1.956  24.050  0.00  0.00    +0.000 N 
ATOM      4  C   UNL     1       8.590   1.504  24.871  0.00  0.00    +0.000 C 
ATOM      5  C   UNL     1       8.696  -0.031  24.915  0.00  0.00    +0.000 C 
ATOM      6  N   UNL     1       9.494  -0.531  23.892  0.00  0.00    +0.000 NA
ATOM      7  C   UNL     1      10.841  -0.171  23.945  0.00  0.00    +0.000 C 
ATOM      8  C   UNL     1      10.993   1.285  24.397  0.00  0.00    +0.000 C 
ENDROOT
BRANCH   1  11
ATOM      9  N   UNL     1       8.569   1.272  21.195  0.00  0.00    +0.000 N 
ATOM     10  H   UNL     1       8.889   1.707  20.444  0.00  0.00    +0.000 HD
ATOM     11  C   UNL     1       8.372   2.120  22.212  0.00  0.00    +0.000 C 
ATOM     12  O   UNL     1       7.770   3.172  22.058  0.00  0.00    +0.000 OA
BRANCH   9  16
ATOM     13  C   UNL     1       6.133   1.102  18.110  0.00  0.00    +0.000 A 
ATOM     14  N   UNL     1       7.402   0.317  18.190  0.00  0.00    +0.000 NA
ATOM     15  C   UNL     1       7.539   0.025  19.479  0.00  0.00    +0.000 A 
ATOM     16  C   UNL     1       7.305   0.729  20.826  0.00  0.00    +0.000 A 
ATOM     17  C   UNL     1       6.066   1.491  20.757  0.00  0.00    +0.000 A 
ATOM     18  C   UNL     1       5.457   1.307  19.344  0.00  0.00    +0.000 A 
ENDBRANCH   9  16
ENDBRANCH   1  11
BRANCH   6  19
ATOM     19  S   UNL     1       9.085  -1.905  23.254  0.00  0.00    +0.000 S 
ATOM     20  O   UNL     1       9.996  -2.956  23.745  0.00  0.00    +0.000 OA
ATOM     21  O   UNL     1       9.169  -1.807  21.788  0.00  0.00    +0.000 OA
BRANCH  19  22
ATOM     22  C   UNL     1       7.474  -2.497  23.581  0.00  0.00    +0.000 A 
ATOM     23  C   UNL     1       7.750  -3.946  23.831  0.00  0.00    +0.000 A 
ATOM     24  C   UNL     1       7.226  -5.080  23.087  0.00  0.00    +0.000 A 
ATOM     25  C   UNL     1       6.197  -4.652  22.035  0.00  0.00    +0.000 A 
ATOM     26 CL   UNL     1       4.833  -5.686  22.519  0.00  0.00    +0.000 Cl
ATOM     27  C   UNL     1       5.785  -3.309  21.667  0.00  0.00    +0.000 A 
ATOM     28  C   UNL     1       6.468  -2.193  22.611  0.00  0.00    +0.000 A 
ENDBRANCH  19  22
ENDBRANCH   6  19
TORSDOF 4
ENDMDL
MODEL 2
REMARK VINA RESULT:      -8.0      1.550      2.169
REMARK  Name = 
REMARK  4 active torsions:
REMARK  status: ('A' for Active; 'I' for Inactive)
REMARK    1  A    between atoms: C_6  and  N_7
REMARK    2  A    between atoms: C_9  and  C_11
REMARK    3  A    between atoms: N_20  and  S_21
REMARK    4  A    between atoms: S_21  and  C_24
REMARK                            x       y       z     vdW  Elec       q    Type
REMARK                         _______ _______ _______ _____ _____    ______ ____
ROOT
ATOM      1  C   UNL     1       9.409   2.124  22.820  0.00  0.00    +0.000 C 
ATOM      2  O   UNL     1      10.257   2.081  21.956  0.00  0.00    +0.000 OA
ATOM      3  N   UNL     1       9.505   1.562  24.011  0.00  0.00    +0.000 N 
ATOM      4  C   UNL     1       8.333   1.209  24.815  0.00  0.00    +0.000 C 
ATOM      5  C   UNL     1       8.232  -0.326  24.754  0.00  0.00    +0.000 C 
ATOM      6  N   UNL     1       8.952  -0.856  23.689  0.00  0.00    +0.000 NA
ATOM      7  C   UNL     1      10.335  -0.684  23.748  0.00  0.00    +0.000 C 
ATOM      8  C   UNL     1      10.683   0.705  24.295  0.00  0.00    +0.000 C 
ENDROOT
BRANCH   1  11
ATOM      9  N   UNL     1       8.259   1.210  21.149  0.00  0.00    +0.000 N 
ATOM     10  H   UNL     1       8.637   1.629  20.416  0.00  0.00    +0.000 HD
ATOM     11  C   UNL     1       8.188   2.028  22.206  0.00  0.00    +0.000 C 
ATOM     12  O   UNL     1       7.744   3.163  22.106  0.00  0.00    +0.000 OA
BRANCH   9  16
ATOM     13  C   UNL     1       6.024   0.904  17.925  0.00  0.00    +0.000 A 
ATOM     14  N   UNL     1       7.082  -0.091  18.281  0.00  0.00    +0.000 NA
ATOM     15  C   UNL     1       7.078  -0.129  19.609  0.00  0.00    +0.000 A 
ATOM     16  C   UNL     1       6.929   0.872  20.766  0.00  0.00    +0.000 A 
ATOM     17  C   UNL     1       5.895   1.841  20.428  0.00  0.00    +0.000 A 
ATOM     18  C   UNL     1       5.342   1.495  19.023  0.00  0.00    +0.000 A 
ENDBRANCH   9  16
ENDBRANCH   1  11
BRANCH   6  19
ATOM     19  S   UNL     1       8.360  -2.117  22.966  0.00  0.00    +0.000 S 
ATOM     20  O   UNL     1       9.101  -2.348  21.711  0.00  0.00    +0.000 OA
ATOM     21  O   UNL     1       6.935  -1.891  22.678  0.00  0.00    +0.000 OA
BRANCH  19  22
ATOM     22  C   UNL     1       8.417  -3.638  23.824  0.00  0.00    +0.000 A 
ATOM     23  C   UNL     1       6.975  -3.820  24.176  0.00  0.00    +0.000 A 
ATOM     24  C   UNL     1       6.403  -3.925  25.509  0.00  0.00    +0.000 A 
ATOM     25  C   UNL     1       7.483  -3.970  26.595  0.00  0.00    +0.000 A 
ATOM     26 CL   UNL     1       7.011  -5.474  27.420  0.00  0.00    +0.000 Cl
ATOM     27  C   UNL     1       8.921  -3.834  26.448  0.00  0.00    +0.000 A 
ATOM     28  C   UNL     1       9.357  -3.737  24.897  0.00  0.00    +0.000 A 
ENDBRANCH  19  22
ENDBRANCH   6  19
TORSDOF 4
ENDMDL
MODEL 3
REMARK VINA RESULT:      -7.1      2.046      2.510
REMARK  Name = 
REMARK  4 active torsions:
REMARK  status: ('A' for Active; 'I' for Inactive)
REMARK    1  A    between atoms: C_6  and  N_7
REMARK    2  A    between atoms: C_9  and  C_11
REMARK    3  A    between atoms: N_20  and  S_21
REMARK    4  A    between atoms: S_21  and  C_24
REMARK                            x       y       z     vdW  Elec       q    Type
REMARK                         _______ _______ _______ _____ _____    ______ ____
ROOT
ATOM      1  C   UNL     1       9.517   0.317  22.445  0.00  0.00    +0.000 C 
ATOM      2  O   UNL     1      10.215  -0.175  21.585  0.00  0.00    +0.000 OA
ATOM      3  N   UNL     1       9.430  -0.107  23.692  0.00  0.00    +0.000 N 
ATOM      4  C   UNL     1       8.266   0.163  24.539  0.00  0.00    +0.000 C 
ATOM      5  C   UNL     1       7.516  -1.176  24.658  0.00  0.00    +0.000 C 
ATOM      6  N   UNL     1       7.881  -2.071  23.656  0.00  0.00    +0.000 NA
ATOM      7  C   UNL     1       9.206  -2.505  23.686  0.00  0.00    +0.000 C 
ATOM      8  C   UNL     1      10.143  -1.354  24.066  0.00  0.00    +0.000 C 
ENDROOT
BRANCH   1  11
ATOM      9  N   UNL     1       7.967  -0.205  20.936  0.00  0.00    +0.000 N 
ATOM     10  H   UNL     1       8.440  -0.105  20.146  0.00  0.00    +0.000 HD
ATOM     11  C   UNL     1       8.340   0.694  21.854  0.00  0.00    +0.000 C 
ATOM     12  O   UNL     1       8.437   1.882  21.580  0.00  0.00    +0.000 OA
BRANCH   9  16
ATOM     13  C   UNL     1       5.698   0.624  17.830  0.00  0.00    +0.000 A 
ATOM     14  N   UNL     1       6.282  -0.730  18.074  0.00  0.00    +0.000 NA
ATOM     15  C   UNL     1       6.304  -0.856  19.397  0.00  0.00    +0.000 A 
ATOM     16  C   UNL     1       6.602   0.039  20.611  0.00  0.00    +0.000 A 
ATOM     17  C   UNL     1       6.030   1.358  20.382  0.00  0.00    +0.000 A 
ATOM     18  C   UNL     1       5.342   1.359  18.994  0.00  0.00    +0.000 A 
ENDBRANCH   9  16
ENDBRANCH   1  11
BRANCH   6  19
ATOM     19  S   UNL     1       6.767  -3.020  23.088  0.00  0.00    +0.000 S 
ATOM     20  O   UNL     1       7.004  -3.235  21.648  0.00  0.00    +0.000 OA
ATOM     21  O   UNL     1       5.447  -2.405  23.298  0.00  0.00    +0.000 OA
BRANCH  19  22
ATOM     22  C   UNL     1       6.642  -4.619  23.781  0.00  0.00    +0.000 A 
ATOM     23  C   UNL     1       5.666  -5.258  22.845  0.00  0.00    +0.000 A 
ATOM     24  C   UNL     1       4.361  -5.807  23.177  0.00  0.00    +0.000 A 
ATOM     25  C   UNL     1       4.101  -5.796  24.687  0.00  0.00    +0.000 A 
ATOM     26 CL   UNL     1       3.716  -7.515  24.934  0.00  0.00    +0.000 Cl
ATOM     27  C   UNL     1       4.930  -5.245  25.745  0.00  0.00    +0.000 A 
ATOM     28  C   UNL     1       6.336  -4.693  25.176  0.00  0.00    +0.000 A 
ENDBRANCH  19  22
ENDBRANCH   6  19
TORSDOF 4
ENDMDL
MODEL 4
REMARK VINA RESULT:      -7.0      4.220      7.623
REMARK  Name = 
REMARK  4 active torsions:
REMARK  status: ('A' for Active; 'I' for Inactive)
REMARK    1  A    between atoms: C_6  and  N_7
REMARK    2  A    between atoms: C_9  and  C_11
REMARK    3  A    between atoms: N_20  and  S_21
REMARK    4  A    between atoms: S_21  and  C_24
REMARK                            x       y       z     vdW  Elec       q    Type
REMARK                         _______ _______ _______ _____ _____    ______ ____
ROOT
ATOM      1  C   UNL     1       5.301  -5.330  23.710  0.00  0.00    +0.000 C 
ATOM      2  O   UNL     1       5.836  -6.386  23.453  0.00  0.00    +0.000 OA
ATOM      3  N   UNL     1       5.377  -4.238  22.973  0.00  0.00    +0.000 N 
ATOM      4  C   UNL     1       5.159  -2.897  23.521  0.00  0.00    +0.000 C 
ATOM      5  C   UNL     1       6.550  -2.239  23.581  0.00  0.00    +0.000 C 
ATOM      6  N   UNL     1       7.576  -3.177  23.521  0.00  0.00    +0.000 NA
ATOM      7  C   UNL     1       7.672  -3.892  22.327  0.00  0.00    +0.000 C 
ATOM      8  C   UNL     1       6.279  -4.242  21.794  0.00  0.00    +0.000 C 
ENDROOT
BRANCH   1  11
ATOM      9  N   UNL     1       6.619  -5.390  25.502  0.00  0.00    +0.000 N 
ATOM     10  H   UNL     1       6.786  -6.297  25.576  0.00  0.00    +0.000 HD
ATOM     11  C   UNL     1       5.377  -5.148  25.066  0.00  0.00    +0.000 C 
ATOM     12  O   UNL     1       4.408  -5.705  25.560  0.00  0.00    +0.000 OA
BRANCH   9  16
ATOM     13  C   UNL     1       5.078  -5.852  29.093  0.00  0.00    +0.000 A 
ATOM     14  N   UNL     1       6.036  -6.825  28.486  0.00  0.00    +0.000 NA
ATOM     15  C   UNL     1       6.850  -6.082  27.744  0.00  0.00    +0.000 A 
ATOM     16  C   UNL     1       6.733  -4.859  26.819  0.00  0.00    +0.000 A 
ATOM     17  C   UNL     1       5.805  -3.903  27.408  0.00  0.00    +0.000 A 
ATOM     18  C   UNL     1       5.284  -4.488  28.744  0.00  0.00    +0.000 A 
ENDBRANCH   9  16
ENDBRANCH   1  11
BRANCH   6  19
ATOM     19  S   UNL     1       8.871  -2.893  24.360  0.00  0.00    +0.000 S 
ATOM     20  O   UNL     1       9.612  -4.154  24.549  0.00  0.00    +0.000 OA
ATOM     21  O   UNL     1       8.494  -2.327  25.665  0.00  0.00    +0.000 OA
BRANCH  19  22
ATOM     22  C   UNL     1      10.032  -1.770  23.694  0.00  0.00    +0.000 A 
ATOM     23  C   UNL     1       9.768  -0.559  24.531  0.00  0.00    +0.000 A 
ATOM     24  C   UNL     1       9.332   0.750  24.069  0.00  0.00    +0.000 A 
ATOM     25  C   UNL     1       9.287   0.834  22.540  0.00  0.00    +0.000 A 
ATOM     26 CL   UNL     1      10.323   2.258  22.291  0.00  0.00    +0.000 Cl
ATOM     27  C   UNL     1       9.531  -0.218  21.568  0.00  0.00    +0.000 A 
ATOM     28  C   UNL     1      10.010  -1.587  22.276  0.00  0.00    +0.000 A 
ENDBRANCH  19  22
ENDBRANCH   6  19
TORSDOF 4
ENDMDL
MODEL 5
REMARK VINA RESULT:      -7.0      3.452      6.125
REMARK  Name = 
REMARK  4 active torsions:
REMARK  status: ('A' for Active; 'I' for Inactive)
REMARK    1  A    between atoms: C_6  and  N_7
REMARK    2  A    between atoms: C_9  and  C_11
REMARK    3  A    between atoms: N_20  and  S_21
REMARK    4  A    between atoms: S_21  and  C_24
REMARK                            x       y       z     vdW  Elec       q    Type
REMARK                         _______ _______ _______ _____ _____    ______ ____
ROOT
ATOM      1  C   UNL     1       6.809  -2.991  26.690  0.00  0.00    +0.000 C 
ATOM      2  O   UNL     1       6.092  -2.022  26.812  0.00  0.00    +0.000 OA
ATOM      3  N   UNL     1       8.121  -2.956  26.550  0.00  0.00    +0.000 N 
ATOM      4  C   UNL     1       8.879  -4.045  25.928  0.00  0.00    +0.000 C 
ATOM      5  C   UNL     1       9.313  -3.516  24.549  0.00  0.00    +0.000 C 
ATOM      6  N   UNL     1       8.554  -2.422  24.145  0.00  0.00    +0.000 NA
ATOM      7  C   UNL     1       8.688  -1.272  24.924  0.00  0.00    +0.000 C 
ATOM      8  C   UNL     1       8.783  -1.635  26.409  0.00  0.00    +0.000 C 
ENDROOT
BRANCH   1  11
ATOM      9  N   UNL     1       5.483  -3.278  24.926  0.00  0.00    +0.000 N 
ATOM     10  H   UNL     1       4.693  -2.903  25.228  0.00  0.00    +0.000 HD
ATOM     11  C   UNL     1       6.144  -3.900  25.909  0.00  0.00    +0.000 C 
ATOM     12  O   UNL     1       5.581  -4.680  26.663  0.00  0.00    +0.000 OA
BRANCH   9  16
ATOM     13  C   UNL     1       3.301  -6.537  24.608  0.00  0.00    +0.000 A 
ATOM     14  N   UNL     1       2.711  -5.167  24.698  0.00  0.00    +0.000 NA
ATOM     15  C   UNL     1       3.581  -4.381  24.073  0.00  0.00    +0.000 A 
ATOM     16  C   UNL     1       5.110  -4.256  23.960  0.00  0.00    +0.000 A 
ATOM     17  C   UNL     1       5.691  -5.588  23.866  0.00  0.00    +0.000 A 
ATOM     18  C   UNL     1       4.544  -6.627  23.922  0.00  0.00    +0.000 A 
ENDBRANCH   9  16
ENDBRANCH   1  11
BRANCH   6  19
ATOM     19  S   UNL     1       8.228  -2.287  22.615  0.00  0.00    +0.000 S 
ATOM     20  O   UNL     1       7.651  -3.554  22.130  0.00  0.00    +0.000 OA
ATOM     21  O   UNL     1       9.464  -1.978  21.879  0.00  0.00    +0.000 OA
BRANCH  19  22
ATOM     22  C   UNL     1       7.092  -1.048  22.141  0.00  0.00    +0.000 A 
ATOM     23  C   UNL     1       6.201  -1.818  21.218  0.00  0.00    +0.000 A 
ATOM     24  C   UNL     1       5.959  -1.554  19.809  0.00  0.00    +0.000 A 
ATOM     25  C   UNL     1       6.632  -0.260  19.342  0.00  0.00    +0.000 A 
ATOM     26 CL   UNL     1       5.220   0.578  18.658  0.00  0.00    +0.000 Cl
ATOM     27  C   UNL     1       7.507   0.626  20.090  0.00  0.00    +0.000 A 
ATOM     28  C   UNL     1       7.643   0.170  21.632  0.00  0.00    +0.000 A 
ENDBRANCH  19  22
ENDBRANCH   6  19
TORSDOF 4
ENDMDL
MODEL 6
REMARK VINA RESULT:      -7.0      3.468      6.176
REMARK  Name = 
REMARK  4 active torsions:
REMARK  status: ('A' for Active; 'I' for Inactive)
REMARK    1  A    between atoms: C_6  and  N_7
REMARK    2  A    between atoms: C_9  and  C_11
REMARK    3  A    between atoms: N_20  and  S_21
REMARK    4  A    between atoms: S_21  and  C_24
REMARK                            x       y       z     vdW  Elec       q    Type
REMARK                         _______ _______ _______ _____ _____    ______ ____
ROOT
ATOM      1  C   UNL     1       7.536  -2.349  25.707  0.00  0.00    +0.000 C 
ATOM      2  O   UNL     1       6.519  -1.850  26.134  0.00  0.00    +0.000 OA
ATOM      3  N   UNL     1       8.720  -1.764  25.680  0.00  0.00    +0.000 N 
ATOM      4  C   UNL     1       9.777  -2.163  24.749  0.00  0.00    +0.000 C 
ATOM      5  C   UNL     1       9.857  -1.038  23.701  0.00  0.00    +0.000 C 
ATOM      6  N   UNL     1       8.708  -0.255  23.686  0.00  0.00    +0.000 NA
ATOM      7  C   UNL     1       8.461   0.480  24.845  0.00  0.00    +0.000 C 
ATOM      8  C   UNL     1       8.814  -0.341  26.090  0.00  0.00    +0.000 C 
ENDROOT
BRANCH   1  11
ATOM      9  N   UNL     1       6.325  -2.415  23.842  0.00  0.00    +0.000 N 
ATOM     10  H   UNL     1       5.467  -2.469  24.183  0.00  0.00    +0.000 HD
ATOM     11  C   UNL     1       7.203  -3.084  24.600  0.00  0.00    +0.000 C 
ATOM     12  O   UNL     1       6.980  -4.225  24.976  0.00  0.00    +0.000 OA
BRANCH   9  16
ATOM     13  C   UNL     1       5.561  -5.917  22.217  0.00  0.00    +0.000 A 
ATOM     14  N   UNL     1       4.495  -5.019  22.757  0.00  0.00    +0.000 NA
ATOM     15  C   UNL     1       4.936  -3.788  22.520  0.00  0.00    +0.000 A 
ATOM     16  C   UNL     1       6.281  -3.043  22.564  0.00  0.00    +0.000 A 
ATOM     17  C   UNL     1       7.323  -3.910  22.033  0.00  0.00    +0.000 A 
ATOM     18  C   UNL     1       6.679  -5.260  21.630  0.00  0.00    +0.000 A 
ENDBRANCH   9  16
ENDBRANCH   1  11
BRANCH   6  19
ATOM     19  S   UNL     1       8.224   0.302  22.300  0.00  0.00    +0.000 S 
ATOM     20  O   UNL     1       6.751   0.253  22.246  0.00  0.00    +0.000 OA
ATOM     21  O   UNL     1       8.798  -0.516  21.219  0.00  0.00    +0.000 OA
BRANCH  19  22
ATOM     22  C   UNL     1       8.648   1.949  21.901  0.00  0.00    +0.000 A 
ATOM     23  C   UNL     1      10.096   1.968  22.278  0.00  0.00    +0.000 A 
ATOM     24  C   UNL     1      10.732   2.818  23.272  0.00  0.00    +0.000 A 
ATOM     25  C   UNL     1       9.761   3.852  23.851  0.00  0.00    +0.000 A 
ATOM     26 CL   UNL     1      10.684   5.337  23.528  0.00  0.00    +0.000 Cl
ATOM     27  C   UNL     1       8.340   4.003  23.594  0.00  0.00    +0.000 A 
ATOM     28  C   UNL     1       7.826   2.978  22.458  0.00  0.00    +0.000 A 
ENDBRANCH  19  22
ENDBRANCH   6  19
TORSDOF 4
ENDMDL
MODEL 7
REMARK VINA RESULT:      -6.9      4.171      7.220
REMARK  Name = 
REMARK  4 active torsions:
REMARK  status: ('A' for Active; 'I' for Inactive)
REMARK    1  A    between atoms: C_6  and  N_7
REMARK    2  A    between atoms: C_9  and  C_11
REMARK    3  A    between atoms: N_20  and  S_21
REMARK    4  A    between atoms: S_21  and  C_24
REMARK                            x       y       z     vdW  Elec       q    Type
REMARK                         _______ _______ _______ _____ _____    ______ ____
ROOT
ATOM      1  C   UNL     1       7.410  -5.290  26.232  0.00  0.00    +0.000 C 
ATOM      2  O   UNL     1       7.986  -5.103  27.280  0.00  0.00    +0.000 OA
ATOM      3  N   UNL     1       7.992  -5.419  25.054  0.00  0.00    +0.000 N 
ATOM      4  C   UNL     1       7.294  -5.152  23.794  0.00  0.00    +0.000 C 
ATOM      5  C   UNL     1       7.871  -3.823  23.271  0.00  0.00    +0.000 C 
ATOM      6  N   UNL     1       8.509  -3.099  24.273  0.00  0.00    +0.000 NA
ATOM      7  C   UNL     1       9.652  -3.690  24.812  0.00  0.00    +0.000 C 
ATOM      8  C   UNL     1       9.458  -5.202  24.962  0.00  0.00    +0.000 C 
ENDROOT
BRANCH   1  11
ATOM      9  N   UNL     1       6.482  -3.353  26.811  0.00  0.00    +0.000 N 
ATOM     10  H   UNL     1       6.514  -3.404  27.734  0.00  0.00    +0.000 HD
ATOM     11  C   UNL     1       6.258  -4.550  26.256  0.00  0.00    +0.000 C 
ATOM     12  O   UNL     1       5.366  -5.282  26.659  0.00  0.00    +0.000 OA
BRANCH   9  16
ATOM     13  C   UNL     1       2.581  -3.184  27.294  0.00  0.00    +0.000 A 
ATOM     14  N   UNL     1       3.551  -2.934  28.404  0.00  0.00    +0.000 NA
ATOM     15  C   UNL     1       4.595  -2.359  27.818  0.00  0.00    +0.000 A 
ATOM     16  C   UNL     1       5.376  -2.511  26.501  0.00  0.00    +0.000 A 
ATOM     17  C   UNL     1       4.436  -2.748  25.415  0.00  0.00    +0.000 A 
ATOM     18  C   UNL     1       3.002  -2.763  26.002  0.00  0.00    +0.000 A 
ENDBRANCH   9  16
ENDBRANCH   1  11
BRANCH   6  19
ATOM     19  S   UNL     1       8.396  -1.534  24.224  0.00  0.00    +0.000 S 
ATOM     20  O   UNL     1       8.039  -1.033  25.565  0.00  0.00    +0.000 OA
ATOM     21  O   UNL     1       7.364  -1.149  23.249  0.00  0.00    +0.000 OA
BRANCH  19  22
ATOM     22  C   UNL     1       9.822  -0.638  23.758  0.00  0.00    +0.000 A 
ATOM     23  C   UNL     1       9.822   0.448  24.786  0.00  0.00    +0.000 A 
ATOM     24  C   UNL     1       9.737   1.880  24.550  0.00  0.00    +0.000 A 
ATOM     25  C   UNL     1       9.780   2.220  23.056  0.00  0.00    +0.000 A 
ATOM     26 CL   UNL     1      11.139   3.367  23.052  0.00  0.00    +0.000 Cl
ATOM     27  C   UNL     1       9.803   1.313  21.922  0.00  0.00    +0.000 A 
ATOM     28  C   UNL     1       9.905  -0.228  22.391  0.00  0.00    +0.000 A 
ENDBRANCH  19  22
ENDBRANCH   6  19
TORSDOF 4
ENDMDL
MODEL 8
REMARK VINA RESULT:      -6.7      4.374      7.355
REMARK  Name = 
REMARK  4 active torsions:
REMARK  status: ('A' for Active; 'I' for Inactive)
REMARK    1  A    between atoms: C_6  and  N_7
REMARK    2  A    between atoms: C_9  and  C_11
REMARK    3  A    between atoms: N_20  and  S_21
REMARK    4  A    between atoms: S_21  and  C_24
REMARK                            x       y       z     vdW  Elec       q    Type
REMARK                         _______ _______ _______ _____ _____    ______ ____
ROOT
ATOM      1  C   UNL     1       7.194  -5.129  26.621  0.00  0.00    +0.000 C 
ATOM      2  O   UNL     1       6.843  -4.558  27.631  0.00  0.00    +0.000 OA
ATOM      3  N   UNL     1       8.181  -4.745  25.832  0.00  0.00    +0.000 N 
ATOM      4  C   UNL     1       8.262  -5.134  24.423  0.00  0.00    +0.000 C 
ATOM      5  C   UNL     1       7.918  -3.866  23.619  0.00  0.00    +0.000 C 
ATOM      6  N   UNL     1       7.256  -2.920  24.394  0.00  0.00    +0.000 NA
ATOM      7  C   UNL     1       7.993  -2.375  25.445  0.00  0.00    +0.000 C 
ATOM      8  C   UNL     1       8.852  -3.452  26.117  0.00  0.00    +0.000 C 
ENDROOT
BRANCH   1  11
ATOM      9  N   UNL     1       5.109  -4.655  26.006  0.00  0.00    +0.000 N 
ATOM     10  H   UNL     1       4.682  -4.612  26.825  0.00  0.00    +0.000 HD
ATOM     11  C   UNL     1       6.067  -5.590  25.994  0.00  0.00    +0.000 C 
ATOM     12  O   UNL     1       5.859  -6.720  26.409  0.00  0.00    +0.000 OA
BRANCH   9  16
ATOM     13  C   UNL     1       2.679  -7.646  25.213  0.00  0.00    +0.000 A 
ATOM     14  N   UNL     1       2.456  -6.693  26.342  0.00  0.00    +0.000 NA
ATOM     15  C   UNL     1       2.922  -5.529  25.900  0.00  0.00    +0.000 A 
ATOM     16  C   UNL     1       4.113  -5.035  25.062  0.00  0.00    +0.000 A 
ATOM     17  C   UNL     1       4.331  -5.957  23.956  0.00  0.00    +0.000 A 
ATOM     18  C   UNL     1       3.280  -7.091  24.049  0.00  0.00    +0.000 A 
ENDBRANCH   9  16
ENDBRANCH   1  11
BRANCH   6  19
ATOM     19  S   UNL     1       6.148  -2.054  23.695  0.00  0.00    +0.000 S 
ATOM     20  O   UNL     1       5.093  -1.736  24.676  0.00  0.00    +0.000 OA
ATOM     21  O   UNL     1       5.580  -2.807  22.566  0.00  0.00    +0.000 OA
BRANCH  19  22
ATOM     22  C   UNL     1       6.633  -0.517  23.021  0.00  0.00    +0.000 A 
ATOM     23  C   UNL     1       7.614  -0.960  21.983  0.00  0.00    +0.000 A 
ATOM     24  C   UNL     1       9.024  -0.613  21.902  0.00  0.00    +0.000 A 
ATOM     25  C   UNL     1       9.424   0.417  22.964  0.00  0.00    +0.000 A 
ATOM     26 CL   UNL     1      10.142   1.661  21.915  0.00  0.00    +0.000 Cl
ATOM     27  C   UNL     1       8.615   0.977  24.032  0.00  0.00    +0.000 A 
ATOM     28  C   UNL     1       7.082   0.478  23.945  0.00  0.00    +0.000 A 
ENDBRANCH  19  22
ENDBRANCH   6  19
TORSDOF 4
ENDMDL
MODEL 9
REMARK VINA RESULT:      -6.7      3.600      6.801
REMARK  Name = 
REMARK  4 active torsions:
REMARK  status: ('A' for Active; 'I' for Inactive)
REMARK    1  A    between atoms: C_6  and  N_7
REMARK    2  A    between atoms: C_9  and  C_11
REMARK    3  A    between atoms: N_20  and  S_21
REMARK    4  A    between atoms: S_21  and  C_24
REMARK                            x       y       z     vdW  Elec       q    Type
REMARK                         _______ _______ _______ _____ _____    ______ ____
ROOT
ATOM      1  C   UNL     1       9.081  -3.105  23.387  0.00  0.00    +0.000 C 
ATOM      2  O   UNL     1      10.049  -3.043  24.113  0.00  0.00    +0.000 OA
ATOM      3  N   UNL     1       8.765  -2.219  22.460  0.00  0.00    +0.000 N 
ATOM      4  C   UNL     1       7.397  -2.049  21.963  0.00  0.00    +0.000 C 
ATOM      5  C   UNL     1       6.897  -0.721  22.562  0.00  0.00    +0.000 C 
ATOM      6  N   UNL     1       7.656  -0.323  23.658  0.00  0.00    +0.000 NA
ATOM      7  C   UNL     1       8.987  -0.007  23.389  0.00  0.00    +0.000 C 
ATOM      8  C   UNL     1       9.576  -0.980  22.361  0.00  0.00    +0.000 C 
ENDROOT
BRANCH   1  11
ATOM      9  N   UNL     1       8.036  -3.056  25.350  0.00  0.00    +0.000 N 
ATOM     10  H   UNL     1       8.665  -3.449  25.902  0.00  0.00    +0.000 HD
ATOM     11  C   UNL     1       8.040  -3.599  24.127  0.00  0.00    +0.000 C 
ATOM     12  O   UNL     1       8.027  -4.811  23.968  0.00  0.00    +0.000 OA
BRANCH   9  16
ATOM     13  C   UNL     1       5.732  -6.092  26.327  0.00  0.00    +0.000 A 
ATOM     14  N   UNL     1       6.965  -5.728  27.088  0.00  0.00    +0.000 NA
ATOM     15  C   UNL     1       7.035  -4.403  27.006  0.00  0.00    +0.000 A 
ATOM     16  C   UNL     1       6.770  -3.323  25.945  0.00  0.00    +0.000 A 
ATOM     17  C   UNL     1       5.565  -3.669  25.203  0.00  0.00    +0.000 A 
ATOM     18  C   UNL     1       5.011  -5.003  25.765  0.00  0.00    +0.000 A 
ENDBRANCH   9  16
ENDBRANCH   1  11
BRANCH   6  19
ATOM     19  S   UNL     1       6.910   0.403  24.833  0.00  0.00    +0.000 S 
ATOM     20  O   UNL     1       7.573   0.067  26.107  0.00  0.00    +0.000 OA
ATOM     21  O   UNL     1       5.505  -0.033  24.863  0.00  0.00    +0.000 OA
BRANCH  19  22
ATOM     22  C   UNL     1       6.846   2.148  24.790  0.00  0.00    +0.000 A 
ATOM     23  C   UNL     1       5.967   2.371  23.601  0.00  0.00    +0.000 A 
ATOM     24  C   UNL     1       6.307   3.082  22.378  0.00  0.00    +0.000 A 
ATOM     25  C   UNL     1       7.687   3.742  22.463  0.00  0.00    +0.000 A 
ATOM     26 CL   UNL     1       7.239   5.416  22.062  0.00  0.00    +0.000 Cl
ATOM     27  C   UNL     1       8.666   3.661  23.533  0.00  0.00    +0.000 A 
ATOM     28  C   UNL     1       8.098   2.839  24.801  0.00  0.00    +0.000 A 
ENDBRANCH  19  22
ENDBRANCH   6  19
TORSDOF 4
ENDMDL
