MODEL 1
REMARK VINA RESULT:      -8.6      0.000      0.000
REMARK  Name = 
REMARK  6 active torsions:
REMARK  status: ('A' for Active; 'I' for Inactive)
REMARK    1  A    between atoms: C_7  and  C_8
REMARK    2  A    between atoms: C_24  and  C_26
REMARK    3  A    between atoms: C_26  and  C_29
REMARK    4  A    between atoms: N_38  and  S_39
REMARK    5  A    between atoms: S_39  and  C_42
REMARK    6  A    between atoms: C_51  and  C_52
REMARK                            x       y       z     vdW  Elec       q    Type
REMARK                         _______ _______ _______ _____ _____    ______ ____
ROOT
ATOM      1  C   UNL     1       8.683  -1.840  24.819  0.00  0.00    +0.000 C 
ENDROOT
BRANCH   1  11
ATOM      2  C   UNL     1       7.434  -0.021  22.177  0.00  0.00    +0.000 C 
ATOM      3  C   UNL     1       8.086   1.101  22.841  0.00  0.00    +0.000 A 
ATOM      4  C   UNL     1       7.708   1.693  23.927  0.00  0.00    +0.000 A 
ATOM      5  C   UNL     1       8.311   2.971  24.388  0.00  0.00    +0.000 A 
ATOM      6  C   UNL     1       9.631   3.089  23.660  0.00  0.00    +0.000 A 
ATOM      7  C   UNL     1      10.388   2.226  22.764  0.00  0.00    +0.000 A 
ATOM      8  C   UNL     1       9.640   0.943  22.701  0.00  0.00    +0.000 A 
ATOM      9  C   UNL     1      10.352  -0.324  23.121  0.00  0.00    +0.000 C 
ATOM     10  N   UNL     1       9.668  -1.359  22.711  0.00  0.00    +0.000 N 
ATOM     11  C   UNL     1       9.404  -2.452  23.677  0.00  0.00    +0.000 C 
ATOM     12  O   UNL     1      10.420  -3.023  23.692  0.00  0.00    +0.000 OA
ATOM     13  C   UNL     1       8.451  -1.180  22.182  0.00  0.00    +0.000 C 
BRANCH   2  17
ATOM     14  C   UNL     1       5.591   0.852  18.515  0.00  0.00    +0.000 A 
ATOM     15  C   UNL     1       5.381   1.658  19.784  0.00  0.00    +0.000 A 
ATOM     16  C   UNL     1       6.304   1.809  20.915  0.00  0.00    +0.000 A 
ATOM     17  C   UNL     1       7.417   0.764  20.854  0.00  0.00    +0.000 A 
ATOM     18  C   UNL     1       7.873   0.044  19.656  0.00  0.00    +0.000 A 
ATOM     19  C   UNL     1       6.727  -0.059  18.574  0.00  0.00    +0.000 A 
ENDBRANCH   2  17
ENDBRANCH   1  11
BRANCH   1  20
ATOM     20  C   UNL     1       7.569  -2.748  25.355  0.00  0.00    +0.000 C 
ATOM     21  O   UNL     1       7.695  -3.213  26.479  0.00  0.00    +0.000 OA
ATOM     22  N   UNL     1       7.023  -3.541  24.362  0.00  0.00    +0.000 N 
ATOM     23  C   UNL     1       5.605  -3.210  24.068  0.00  0.00    +0.000 C 
ATOM     24  C   UNL     1       4.774  -3.958  25.133  0.00  0.00    +0.000 C 
ATOM     25  N   UNL     1       5.560  -4.506  26.113  0.00  0.00    +0.000 NA
ATOM     26  C   UNL     1       6.483  -5.444  25.744  0.00  0.00    +0.000 C 
ATOM     27  C   UNL     1       7.269  -4.991  24.492  0.00  0.00    +0.000 C 
BRANCH  25  28
ATOM     28  S   UNL     1       5.170  -4.226  27.659  0.00  0.00    +0.000 S 
ATOM     29  O   UNL     1       6.215  -4.857  28.447  0.00  0.00    +0.000 OA
ATOM     30  O   UNL     1       5.072  -2.798  27.887  0.00  0.00    +0.000 OA
BRANCH  28  31
ATOM     31  C   UNL     1       3.583  -4.912  27.879  0.00  0.00    +0.000 A 
ATOM     32  C   UNL     1       3.013  -4.152  29.063  0.00  0.00    +0.000 A 
ATOM     33  C   UNL     1       2.486  -4.738  30.326  0.00  0.00    +0.000 A 
ATOM     34  C   UNL     1       2.744  -6.194  30.233  0.00  0.00    +0.000 A 
ATOM     35  C   UNL     1       3.280  -7.162  29.364  0.00  0.00    +0.000 A 
ATOM     36  C   UNL     1       3.581  -6.342  28.042  0.00  0.00    +0.000 A 
BRANCH  36  37
ATOM     37  C   UNL     1       2.586  -6.904  27.320  0.00  0.00    +0.000 C 
ATOM     38  N   UNL     1       3.020  -7.039  26.239  0.00  0.00    +0.000 NA
ENDBRANCH  36  37
ENDBRANCH  28  31
ENDBRANCH  25  28
ENDBRANCH   1  20
TORSDOF 6
ENDMDL
MODEL 2
REMARK VINA RESULT:      -8.4      1.101      1.731
REMARK  Name = 
REMARK  6 active torsions:
REMARK  status: ('A' for Active; 'I' for Inactive)
REMARK    1  A    between atoms: C_7  and  C_8
REMARK    2  A    between atoms: C_24  and  C_26
REMARK    3  A    between atoms: C_26  and  C_29
REMARK    4  A    between atoms: N_38  and  S_39
REMARK    5  A    between atoms: S_39  and  C_42
REMARK    6  A    between atoms: C_51  and  C_52
REMARK                            x       y       z     vdW  Elec       q    Type
REMARK                         _______ _______ _______ _____ _____    ______ ____
ROOT
ATOM      1  C   UNL     1       8.751  -1.869  24.568  0.00  0.00    +0.000 C 
ENDROOT
BRANCH   1  11
ATOM      2  C   UNL     1       7.399  -0.055  21.974  0.00  0.00    +0.000 C 
ATOM      3  C   UNL     1       7.953   1.089  22.688  0.00  0.00    +0.000 A 
ATOM      4  C   UNL     1       7.514   1.609  23.789  0.00  0.00    +0.000 A 
ATOM      5  C   UNL     1       8.009   2.912  24.307  0.00  0.00    +0.000 A 
ATOM      6  C   UNL     1       9.325   3.159  23.605  0.00  0.00    +0.000 A 
ATOM      7  C   UNL     1      10.160   2.392  22.691  0.00  0.00    +0.000 A 
ATOM      8  C   UNL     1       9.516   1.058  22.568  0.00  0.00    +0.000 A 
ATOM      9  C   UNL     1      10.319  -0.164  22.954  0.00  0.00    +0.000 C 
ATOM     10  N   UNL     1       9.724  -1.234  22.495  0.00  0.00    +0.000 N 
ATOM     11  C   UNL     1       9.534  -2.380  23.416  0.00  0.00    +0.000 C 
ATOM     12  O   UNL     1      10.591  -2.870  23.427  0.00  0.00    +0.000 OA
ATOM     13  C   UNL     1       8.504  -1.130  21.953  0.00  0.00    +0.000 C 
BRANCH   2  17
ATOM     14  C   UNL     1       5.477   0.891  18.371  0.00  0.00    +0.000 A 
ATOM     15  C   UNL     1       5.261   1.645  19.671  0.00  0.00    +0.000 A 
ATOM     16  C   UNL     1       6.195   1.783  20.794  0.00  0.00    +0.000 A 
ATOM     17  C   UNL     1       7.339   0.776  20.681  0.00  0.00    +0.000 A 
ATOM     18  C   UNL     1       7.799   0.113  19.451  0.00  0.00    +0.000 A 
ATOM     19  C   UNL     1       6.640   0.014  18.382  0.00  0.00    +0.000 A 
ENDBRANCH   2  17
ENDBRANCH   1  11
BRANCH   1  20
ATOM     20  C   UNL     1       7.717  -2.888  25.064  0.00  0.00    +0.000 C 
ATOM     21  O   UNL     1       8.120  -3.972  25.459  0.00  0.00    +0.000 OA
ATOM     22  N   UNL     1       6.547  -2.839  24.328  0.00  0.00    +0.000 N 
ATOM     23  C   UNL     1       5.381  -2.371  25.123  0.00  0.00    +0.000 C 
ATOM     24  C   UNL     1       4.865  -3.615  25.877  0.00  0.00    +0.000 C 
ATOM     25  N   UNL     1       5.719  -4.682  25.762  0.00  0.00    +0.000 NA
ATOM     26  C   UNL     1       5.966  -5.173  24.512  0.00  0.00    +0.000 C 
ATOM     27  C   UNL     1       6.254  -4.032  23.510  0.00  0.00    +0.000 C 
BRANCH  25  28
ATOM     28  S   UNL     1       6.159  -5.463  27.110  0.00  0.00    +0.000 S 
ATOM     29  O   UNL     1       7.407  -6.133  26.784  0.00  0.00    +0.000 OA
ATOM     30  O   UNL     1       6.291  -4.518  28.201  0.00  0.00    +0.000 OA
BRANCH  28  31
ATOM     31  C   UNL     1       4.839  -6.535  27.489  0.00  0.00    +0.000 A 
ATOM     32  C   UNL     1       4.373  -7.040  26.135  0.00  0.00    +0.000 A 
ATOM     33  C   UNL     1       2.994  -6.953  25.579  0.00  0.00    +0.000 A 
ATOM     34  C   UNL     1       2.211  -6.172  26.565  0.00  0.00    +0.000 A 
ATOM     35  C   UNL     1       2.338  -5.535  27.813  0.00  0.00    +0.000 A 
ATOM     36  C   UNL     1       3.800  -5.929  28.279  0.00  0.00    +0.000 A 
BRANCH  36  37
ATOM     37  C   UNL     1       3.394  -6.767  29.259  0.00  0.00    +0.000 C 
ATOM     38  N   UNL     1       4.378  -7.169  29.756  0.00  0.00    +0.000 NA
ENDBRANCH  36  37
ENDBRANCH  28  31
ENDBRANCH  25  28
ENDBRANCH   1  20
TORSDOF 6
ENDMDL
MODEL 3
REMARK VINA RESULT:      -8.3      1.995      2.206
REMARK  Name = 
REMARK  6 active torsions:
REMARK  status: ('A' for Active; 'I' for Inactive)
REMARK    1  A    between atoms: C_7  and  C_8
REMARK    2  A    between atoms: C_24  and  C_26
REMARK    3  A    between atoms: C_26  and  C_29
REMARK    4  A    between atoms: N_38  and  S_39
REMARK    5  A    between atoms: S_39  and  C_42
REMARK    6  A    between atoms: C_51  and  C_52
REMARK                            x       y       z     vdW  Elec       q    Type
REMARK                         _______ _______ _______ _____ _____    ______ ____
ROOT
ATOM      1  C   UNL     1       8.791  -1.840  24.537  0.00  0.00    +0.000 C 
ENDROOT
BRANCH   1  11
ATOM      2  C   UNL     1       7.380  -0.037  21.967  0.00  0.00    +0.000 C 
ATOM      3  C   UNL     1       7.904   1.114  22.692  0.00  0.00    +0.000 A 
ATOM      4  C   UNL     1       7.456   1.610  23.799  0.00  0.00    +0.000 A 
ATOM      5  C   UNL     1       7.917   2.921  24.329  0.00  0.00    +0.000 A 
ATOM      6  C   UNL     1       9.222   3.211  23.625  0.00  0.00    +0.000 A 
ATOM      7  C   UNL     1      10.075   2.477  22.700  0.00  0.00    +0.000 A 
ATOM      8  C   UNL     1       9.467   1.128  22.566  0.00  0.00    +0.000 A 
ATOM      9  C   UNL     1      10.305  -0.076  22.936  0.00  0.00    +0.000 C 
ATOM     10  N   UNL     1       9.738  -1.157  22.468  0.00  0.00    +0.000 N 
ATOM     11  C   UNL     1       9.583  -2.317  23.377  0.00  0.00    +0.000 C 
ATOM     12  O   UNL     1      10.653  -2.778  23.379  0.00  0.00    +0.000 OA
ATOM     13  C   UNL     1       8.513  -1.081  21.931  0.00  0.00    +0.000 C 
BRANCH   2  17
ATOM     14  C   UNL     1       5.359   0.968  18.434  0.00  0.00    +0.000 A 
ATOM     15  C   UNL     1       5.197   1.714  19.746  0.00  0.00    +0.000 A 
ATOM     16  C   UNL     1       6.168   1.829  20.840  0.00  0.00    +0.000 A 
ATOM     17  C   UNL     1       7.292   0.805  20.683  0.00  0.00    +0.000 A 
ATOM     18  C   UNL     1       7.702   0.145  19.434  0.00  0.00    +0.000 A 
ATOM     19  C   UNL     1       6.509   0.073  18.401  0.00  0.00    +0.000 A 
ENDBRANCH   2  17
ENDBRANCH   1  11
BRANCH   1  20
ATOM     20  C   UNL     1       7.945  -2.958  25.161  0.00  0.00    +0.000 C 
ATOM     21  O   UNL     1       7.400  -2.738  26.233  0.00  0.00    +0.000 OA
ATOM     22  N   UNL     1       8.490  -4.209  24.933  0.00  0.00    +0.000 N 
ATOM     23  C   UNL     1       7.643  -5.061  24.059  0.00  0.00    +0.000 C 
ATOM     24  C   UNL     1       6.579  -5.684  24.988  0.00  0.00    +0.000 C 
ATOM     25  N   UNL     1       6.599  -5.130  26.242  0.00  0.00    +0.000 NA
ATOM     26  C   UNL     1       7.743  -5.250  26.978  0.00  0.00    +0.000 C 
ATOM     27  C   UNL     1       8.991  -4.917  26.129  0.00  0.00    +0.000 C 
BRANCH  25  28
ATOM     28  S   UNL     1       5.201  -4.620  26.879  0.00  0.00    +0.000 S 
ATOM     29  O   UNL     1       4.528  -5.816  27.356  0.00  0.00    +0.000 OA
ATOM     30  O   UNL     1       5.465  -3.659  27.933  0.00  0.00    +0.000 OA
BRANCH  28  31
ATOM     31  C   UNL     1       4.371  -3.787  25.593  0.00  0.00    +0.000 A 
ATOM     32  C   UNL     1       3.723  -2.598  26.281  0.00  0.00    +0.000 A 
ATOM     33  C   UNL     1       2.277  -2.242  26.266  0.00  0.00    +0.000 A 
ATOM     34  C   UNL     1       1.597  -3.345  25.547  0.00  0.00    +0.000 A 
ATOM     35  C   UNL     1       1.868  -4.554  24.881  0.00  0.00    +0.000 A 
ATOM     36  C   UNL     1       3.451  -4.613  24.857  0.00  0.00    +0.000 A 
BRANCH  36  37
ATOM     37  C   UNL     1       3.562  -4.386  23.529  0.00  0.00    +0.000 C 
ATOM     38  N   UNL     1       3.230  -5.384  23.011  0.00  0.00    +0.000 NA
ENDBRANCH  36  37
ENDBRANCH  28  31
ENDBRANCH  25  28
ENDBRANCH   1  20
TORSDOF 6
ENDMDL
MODEL 4
REMARK VINA RESULT:      -8.0      2.463      4.162
REMARK  Name = 
REMARK  6 active torsions:
REMARK  status: ('A' for Active; 'I' for Inactive)
REMARK    1  A    between atoms: C_7  and  C_8
REMARK    2  A    between atoms: C_24  and  C_26
REMARK    3  A    between atoms: C_26  and  C_29
REMARK    4  A    between atoms: N_38  and  S_39
REMARK    5  A    between atoms: S_39  and  C_42
REMARK    6  A    between atoms: C_51  and  C_52
REMARK                            x       y       z     vdW  Elec       q    Type
REMARK                         _______ _______ _______ _____ _____    ______ ____
ROOT
ATOM      1  C   UNL     1       8.344  -1.054  26.157  0.00  0.00    +0.000 C 
ENDROOT
BRANCH   1  11
ATOM      2  C   UNL     1       9.577   1.718  24.531  0.00  0.00    +0.000 C 
ATOM      3  C   UNL     1       9.428   0.894  23.337  0.00  0.00    +0.000 A 
ATOM      4  C   UNL     1      10.160  -0.113  22.988  0.00  0.00    +0.000 A 
ATOM      5  C   UNL     1      10.068  -0.736  21.640  0.00  0.00    +0.000 A 
ATOM      6  C   UNL     1       8.736  -0.296  21.077  0.00  0.00    +0.000 A 
ATOM      7  C   UNL     1       7.601   0.458  21.593  0.00  0.00    +0.000 A 
ATOM      8  C   UNL     1       7.901   0.720  23.025  0.00  0.00    +0.000 A 
ATOM      9  C   UNL     1       6.930   0.211  24.066  0.00  0.00    +0.000 C 
ATOM     10  N   UNL     1       7.181   0.789  25.210  0.00  0.00    +0.000 N 
ATOM     11  C   UNL     1       7.274  -0.061  26.421  0.00  0.00    +0.000 C 
ATOM     12  O   UNL     1       6.154  -0.261  26.672  0.00  0.00    +0.000 OA
ATOM     13  C   UNL     1       8.276   1.549  25.340  0.00  0.00    +0.000 C 
BRANCH   2  17
ATOM     14  C   UNL     1      10.644   5.738  24.012  0.00  0.00    +0.000 A 
ATOM     15  C   UNL     1      11.475   4.569  23.516  0.00  0.00    +0.000 A 
ATOM     16  C   UNL     1      11.009   3.226  23.154  0.00  0.00    +0.000 A 
ATOM     17  C   UNL     1       9.587   2.986  23.660  0.00  0.00    +0.000 A 
ATOM     18  C   UNL     1       8.593   4.018  23.990  0.00  0.00    +0.000 A 
ATOM     19  C   UNL     1       9.288   5.376  24.402  0.00  0.00    +0.000 A 
ENDBRANCH   2  17
ENDBRANCH   1  11
BRANCH   1  20
ATOM     20  C   UNL     1       7.783  -2.462  25.921  0.00  0.00    +0.000 C 
ATOM     21  O   UNL     1       7.253  -3.036  26.861  0.00  0.00    +0.000 OA
ATOM     22  N   UNL     1       8.569  -3.194  25.049  0.00  0.00    +0.000 N 
ATOM     23  C   UNL     1       7.882  -3.503  23.769  0.00  0.00    +0.000 C 
ATOM     24  C   UNL     1       7.018  -4.751  24.050  0.00  0.00    +0.000 C 
ATOM     25  N   UNL     1       6.977  -5.062  25.384  0.00  0.00    +0.000 NA
ATOM     26  C   UNL     1       8.153  -5.369  26.007  0.00  0.00    +0.000 C 
ATOM     27  C   UNL     1       9.262  -4.359  25.635  0.00  0.00    +0.000 C 
BRANCH  25  28
ATOM     28  S   UNL     1       5.533  -5.319  26.070  0.00  0.00    +0.000 S 
ATOM     29  O   UNL     1       5.373  -6.762  26.119  0.00  0.00    +0.000 OA
ATOM     30  O   UNL     1       5.497  -4.699  27.381  0.00  0.00    +0.000 OA
BRANCH  28  31
ATOM     31  C   UNL     1       4.376  -4.496  25.059  0.00  0.00    +0.000 A 
ATOM     32  C   UNL     1       4.043  -3.232  25.832  0.00  0.00    +0.000 A 
ATOM     33  C   UNL     1       2.689  -2.778  26.252  0.00  0.00    +0.000 A 
ATOM     34  C   UNL     1       1.760  -3.866  25.866  0.00  0.00    +0.000 A 
ATOM     35  C   UNL     1       1.743  -5.123  25.235  0.00  0.00    +0.000 A 
ATOM     36  C   UNL     1       3.229  -5.293  24.713  0.00  0.00    +0.000 A 
BRANCH  36  37
ATOM     37  C   UNL     1       2.918  -5.141  23.407  0.00  0.00    +0.000 C 
ATOM     38  N   UNL     1       3.803  -5.630  22.814  0.00  0.00    +0.000 NA
ENDBRANCH  36  37
ENDBRANCH  28  31
ENDBRANCH  25  28
ENDBRANCH   1  20
TORSDOF 6
ENDMDL
MODEL 5
REMARK VINA RESULT:      -7.8      2.132      2.706
REMARK  Name = 
REMARK  6 active torsions:
REMARK  status: ('A' for Active; 'I' for Inactive)
REMARK    1  A    between atoms: C_7  and  C_8
REMARK    2  A    between atoms: C_24  and  C_26
REMARK    3  A    between atoms: C_26  and  C_29
REMARK    4  A    between atoms: N_38  and  S_39
REMARK    5  A    between atoms: S_39  and  C_42
REMARK    6  A    between atoms: C_51  and  C_52
REMARK                            x       y       z     vdW  Elec       q    Type
REMARK                         _______ _______ _______ _____ _____    ______ ____
ROOT
ATOM      1  C   UNL     1       8.830  -1.512  25.040  0.00  0.00    +0.000 C 
ENDROOT
BRANCH   1  11
ATOM      2  C   UNL     1       7.509   0.267  22.406  0.00  0.00    +0.000 C 
ATOM      3  C   UNL     1       8.396   1.324  22.875  0.00  0.00    +0.000 A 
ATOM      4  C   UNL     1       8.254   2.049  23.937  0.00  0.00    +0.000 A 
ATOM      5  C   UNL     1       9.088   3.252  24.198  0.00  0.00    +0.000 A 
ATOM      6  C   UNL     1      10.301   3.111  23.307  0.00  0.00    +0.000 A 
ATOM      7  C   UNL     1      10.803   2.076  22.413  0.00  0.00    +0.000 A 
ATOM      8  C   UNL     1       9.879   0.921  22.564  0.00  0.00    +0.000 A 
ATOM      9  C   UNL     1      10.455  -0.403  23.015  0.00  0.00    +0.000 C 
ATOM     10  N   UNL     1       9.582  -1.350  22.792  0.00  0.00    +0.000 N 
ATOM     11  C   UNL     1       9.299  -2.313  23.883  0.00  0.00    +0.000 C 
ATOM     12  O   UNL     1      10.217  -3.029  23.830  0.00  0.00    +0.000 OA
ATOM     13  C   UNL     1       8.343  -1.029  22.399  0.00  0.00    +0.000 C 
BRANCH   2  17
ATOM     14  C   UNL     1       5.498   0.828  18.771  0.00  0.00    +0.000 A 
ATOM     15  C   UNL     1       5.337   1.734  19.979  0.00  0.00    +0.000 A 
ATOM     16  C   UNL     1       6.308   1.982  21.051  0.00  0.00    +0.000 A 
ATOM     17  C   UNL     1       7.427   0.941  21.026  0.00  0.00    +0.000 A 
ATOM     18  C   UNL     1       7.836   0.128  19.871  0.00  0.00    +0.000 A 
ATOM     19  C   UNL     1       6.643  -0.069  18.853  0.00  0.00    +0.000 A 
ENDBRANCH   2  17
ENDBRANCH   1  11
BRANCH   1  20
ATOM     20  C   UNL     1       7.460  -1.975  25.550  0.00  0.00    +0.000 C 
ATOM     21  O   UNL     1       6.927  -2.922  24.990  0.00  0.00    +0.000 OA
ATOM     22  N   UNL     1       6.673  -0.914  25.961  0.00  0.00    +0.000 N 
ATOM     23  C   UNL     1       6.401  -0.925  27.421  0.00  0.00    +0.000 C 
ATOM     24  C   UNL     1       5.213  -1.891  27.616  0.00  0.00    +0.000 C 
ATOM     25  N   UNL     1       4.913  -2.581  26.470  0.00  0.00    +0.000 NA
ATOM     26  C   UNL     1       4.535  -1.864  25.371  0.00  0.00    +0.000 C 
ATOM     27  C   UNL     1       5.471  -0.654  25.145  0.00  0.00    +0.000 C 
BRANCH  25  28
ATOM     28  S   UNL     1       4.754  -4.190  26.560  0.00  0.00    +0.000 S 
ATOM     29  O   UNL     1       6.078  -4.696  26.881  0.00  0.00    +0.000 OA
ATOM     30  O   UNL     1       3.760  -4.528  27.560  0.00  0.00    +0.000 OA
BRANCH  28  31
ATOM     31  C   UNL     1       4.144  -4.693  25.007  0.00  0.00    +0.000 A 
ATOM     32  C   UNL     1       2.690  -5.038  25.276  0.00  0.00    +0.000 A 
ATOM     33  C   UNL     1       2.014  -6.332  24.986  0.00  0.00    +0.000 A 
ATOM     34  C   UNL     1       3.077  -7.241  24.495  0.00  0.00    +0.000 A 
ATOM     35  C   UNL     1       4.453  -7.266  24.205  0.00  0.00    +0.000 A 
ATOM     36  C   UNL     1       4.897  -5.757  24.399  0.00  0.00    +0.000 A 
BRANCH  36  37
ATOM     37  C   UNL     1       5.088  -5.516  23.083  0.00  0.00    +0.000 C 
ATOM     38  N   UNL     1       6.231  -5.696  22.893  0.00  0.00    +0.000 NA
ENDBRANCH  36  37
ENDBRANCH  28  31
ENDBRANCH  25  28
ENDBRANCH   1  20
TORSDOF 6
ENDMDL
MODEL 6
REMARK VINA RESULT:      -7.7      1.855      2.705
REMARK  Name = 
REMARK  6 active torsions:
REMARK  status: ('A' for Active; 'I' for Inactive)
REMARK    1  A    between atoms: C_7  and  C_8
REMARK    2  A    between atoms: C_24  and  C_26
REMARK    3  A    between atoms: C_26  and  C_29
REMARK    4  A    between atoms: N_38  and  S_39
REMARK    5  A    between atoms: S_39  and  C_42
REMARK    6  A    between atoms: C_51  and  C_52
REMARK                            x       y       z     vdW  Elec       q    Type
REMARK                         _______ _______ _______ _____ _____    ______ ____
ROOT
ATOM      1  C   UNL     1       8.698  -1.843  24.816  0.00  0.00    +0.000 C 
ENDROOT
BRANCH   1  11
ATOM      2  C   UNL     1       7.433  -0.008  22.193  0.00  0.00    +0.000 C 
ATOM      3  C   UNL     1       8.099   1.108  22.853  0.00  0.00    +0.000 A 
ATOM      4  C   UNL     1       7.736   1.699  23.945  0.00  0.00    +0.000 A 
ATOM      5  C   UNL     1       8.351   2.972  24.405  0.00  0.00    +0.000 A 
ATOM      6  C   UNL     1       9.664   3.084  23.663  0.00  0.00    +0.000 A 
ATOM      7  C   UNL     1      10.407   2.220  22.756  0.00  0.00    +0.000 A 
ATOM      8  C   UNL     1       9.650   0.942  22.697  0.00  0.00    +0.000 A 
ATOM      9  C   UNL     1      10.359  -0.331  23.105  0.00  0.00    +0.000 C 
ATOM     10  N   UNL     1       9.664  -1.361  22.699  0.00  0.00    +0.000 N 
ATOM     11  C   UNL     1       9.404  -2.456  23.664  0.00  0.00    +0.000 C 
ATOM     12  O   UNL     1      10.417  -3.032  23.667  0.00  0.00    +0.000 OA
ATOM     13  C   UNL     1       8.443  -1.172  22.183  0.00  0.00    +0.000 C 
BRANCH   2  17
ATOM     14  C   UNL     1       5.563   0.882  18.549  0.00  0.00    +0.000 A 
ATOM     15  C   UNL     1       5.365   1.684  19.822  0.00  0.00    +0.000 A 
ATOM     16  C   UNL     1       6.296   1.829  20.946  0.00  0.00    +0.000 A 
ATOM     17  C   UNL     1       7.407   0.782  20.873  0.00  0.00    +0.000 A 
ATOM     18  C   UNL     1       7.852   0.065  19.669  0.00  0.00    +0.000 A 
ATOM     19  C   UNL     1       6.697  -0.032  18.596  0.00  0.00    +0.000 A 
ENDBRANCH   2  17
ENDBRANCH   1  11
BRANCH   1  20
ATOM     20  C   UNL     1       7.473  -2.659  25.246  0.00  0.00    +0.000 C 
ATOM     21  O   UNL     1       6.666  -2.134  26.000  0.00  0.00    +0.000 OA
ATOM     22  N   UNL     1       7.776  -3.997  25.421  0.00  0.00    +0.000 N 
ATOM     23  C   UNL     1       7.101  -4.879  24.435  0.00  0.00    +0.000 C 
ATOM     24  C   UNL     1       5.682  -5.119  24.993  0.00  0.00    +0.000 C 
ATOM     25  N   UNL     1       5.407  -4.318  26.071  0.00  0.00    +0.000 NA
ATOM     26  C   UNL     1       6.190  -4.448  27.183  0.00  0.00    +0.000 C 
ATOM     27  C   UNL     1       7.689  -4.498  26.807  0.00  0.00    +0.000 C 
BRANCH  25  28
ATOM     28  S   UNL     1       4.024  -3.477  26.071  0.00  0.00    +0.000 S 
ATOM     29  O   UNL     1       4.104  -2.592  24.921  0.00  0.00    +0.000 OA
ATOM     30  O   UNL     1       2.898  -4.388  26.008  0.00  0.00    +0.000 OA
BRANCH  28  31
ATOM     31  C   UNL     1       3.966  -2.661  27.610  0.00  0.00    +0.000 A 
ATOM     32  C   UNL     1       2.921  -3.432  28.397  0.00  0.00    +0.000 A 
ATOM     33  C   UNL     1       1.700  -2.873  29.040  0.00  0.00    +0.000 A 
ATOM     34  C   UNL     1       1.657  -1.444  28.651  0.00  0.00    +0.000 A 
ATOM     35  C   UNL     1       2.381  -0.482  27.923  0.00  0.00    +0.000 A 
ATOM     36  C   UNL     1       3.705  -1.249  27.515  0.00  0.00    +0.000 A 
BRANCH  36  37
ATOM     37  C   UNL     1       4.510  -0.557  28.352  0.00  0.00    +0.000 C 
ATOM     38  N   UNL     1       4.144   0.555  28.291  0.00  0.00    +0.000 NA
ENDBRANCH  36  37
ENDBRANCH  28  31
ENDBRANCH  25  28
ENDBRANCH   1  20
TORSDOF 6
ENDMDL
MODEL 7
REMARK VINA RESULT:      -7.6      2.507      4.173
REMARK  Name = 
REMARK  6 active torsions:
REMARK  status: ('A' for Active; 'I' for Inactive)
REMARK    1  A    between atoms: C_7  and  C_8
REMARK    2  A    between atoms: C_24  and  C_26
REMARK    3  A    between atoms: C_26  and  C_29
REMARK    4  A    between atoms: N_38  and  S_39
REMARK    5  A    between atoms: S_39  and  C_42
REMARK    6  A    between atoms: C_51  and  C_52
REMARK                            x       y       z     vdW  Elec       q    Type
REMARK                         _______ _______ _______ _____ _____    ______ ____
ROOT
ATOM      1  C   UNL     1       7.657  -0.393  25.408  0.00  0.00    +0.000 C 
ENDROOT
BRANCH   1  11
ATOM      2  C   UNL     1       6.836   0.514  22.190  0.00  0.00    +0.000 C 
ATOM      3  C   UNL     1       6.692   1.845  22.766  0.00  0.00    +0.000 A 
ATOM      4  C   UNL     1       5.740   2.263  23.537  0.00  0.00    +0.000 A 
ATOM      5  C   UNL     1       5.565   3.700  23.877  0.00  0.00    +0.000 A 
ATOM      6  C   UNL     1       6.891   4.359  23.572  0.00  0.00    +0.000 A 
ATOM      7  C   UNL     1       8.200   3.882  23.149  0.00  0.00    +0.000 A 
ATOM      8  C   UNL     1       8.111   2.398  23.137  0.00  0.00    +0.000 A 
ATOM      9  C   UNL     1       9.066   1.615  24.010  0.00  0.00    +0.000 C 
ATOM     10  N   UNL     1       9.057   0.361  23.643  0.00  0.00    +0.000 N 
ATOM     11  C   UNL     1       8.925  -0.677  24.693  0.00  0.00    +0.000 C 
ATOM     12  O   UNL     1      10.003  -0.726  25.133  0.00  0.00    +0.000 OA
ATOM     13  C   UNL     1       8.155  -0.059  22.746  0.00  0.00    +0.000 C 
BRANCH   2  17
ATOM     14  C   UNL     1       5.827   0.534  18.122  0.00  0.00    +0.000 A 
ATOM     15  C   UNL     1       5.143   1.393  19.170  0.00  0.00    +0.000 A 
ATOM     16  C   UNL     1       5.701   1.877  20.438  0.00  0.00    +0.000 A 
ATOM     17  C   UNL     1       6.987   1.131  20.789  0.00  0.00    +0.000 A 
ATOM     18  C   UNL     1       7.868   0.421  19.850  0.00  0.00    +0.000 A 
ATOM     19  C   UNL     1       7.076  -0.066  18.572  0.00  0.00    +0.000 A 
ENDBRANCH   2  17
ENDBRANCH   1  11
BRANCH   1  20
ATOM     20  C   UNL     1       6.754  -1.628  25.500  0.00  0.00    +0.000 C 
ATOM     21  O   UNL     1       5.842  -1.737  24.693  0.00  0.00    +0.000 OA
ATOM     22  N   UNL     1       6.534  -2.014  26.811  0.00  0.00    +0.000 N 
ATOM     23  C   UNL     1       7.132  -3.335  27.135  0.00  0.00    +0.000 C 
ATOM     24  C   UNL     1       6.111  -4.385  26.646  0.00  0.00    +0.000 C 
ATOM     25  N   UNL     1       5.104  -3.823  25.905  0.00  0.00    +0.000 NA
ATOM     26  C   UNL     1       4.307  -2.892  26.508  0.00  0.00    +0.000 C 
ATOM     27  C   UNL     1       5.149  -1.865  27.300  0.00  0.00    +0.000 C 
BRANCH  25  28
ATOM     28  S   UNL     1       4.744  -4.483  24.471  0.00  0.00    +0.000 S 
ATOM     29  O   UNL     1       4.525  -5.895  24.735  0.00  0.00    +0.000 OA
ATOM     30  O   UNL     1       3.582  -3.824  23.908  0.00  0.00    +0.000 OA
BRANCH  28  31
ATOM     31  C   UNL     1       6.105  -4.141  23.438  0.00  0.00    +0.000 A 
ATOM     32  C   UNL     1       5.526  -4.197  22.035  0.00  0.00    +0.000 A 
ATOM     33  C   UNL     1       6.000  -5.050  20.911  0.00  0.00    +0.000 A 
ATOM     34  C   UNL     1       7.066  -5.909  21.478  0.00  0.00    +0.000 A 
ATOM     35  C   UNL     1       7.760  -6.151  22.677  0.00  0.00    +0.000 A 
ATOM     36  C   UNL     1       7.231  -5.013  23.644  0.00  0.00    +0.000 A 
BRANCH  36  37
ATOM     37  C   UNL     1       8.385  -4.310  23.649  0.00  0.00    +0.000 C 
ATOM     38  N   UNL     1       9.069  -4.836  24.443  0.00  0.00    +0.000 NA
ENDBRANCH  36  37
ENDBRANCH  28  31
ENDBRANCH  25  28
ENDBRANCH   1  20
TORSDOF 6
ENDMDL
MODEL 8
REMARK VINA RESULT:      -7.5      2.842      7.410
REMARK  Name = 
REMARK  6 active torsions:
REMARK  status: ('A' for Active; 'I' for Inactive)
REMARK    1  A    between atoms: C_7  and  C_8
REMARK    2  A    between atoms: C_24  and  C_26
REMARK    3  A    between atoms: C_26  and  C_29
REMARK    4  A    between atoms: N_38  and  S_39
REMARK    5  A    between atoms: S_39  and  C_42
REMARK    6  A    between atoms: C_51  and  C_52
REMARK                            x       y       z     vdW  Elec       q    Type
REMARK                         _______ _______ _______ _____ _____    ______ ____
ROOT
ATOM      1  C   UNL     1       6.280  -0.912  27.200  0.00  0.00    +0.000 C 
ENDROOT
BRANCH   1  11
ATOM      2  C   UNL     1       4.841  -3.688  25.759  0.00  0.00    +0.000 C 
ATOM      3  C   UNL     1       5.140  -4.317  27.039  0.00  0.00    +0.000 A 
ATOM      4  C   UNL     1       6.302  -4.674  27.481  0.00  0.00    +0.000 A 
ATOM      5  C   UNL     1       6.468  -5.517  28.695  0.00  0.00    +0.000 A 
ATOM      6  C   UNL     1       5.163  -5.410  29.450  0.00  0.00    +0.000 A 
ATOM      7  C   UNL     1       3.941  -4.635  29.282  0.00  0.00    +0.000 A 
ATOM      8  C   UNL     1       4.189  -3.724  28.135  0.00  0.00    +0.000 A 
ATOM      9  C   UNL     1       4.074  -2.233  28.365  0.00  0.00    +0.000 C 
ATOM     10  N   UNL     1       4.013  -1.622  27.212  0.00  0.00    +0.000 N 
ATOM     11  C   UNL     1       4.888  -0.445  26.994  0.00  0.00    +0.000 C 
ATOM     12  O   UNL     1       4.321   0.397  27.566  0.00  0.00    +0.000 OA
ATOM     13  C   UNL     1       4.222  -2.314  26.085  0.00  0.00    +0.000 C 
BRANCH   2  17
ATOM     14  C   UNL     1       2.919  -6.212  23.019  0.00  0.00    +0.000 A 
ATOM     15  C   UNL     1       4.103  -6.630  23.872  0.00  0.00    +0.000 A 
ATOM     16  C   UNL     1       4.507  -6.089  25.175  0.00  0.00    +0.000 A 
ATOM     17  C   UNL     1       3.790  -4.772  25.465  0.00  0.00    +0.000 A 
ATOM     18  C   UNL     1       2.526  -4.316  24.868  0.00  0.00    +0.000 A 
ATOM     19  C   UNL     1       2.291  -4.969  23.448  0.00  0.00    +0.000 A 
ENDBRANCH   2  17
ENDBRANCH   1  11
BRANCH   1  20
ATOM     20  C   UNL     1       7.090  -0.914  25.897  0.00  0.00    +0.000 C 
ATOM     21  O   UNL     1       8.080  -1.629  25.835  0.00  0.00    +0.000 OA
ATOM     22  N   UNL     1       7.134   0.339  25.312  0.00  0.00    +0.000 N 
ATOM     23  C   UNL     1       6.423   0.396  24.009  0.00  0.00    +0.000 C 
ATOM     24  C   UNL     1       7.427  -0.136  22.964  0.00  0.00    +0.000 C 
ATOM     25  N   UNL     1       8.545  -0.675  23.547  0.00  0.00    +0.000 NA
ATOM     26  C   UNL     1       9.323   0.141  24.317  0.00  0.00    +0.000 C 
ATOM     27  C   UNL     1       8.460   0.986  25.282  0.00  0.00    +0.000 C 
BRANCH  25  28
ATOM     28  S   UNL     1       9.026  -2.146  23.073  0.00  0.00    +0.000 S 
ATOM     29  O   UNL     1       9.418  -2.001  21.681  0.00  0.00    +0.000 OA
ATOM     30  O   UNL     1      10.108  -2.604  23.922  0.00  0.00    +0.000 OA
BRANCH  28  31
ATOM     31  C   UNL     1       7.661  -3.198  23.334  0.00  0.00    +0.000 A 
ATOM     32  C   UNL     1       8.179  -4.241  24.307  0.00  0.00    +0.000 A 
ATOM     33  C   UNL     1       8.169  -5.718  24.117  0.00  0.00    +0.000 A 
ATOM     34  C   UNL     1       7.663  -5.944  22.743  0.00  0.00    +0.000 A 
ATOM     35  C   UNL     1       7.185  -5.245  21.619  0.00  0.00    +0.000 A 
ATOM     36  C   UNL     1       7.104  -3.746  22.127  0.00  0.00    +0.000 A 
BRANCH  36  37
ATOM     37  C   UNL     1       5.753  -3.702  22.160  0.00  0.00    +0.000 C 
ATOM     38  N   UNL     1       5.448  -2.863  21.400  0.00  0.00    +0.000 NA
ENDBRANCH  36  37
ENDBRANCH  28  31
ENDBRANCH  25  28
ENDBRANCH   1  20
TORSDOF 6
ENDMDL
MODEL 9
REMARK VINA RESULT:      -7.3      2.205      3.590
REMARK  Name = 
REMARK  6 active torsions:
REMARK  status: ('A' for Active; 'I' for Inactive)
REMARK    1  A    between atoms: C_7  and  C_8
REMARK    2  A    between atoms: C_24  and  C_26
REMARK    3  A    between atoms: C_26  and  C_29
REMARK    4  A    between atoms: N_38  and  S_39
REMARK    5  A    between atoms: S_39  and  C_42
REMARK    6  A    between atoms: C_51  and  C_52
REMARK                            x       y       z     vdW  Elec       q    Type
REMARK                         _______ _______ _______ _____ _____    ______ ____
ROOT
ATOM      1  C   UNL     1       8.138  -1.670  21.762  0.00  0.00    +0.000 C 
ENDROOT
BRANCH   1  11
ATOM      2  C   UNL     1       7.312   0.441  24.352  0.00  0.00    +0.000 C 
ATOM      3  C   UNL     1       8.707   0.854  24.257  0.00  0.00    +0.000 A 
ATOM      4  C   UNL     1       9.748   0.181  24.627  0.00  0.00    +0.000 A 
ATOM      5  C   UNL     1      11.103   0.788  24.701  0.00  0.00    +0.000 A 
ATOM      6  C   UNL     1      11.040   2.038  23.852  0.00  0.00    +0.000 A 
ATOM      7  C   UNL     1      10.036   2.639  22.985  0.00  0.00    +0.000 A 
ATOM      8  C   UNL     1       8.907   1.674  22.935  0.00  0.00    +0.000 A 
ATOM      9  C   UNL     1       8.491   1.126  21.588  0.00  0.00    +0.000 C 
ATOM     10  N   UNL     1       7.318   0.559  21.697  0.00  0.00    +0.000 N 
ATOM     11  C   UNL     1       7.135  -0.791  21.113  0.00  0.00    +0.000 C 
ATOM     12  O   UNL     1       7.011  -0.558  19.978  0.00  0.00    +0.000 OA
ATOM     13  C   UNL     1       6.773   0.395  22.909  0.00  0.00    +0.000 C 
BRANCH   2  17
ATOM     14  C   UNL     1       4.776   2.602  26.895  0.00  0.00    +0.000 A 
ATOM     15  C   UNL     1       6.022   1.871  27.361  0.00  0.00    +0.000 A 
ATOM     16  C   UNL     1       7.224   1.559  26.580  0.00  0.00    +0.000 A 
ATOM     17  C   UNL     1       6.969   1.749  25.085  0.00  0.00    +0.000 A 
ATOM     18  C   UNL     1       5.926   2.589  24.478  0.00  0.00    +0.000 A 
ATOM     19  C   UNL     1       4.693   2.769  25.450  0.00  0.00    +0.000 A 
ENDBRANCH   2  17
ENDBRANCH   1  11
BRANCH   1  20
ATOM     20  C   UNL     1       7.488  -2.722  22.670  0.00  0.00    +0.000 C 
ATOM     21  O   UNL     1       8.150  -3.177  23.590  0.00  0.00    +0.000 OA
ATOM     22  N   UNL     1       6.652  -3.570  21.965  0.00  0.00    +0.000 N 
ATOM     23  C   UNL     1       5.224  -3.425  22.345  0.00  0.00    +0.000 C 
ATOM     24  C   UNL     1       5.041  -4.286  23.614  0.00  0.00    +0.000 C 
ATOM     25  N   UNL     1       6.237  -4.736  24.111  0.00  0.00    +0.000 NA
ATOM     26  C   UNL     1       7.000  -5.540  23.314  0.00  0.00    +0.000 C 
ATOM     27  C   UNL     1       7.093  -4.976  21.877  0.00  0.00    +0.000 C 
BRANCH  25  28
ATOM     28  S   UNL     1       6.543  -4.524  25.686  0.00  0.00    +0.000 S 
ATOM     29  O   UNL     1       7.738  -5.305  25.961  0.00  0.00    +0.000 OA
ATOM     30  O   UNL     1       6.711  -3.112  25.966  0.00  0.00    +0.000 OA
BRANCH  28  31
ATOM     31  C   UNL     1       5.115  -5.068  26.524  0.00  0.00    +0.000 A 
ATOM     32  C   UNL     1       4.869  -3.995  27.570  0.00  0.00    +0.000 A 
ATOM     33  C   UNL     1       4.747  -4.198  29.040  0.00  0.00    +0.000 A 
ATOM     34  C   UNL     1       5.032  -5.633  29.275  0.00  0.00    +0.000 A 
ATOM     35  C   UNL     1       5.342  -6.819  28.584  0.00  0.00    +0.000 A 
ATOM     36  C   UNL     1       5.221  -6.399  27.061  0.00  0.00    +0.000 A 
BRANCH  36  37
ATOM     37  C   UNL     1       4.089  -7.100  26.830  0.00  0.00    +0.000 C 
ATOM     38  N   UNL     1       3.912  -7.038  25.673  0.00  0.00    +0.000 NA
ENDBRANCH  36  37
ENDBRANCH  28  31
ENDBRANCH  25  28
ENDBRANCH   1  20
TORSDOF 6
ENDMDL
