MODEL 1
REMARK VINA RESULT:      -8.9      0.000      0.000
REMARK  Name = 
REMARK  8 active torsions:
REMARK  status: ('A' for Active; 'I' for Inactive)
REMARK    1  A    between atoms: O_2  and  C_3
REMARK    2  A    between atoms: C_12  and  N_13
REMARK    3  A    between atoms: C_15  and  C_17
REMARK    4  A    between atoms: C_26  and  C_28
REMARK    5  A    between atoms: C_28  and  C_31
REMARK    6  A    between atoms: C_40  and  C_41
REMARK    7  A    between atoms: C_41  and  S_44
REMARK    8  A    between atoms: S_44  and  N_47
REMARK                            x       y       z     vdW  Elec       q    Type
REMARK                         _______ _______ _______ _____ _____    ______ ____
ROOT
ATOM      1  C   UNL     1       9.242   0.882  22.718  0.00  0.00    +0.000 C 
ATOM      2  C   UNL     1       9.808   0.752  24.068  0.00  0.00    +0.000 C 
ATOM      3  C   UNL     1      10.092  -0.631  24.591  0.00  0.00    +0.000 C 
ATOM      4  N   UNL     1       9.642  -1.615  23.617  0.00  0.00    +0.000 N 
ATOM      5  C   UNL     1       9.042  -2.755  24.029  0.00  0.00    +0.000 C 
ATOM      6  O   UNL     1       9.799  -3.729  24.226  0.00  0.00    +0.000 OA
ATOM      7  C   UNL     1      10.139  -1.452  22.273  0.00  0.00    +0.000 C 
ATOM      8  C   UNL     1       9.596  -0.147  21.700  0.00  0.00    +0.000 C 
ENDROOT
BRANCH   1  11
ATOM      9  N   UNL     1       7.211   1.320  21.455  0.00  0.00    +0.000 N 
ATOM     10  H   UNL     1       7.223   2.303  21.273  0.00  0.00    +0.000 HD
ATOM     11  C   UNL     1       7.732   1.097  22.665  0.00  0.00    +0.000 C 
ATOM     12  O   UNL     1       7.087   1.454  23.631  0.00  0.00    +0.000 OA
BRANCH   9  18
ATOM     13  C   UNL     1       6.623  -0.648  20.333  0.00  0.00    +0.000 A 
ATOM     14  C   UNL     1       6.507  -0.603  18.919  0.00  0.00    +0.000 A 
ATOM     15  C   UNL     1       5.804   0.272  17.915  0.00  0.00    +0.000 A 
ATOM     16  C   UNL     1       5.438   1.426  18.820  0.00  0.00    +0.000 A 
ATOM     17  C   UNL     1       5.398   1.792  20.153  0.00  0.00    +0.000 A 
ATOM     18  C   UNL     1       6.327   0.663  20.863  0.00  0.00    +0.000 A 
BRANCH  13  20
ATOM     19  H   UNL     1       6.428  -2.447  20.898  0.00  0.00    +0.000 HD
ATOM     20  O   UNL     1       5.855  -1.802  20.540  0.00  0.00    +0.000 OA
ENDBRANCH  13  20
ENDBRANCH   9  18
ENDBRANCH   1  11
BRANCH   5  21
ATOM     21  C   UNL     1       7.658  -3.000  23.515  0.00  0.00    +0.000 C 
BRANCH  21  22
ATOM     22  C   UNL     1       7.194  -4.434  23.877  0.00  0.00    +0.000 A 
ATOM     23  C   UNL     1       7.339  -5.191  22.524  0.00  0.00    +0.000 A 
ATOM     24  C   UNL     1       6.210  -5.698  21.694  0.00  0.00    +0.000 A 
ATOM     25  F   UNL     1       6.196  -4.831  20.715  0.00  0.00    +0.000 F 
ATOM     26  C   UNL     1       4.972  -5.429  22.448  0.00  0.00    +0.000 A 
ATOM     27  C   UNL     1       4.619  -5.043  23.755  0.00  0.00    +0.000 A 
ATOM     28  C   UNL     1       5.928  -4.821  24.554  0.00  0.00    +0.000 A 
BRANCH  28  29
ATOM     29  C   UNL     1       6.117  -5.578  25.836  0.00  0.00    +0.000 C 
BRANCH  29  30
ATOM     30  S   UNL     1       7.507  -5.205  26.825  0.00  0.00    +0.000 S 
ATOM     31  O   UNL     1       7.577  -3.794  27.085  0.00  0.00    +0.000 OA
ATOM     32  O   UNL     1       7.251  -5.960  28.080  0.00  0.00    +0.000 OA
BRANCH  30  33
ATOM     33  N   UNL     1       8.894  -5.779  26.216  0.00  0.00    +0.000 NA
ATOM     34  H   UNL     1       8.762  -6.637  25.704  0.00  0.00    +0.000 HD
ATOM     35  H   UNL     1       9.551  -6.008  26.953  0.00  0.00    +0.000 HD
ENDBRANCH  30  33
ENDBRANCH  29  30
ENDBRANCH  28  29
ENDBRANCH  21  22
ENDBRANCH   5  21
TORSDOF 8
ENDMDL
MODEL 2
REMARK VINA RESULT:      -8.8      3.242      7.771
REMARK  Name = 
REMARK  8 active torsions:
REMARK  status: ('A' for Active; 'I' for Inactive)
REMARK    1  A    between atoms: O_2  and  C_3
REMARK    2  A    between atoms: C_12  and  N_13
REMARK    3  A    between atoms: C_15  and  C_17
REMARK    4  A    between atoms: C_26  and  C_28
REMARK    5  A    between atoms: C_28  and  C_31
REMARK    6  A    between atoms: C_40  and  C_41
REMARK    7  A    between atoms: C_41  and  S_44
REMARK    8  A    between atoms: S_44  and  N_47
REMARK                            x       y       z     vdW  Elec       q    Type
REMARK                         _______ _______ _______ _____ _____    ______ ____
ROOT
ATOM      1  C   UNL     1       6.713  -5.402  24.395  0.00  0.00    +0.000 C 
ATOM      2  C   UNL     1       5.278  -5.371  24.079  0.00  0.00    +0.000 C 
ATOM      3  C   UNL     1       4.831  -4.601  22.864  0.00  0.00    +0.000 C 
ATOM      4  N   UNL     1       5.983  -3.942  22.264  0.00  0.00    +0.000 N 
ATOM      5  C   UNL     1       5.865  -2.691  21.765  0.00  0.00    +0.000 C 
ATOM      6  O   UNL     1       5.560  -2.612  20.555  0.00  0.00    +0.000 OA
ATOM      7  C   UNL     1       7.113  -4.785  21.963  0.00  0.00    +0.000 C 
ATOM      8  C   UNL     1       7.686  -5.327  23.268  0.00  0.00    +0.000 C 
ENDROOT
BRANCH   1  11
ATOM      9  N   UNL     1       6.197  -3.695  26.048  0.00  0.00    +0.000 N 
ATOM     10  H   UNL     1       6.066  -2.854  25.523  0.00  0.00    +0.000 HD
ATOM     11  C   UNL     1       7.162  -4.418  25.472  0.00  0.00    +0.000 C 
ATOM     12  O   UNL     1       8.300  -3.998  25.541  0.00  0.00    +0.000 OA
BRANCH   9  18
ATOM     13  C   UNL     1       5.619  -4.847  28.000  0.00  0.00    +0.000 A 
ATOM     14  C   UNL     1       4.261  -4.828  28.412  0.00  0.00    +0.000 A 
ATOM     15  C   UNL     1       3.208  -3.773  28.630  0.00  0.00    +0.000 A 
ATOM     16  C   UNL     1       3.890  -2.611  27.945  0.00  0.00    +0.000 A 
ATOM     17  C   UNL     1       5.106  -2.226  27.410  0.00  0.00    +0.000 A 
ATOM     18  C   UNL     1       5.896  -3.638  27.259  0.00  0.00    +0.000 A 
BRANCH  13  20
ATOM     19  H   UNL     1       6.068  -6.111  29.341  0.00  0.00    +0.000 HD
ATOM     20  O   UNL     1       6.177  -5.189  29.240  0.00  0.00    +0.000 OA
ENDBRANCH  13  20
ENDBRANCH   9  18
ENDBRANCH   1  11
BRANCH   5  21
ATOM     21  C   UNL     1       6.765  -1.651  22.357  0.00  0.00    +0.000 C 
BRANCH  21  22
ATOM     22  C   UNL     1       7.782  -1.153  21.301  0.00  0.00    +0.000 A 
ATOM     23  C   UNL     1       9.150  -1.403  22.001  0.00  0.00    +0.000 A 
ATOM     24  C   UNL     1      10.075  -0.342  22.493  0.00  0.00    +0.000 A 
ATOM     25  F   UNL     1       9.887  -0.411  23.785  0.00  0.00    +0.000 F 
ATOM     26  C   UNL     1       9.486   0.952  22.100  0.00  0.00    +0.000 A 
ATOM     27  C   UNL     1       8.462   1.407  21.249  0.00  0.00    +0.000 A 
ATOM     28  C   UNL     1       7.785   0.166  20.613  0.00  0.00    +0.000 A 
BRANCH  28  29
ATOM     29  C   UNL     1       7.709   0.085  19.117  0.00  0.00    +0.000 C 
BRANCH  29  30
ATOM     30  S   UNL     1       6.139   0.191  18.358  0.00  0.00    +0.000 S 
ATOM     31  O   UNL     1       6.090   1.306  17.454  0.00  0.00    +0.000 OA
ATOM     32  O   UNL     1       6.027  -1.093  17.617  0.00  0.00    +0.000 OA
BRANCH  30  33
ATOM     33  N   UNL     1       4.918   0.218  19.422  0.00  0.00    +0.000 NA
ATOM     34  H   UNL     1       5.230   0.418  20.359  0.00  0.00    +0.000 HD
ATOM     35  H   UNL     1       4.464  -0.687  19.482  0.00  0.00    +0.000 HD
ENDBRANCH  30  33
ENDBRANCH  29  30
ENDBRANCH  28  29
ENDBRANCH  21  22
ENDBRANCH   5  21
TORSDOF 8
ENDMDL
MODEL 3
REMARK VINA RESULT:      -8.7      3.204      7.014
REMARK  Name = 
REMARK  8 active torsions:
REMARK  status: ('A' for Active; 'I' for Inactive)
REMARK    1  A    between atoms: O_2  and  C_3
REMARK    2  A    between atoms: C_12  and  N_13
REMARK    3  A    between atoms: C_15  and  C_17
REMARK    4  A    between atoms: C_26  and  C_28
REMARK    5  A    between atoms: C_28  and  C_31
REMARK    6  A    between atoms: C_40  and  C_41
REMARK    7  A    between atoms: C_41  and  S_44
REMARK    8  A    between atoms: S_44  and  N_47
REMARK                            x       y       z     vdW  Elec       q    Type
REMARK                         _______ _______ _______ _____ _____    ______ ____
ROOT
ATOM      1  C   UNL     1       6.905  -5.285  24.641  0.00  0.00    +0.000 C 
ATOM      2  C   UNL     1       5.454  -5.178  24.439  0.00  0.00    +0.000 C 
ATOM      3  C   UNL     1       4.953  -4.400  23.252  0.00  0.00    +0.000 C 
ATOM      4  N   UNL     1       6.087  -3.811  22.552  0.00  0.00    +0.000 N 
ATOM      5  C   UNL     1       5.997  -2.562  22.044  0.00  0.00    +0.000 C 
ATOM      6  O   UNL     1       5.600  -2.481  20.861  0.00  0.00    +0.000 OA
ATOM      7  C   UNL     1       7.142  -4.719  22.176  0.00  0.00    +0.000 C 
ATOM      8  C   UNL     1       7.788  -5.277  23.440  0.00  0.00    +0.000 C 
ENDROOT
BRANCH   1  11
ATOM      9  N   UNL     1       7.352  -3.014  25.389  0.00  0.00    +0.000 N 
ATOM     10  H   UNL     1       8.137  -2.711  24.849  0.00  0.00    +0.000 HD
ATOM     11  C   UNL     1       7.492  -4.315  25.663  0.00  0.00    +0.000 C 
ATOM     12  O   UNL     1       8.367  -4.636  26.443  0.00  0.00    +0.000 OA
BRANCH   9  18
ATOM     13  C   UNL     1       5.387  -1.846  25.887  0.00  0.00    +0.000 A 
ATOM     14  C   UNL     1       5.260  -0.515  25.411  0.00  0.00    +0.000 A 
ATOM     15  C   UNL     1       6.102   0.733  25.441  0.00  0.00    +0.000 A 
ATOM     16  C   UNL     1       7.415   0.124  25.879  0.00  0.00    +0.000 A 
ATOM     17  C   UNL     1       7.958  -1.048  26.373  0.00  0.00    +0.000 A 
ATOM     18  C   UNL     1       6.789  -2.138  26.079  0.00  0.00    +0.000 A 
BRANCH  13  20
ATOM     19  H   UNL     1       4.890  -1.756  27.715  0.00  0.00    +0.000 HD
ATOM     20  O   UNL     1       4.425  -1.765  26.904  0.00  0.00    +0.000 OA
ENDBRANCH  13  20
ENDBRANCH   9  18
ENDBRANCH   1  11
BRANCH   5  21
ATOM     21  C   UNL     1       6.996  -1.567  22.546  0.00  0.00    +0.000 C 
BRANCH  21  22
ATOM     22  C   UNL     1       7.981  -1.174  21.417  0.00  0.00    +0.000 A 
ATOM     23  C   UNL     1       9.370  -1.442  22.068  0.00  0.00    +0.000 A 
ATOM     24  C   UNL     1      10.359  -0.395  22.454  0.00  0.00    +0.000 A 
ATOM     25  F   UNL     1      10.231  -0.383  23.755  0.00  0.00    +0.000 F 
ATOM     26  C   UNL     1       9.805   0.897  22.012  0.00  0.00    +0.000 A 
ATOM     27  C   UNL     1       8.761   1.347  21.182  0.00  0.00    +0.000 A 
ATOM     28  C   UNL     1       8.005   0.102  20.653  0.00  0.00    +0.000 A 
BRANCH  28  29
ATOM     29  C   UNL     1       7.854  -0.061  19.169  0.00  0.00    +0.000 C 
BRANCH  29  30
ATOM     30  S   UNL     1       6.273   0.173  18.463  0.00  0.00    +0.000 S 
ATOM     31  O   UNL     1       6.296   1.260  17.525  0.00  0.00    +0.000 OA
ATOM     32  O   UNL     1       6.010  -1.116  17.771  0.00  0.00    +0.000 OA
BRANCH  30  33
ATOM     33  N   UNL     1       5.103   0.351  19.569  0.00  0.00    +0.000 NA
ATOM     34  H   UNL     1       4.266  -0.158  19.328  0.00  0.00    +0.000 HD
ATOM     35  H   UNL     1       4.812   1.320  19.643  0.00  0.00    +0.000 HD
ENDBRANCH  30  33
ENDBRANCH  29  30
ENDBRANCH  28  29
ENDBRANCH  21  22
ENDBRANCH   5  21
TORSDOF 8
ENDMDL
MODEL 4
REMARK VINA RESULT:      -8.4      1.887      3.092
REMARK  Name = 
REMARK  8 active torsions:
REMARK  status: ('A' for Active; 'I' for Inactive)
REMARK    1  A    between atoms: O_2  and  C_3
REMARK    2  A    between atoms: C_12  and  N_13
REMARK    3  A    between atoms: C_15  and  C_17
REMARK    4  A    between atoms: C_26  and  C_28
REMARK    5  A    between atoms: C_28  and  C_31
REMARK    6  A    between atoms: C_40  and  C_41
REMARK    7  A    between atoms: C_41  and  S_44
REMARK    8  A    between atoms: S_44  and  N_47
REMARK                            x       y       z     vdW  Elec       q    Type
REMARK                         _______ _______ _______ _____ _____    ______ ____
ROOT
ATOM      1  C   UNL     1       9.165   0.847  22.861  0.00  0.00    +0.000 C 
ATOM      2  C   UNL     1       9.489   0.688  24.286  0.00  0.00    +0.000 C 
ATOM      3  C   UNL     1       9.846  -0.686  24.787  0.00  0.00    +0.000 C 
ATOM      4  N   UNL     1       9.708  -1.644  23.699  0.00  0.00    +0.000 N 
ATOM      5  C   UNL     1       9.193  -2.872  23.936  0.00  0.00    +0.000 C 
ATOM      6  O   UNL     1      10.019  -3.764  24.225  0.00  0.00    +0.000 OA
ATOM      7  C   UNL     1      10.416  -1.330  22.482  0.00  0.00    +0.000 C 
ATOM      8  C   UNL     1       9.825  -0.060  21.880  0.00  0.00    +0.000 C 
ENDROOT
BRANCH   1  11
ATOM      9  N   UNL     1       6.899   0.036  23.213  0.00  0.00    +0.000 N 
ATOM     10  H   UNL     1       6.850  -0.826  22.709  0.00  0.00    +0.000 HD
ATOM     11  C   UNL     1       7.675   0.889  22.535  0.00  0.00    +0.000 C 
ATOM     12  O   UNL     1       7.246   1.331  21.488  0.00  0.00    +0.000 OA
BRANCH   9  18
ATOM     13  C   UNL     1       5.563   1.672  24.217  0.00  0.00    +0.000 A 
ATOM     14  C   UNL     1       5.742   1.926  25.602  0.00  0.00    +0.000 A 
ATOM     15  C   UNL     1       5.808   1.097  26.858  0.00  0.00    +0.000 A 
ATOM     16  C   UNL     1       5.961  -0.270  26.233  0.00  0.00    +0.000 A 
ATOM     17  C   UNL     1       5.886  -0.924  25.016  0.00  0.00    +0.000 A 
ATOM     18  C   UNL     1       5.924   0.299  23.948  0.00  0.00    +0.000 A 
BRANCH  13  20
ATOM     19  H   UNL     1       4.252   2.689  23.298  0.00  0.00    +0.000 HD
ATOM     20  O   UNL     1       4.274   2.213  24.102  0.00  0.00    +0.000 OA
ENDBRANCH  13  20
ENDBRANCH   9  18
ENDBRANCH   1  11
BRANCH   5  21
ATOM     21  C   UNL     1       7.968  -3.239  23.159  0.00  0.00    +0.000 C 
BRANCH  21  22
ATOM     22  C   UNL     1       7.477  -4.653  23.561  0.00  0.00    +0.000 A 
ATOM     23  C   UNL     1       7.446  -5.403  22.197  0.00  0.00    +0.000 A 
ATOM     24  C   UNL     1       6.214  -5.850  21.487  0.00  0.00    +0.000 A 
ATOM     25  F   UNL     1       6.139  -4.974  20.518  0.00  0.00    +0.000 F 
ATOM     26  C   UNL     1       5.075  -5.531  22.367  0.00  0.00    +0.000 A 
ATOM     27  C   UNL     1       4.878  -5.141  23.704  0.00  0.00    +0.000 A 
ATOM     28  C   UNL     1       6.271  -4.987  24.365  0.00  0.00    +0.000 A 
BRANCH  28  29
ATOM     29  C   UNL     1       6.556  -5.764  25.616  0.00  0.00    +0.000 C 
BRANCH  29  30
ATOM     30  S   UNL     1       7.596  -5.046  26.822  0.00  0.00    +0.000 S 
ATOM     31  O   UNL     1       7.315  -3.645  26.960  0.00  0.00    +0.000 OA
ATOM     32  O   UNL     1       7.240  -5.780  28.065  0.00  0.00    +0.000 OA
BRANCH  30  33
ATOM     33  N   UNL     1       9.168  -5.326  26.555  0.00  0.00    +0.000 NA
ATOM     34  H   UNL     1       9.521  -6.094  27.105  0.00  0.00    +0.000 HD
ATOM     35  H   UNL     1       9.734  -4.528  26.821  0.00  0.00    +0.000 HD
ENDBRANCH  30  33
ENDBRANCH  29  30
ENDBRANCH  28  29
ENDBRANCH  21  22
ENDBRANCH   5  21
TORSDOF 8
ENDMDL
MODEL 5
REMARK VINA RESULT:      -7.8      3.526      6.895
REMARK  Name = 
REMARK  8 active torsions:
REMARK  status: ('A' for Active; 'I' for Inactive)
REMARK    1  A    between atoms: O_2  and  C_3
REMARK    2  A    between atoms: C_12  and  N_13
REMARK    3  A    between atoms: C_15  and  C_17
REMARK    4  A    between atoms: C_26  and  C_28
REMARK    5  A    between atoms: C_28  and  C_31
REMARK    6  A    between atoms: C_40  and  C_41
REMARK    7  A    between atoms: C_41  and  S_44
REMARK    8  A    between atoms: S_44  and  N_47
REMARK                            x       y       z     vdW  Elec       q    Type
REMARK                         _______ _______ _______ _____ _____    ______ ____
ROOT
ATOM      1  C   UNL     1       6.330  -4.165  25.259  0.00  0.00    +0.000 C 
ATOM      2  C   UNL     1       6.748  -4.999  24.123  0.00  0.00    +0.000 C 
ATOM      3  C   UNL     1       8.000  -4.615  23.379  0.00  0.00    +0.000 C 
ATOM      4  N   UNL     1       8.522  -3.372  23.929  0.00  0.00    +0.000 N 
ATOM      5  C   UNL     1       9.042  -2.432  23.108  0.00  0.00    +0.000 C 
ATOM      6  O   UNL     1      10.271  -2.511  22.896  0.00  0.00    +0.000 OA
ATOM      7  C   UNL     1       8.733  -3.347  25.356  0.00  0.00    +0.000 C 
ATOM      8  C   UNL     1       7.384  -3.477  26.056  0.00  0.00    +0.000 C 
ENDROOT
BRANCH   1  11
ATOM      9  N   UNL     1       4.829  -2.391  25.974  0.00  0.00    +0.000 N 
ATOM     10  H   UNL     1       4.081  -2.856  26.445  0.00  0.00    +0.000 HD
ATOM     11  C   UNL     1       5.234  -3.149  24.950  0.00  0.00    +0.000 C 
ATOM     12  O   UNL     1       4.483  -3.264  24.002  0.00  0.00    +0.000 OA
BRANCH   9  18
ATOM     13  C   UNL     1       5.681  -0.360  25.184  0.00  0.00    +0.000 A 
ATOM     14  C   UNL     1       6.661   0.305  25.965  0.00  0.00    +0.000 A 
ATOM     15  C   UNL     1       6.804   0.716  27.407  0.00  0.00    +0.000 A 
ATOM     16  C   UNL     1       5.671  -0.091  27.998  0.00  0.00    +0.000 A 
ATOM     17  C   UNL     1       4.573  -0.851  27.637  0.00  0.00    +0.000 A 
ATOM     18  C   UNL     1       4.843  -1.144  26.061  0.00  0.00    +0.000 A 
BRANCH  13  20
ATOM     19  H   UNL     1       5.426   1.507  24.963  0.00  0.00    +0.000 HD
ATOM     20  O   UNL     1       5.263   0.752  24.438  0.00  0.00    +0.000 OA
ENDBRANCH  13  20
ENDBRANCH   9  18
ENDBRANCH   1  11
BRANCH   5  21
ATOM     21  C   UNL     1       8.397  -1.081  23.153  0.00  0.00    +0.000 C 
BRANCH  21  22
ATOM     22  C   UNL     1       8.684  -0.302  21.845  0.00  0.00    +0.000 A 
ATOM     23  C   UNL     1       9.902   0.585  22.237  0.00  0.00    +0.000 A 
ATOM     24  C   UNL     1       9.875   2.068  22.388  0.00  0.00    +0.000 A 
ATOM     25  F   UNL     1       9.908   2.199  23.688  0.00  0.00    +0.000 F 
ATOM     26  C   UNL     1       8.523   2.512  22.002  0.00  0.00    +0.000 A 
ATOM     27  C   UNL     1       7.396   1.961  21.364  0.00  0.00    +0.000 A 
ATOM     28  C   UNL     1       7.711   0.480  21.037  0.00  0.00    +0.000 A 
BRANCH  28  29
ATOM     29  C   UNL     1       7.574   0.020  19.615  0.00  0.00    +0.000 C 
BRANCH  29  30
ATOM     30  S   UNL     1       6.014  -0.545  19.070  0.00  0.00    +0.000 S 
ATOM     31  O   UNL     1       6.074  -0.941  17.691  0.00  0.00    +0.000 OA
ATOM     32  O   UNL     1       5.746  -1.717  19.945  0.00  0.00    +0.000 OA
BRANCH  30  33
ATOM     33  N   UNL     1       4.822   0.517  19.344  0.00  0.00    +0.000 NA
ATOM     34  H   UNL     1       3.973   0.276  18.856  0.00  0.00    +0.000 HD
ATOM     35  H   UNL     1       5.069   1.441  19.007  0.00  0.00    +0.000 HD
ENDBRANCH  30  33
ENDBRANCH  29  30
ENDBRANCH  28  29
ENDBRANCH  21  22
ENDBRANCH   5  21
TORSDOF 8
ENDMDL
MODEL 6
REMARK VINA RESULT:      -7.7      2.396      3.292
REMARK  Name = 
REMARK  8 active torsions:
REMARK  status: ('A' for Active; 'I' for Inactive)
REMARK    1  A    between atoms: O_2  and  C_3
REMARK    2  A    between atoms: C_12  and  N_13
REMARK    3  A    between atoms: C_15  and  C_17
REMARK    4  A    between atoms: C_26  and  C_28
REMARK    5  A    between atoms: C_28  and  C_31
REMARK    6  A    between atoms: C_40  and  C_41
REMARK    7  A    between atoms: C_41  and  S_44
REMARK    8  A    between atoms: S_44  and  N_47
REMARK                            x       y       z     vdW  Elec       q    Type
REMARK                         _______ _______ _______ _____ _____    ______ ____
ROOT
ATOM      1  C   UNL     1       9.666   1.348  22.027  0.00  0.00    +0.000 C 
ATOM      2  C   UNL     1       9.937   1.967  23.332  0.00  0.00    +0.000 C 
ATOM      3  C   UNL     1       9.861   1.100  24.561  0.00  0.00    +0.000 C 
ATOM      4  N   UNL     1       9.430  -0.237  24.180  0.00  0.00    +0.000 N 
ATOM      5  C   UNL     1       8.566  -0.922  24.963  0.00  0.00    +0.000 C 
ATOM      6  O   UNL     1       9.083  -1.655  25.833  0.00  0.00    +0.000 OA
ATOM      7  C   UNL     1      10.190  -0.876  23.134  0.00  0.00    +0.000 C 
ATOM      8  C   UNL     1      10.011  -0.090  21.840  0.00  0.00    +0.000 C 
ENDROOT
BRANCH   1  11
ATOM      9  N   UNL     1       7.419   2.244  22.277  0.00  0.00    +0.000 N 
ATOM     10  H   UNL     1       6.944   1.596  22.872  0.00  0.00    +0.000 HD
ATOM     11  C   UNL     1       8.257   1.569  21.484  0.00  0.00    +0.000 C 
ATOM     12  O   UNL     1       7.772   0.870  20.616  0.00  0.00    +0.000 OA
BRANCH   9  18
ATOM     13  C   UNL     1       7.394   4.581  22.387  0.00  0.00    +0.000 A 
ATOM     14  C   UNL     1       6.575   5.197  23.368  0.00  0.00    +0.000 A 
ATOM     15  C   UNL     1       5.140   5.083  23.811  0.00  0.00    +0.000 A 
ATOM     16  C   UNL     1       4.774   3.798  23.104  0.00  0.00    +0.000 A 
ATOM     17  C   UNL     1       5.241   2.910  22.152  0.00  0.00    +0.000 A 
ATOM     18  C   UNL     1       6.812   3.308  22.030  0.00  0.00    +0.000 A 
BRANCH  13  20
ATOM     19  H   UNL     1       7.601   5.353  20.667  0.00  0.00    +0.000 HD
ATOM     20  O   UNL     1       7.516   5.688  21.535  0.00  0.00    +0.000 OA
ENDBRANCH  13  20
ENDBRANCH   9  18
ENDBRANCH   1  11
BRANCH   5  21
ATOM     21  C   UNL     1       7.281  -1.346  24.323  0.00  0.00    +0.000 C 
BRANCH  21  22
ATOM     22  C   UNL     1       7.278  -2.877  24.082  0.00  0.00    +0.000 A 
ATOM     23  C   UNL     1       7.223  -2.976  22.529  0.00  0.00    +0.000 A 
ATOM     24  C   UNL     1       6.061  -3.469  21.737  0.00  0.00    +0.000 A 
ATOM     25  F   UNL     1       5.582  -2.352  21.253  0.00  0.00    +0.000 F 
ATOM     26  C   UNL     1       5.046  -3.921  22.705  0.00  0.00    +0.000 A 
ATOM     27  C   UNL     1       4.980  -4.193  24.084  0.00  0.00    +0.000 A 
ATOM     28  C   UNL     1       6.367  -3.878  24.698  0.00  0.00    +0.000 A 
BRANCH  28  29
ATOM     29  C   UNL     1       7.066  -4.957  25.472  0.00  0.00    +0.000 C 
BRANCH  29  30
ATOM     30  S   UNL     1       6.317  -5.549  26.934  0.00  0.00    +0.000 S 
ATOM     31  O   UNL     1       5.538  -6.725  26.662  0.00  0.00    +0.000 OA
ATOM     32  O   UNL     1       7.475  -5.875  27.807  0.00  0.00    +0.000 OA
BRANCH  30  33
ATOM     33  N   UNL     1       5.457  -4.418  27.712  0.00  0.00    +0.000 NA
ATOM     34  H   UNL     1       5.321  -4.641  28.686  0.00  0.00    +0.000 HD
ATOM     35  H   UNL     1       4.522  -4.338  27.326  0.00  0.00    +0.000 HD
ENDBRANCH  30  33
ENDBRANCH  29  30
ENDBRANCH  28  29
ENDBRANCH  21  22
ENDBRANCH   5  21
TORSDOF 8
ENDMDL
MODEL 7
REMARK VINA RESULT:      -7.7      3.407      7.175
REMARK  Name = 
REMARK  8 active torsions:
REMARK  status: ('A' for Active; 'I' for Inactive)
REMARK    1  A    between atoms: O_2  and  C_3
REMARK    2  A    between atoms: C_12  and  N_13
REMARK    3  A    between atoms: C_15  and  C_17
REMARK    4  A    between atoms: C_26  and  C_28
REMARK    5  A    between atoms: C_28  and  C_31
REMARK    6  A    between atoms: C_40  and  C_41
REMARK    7  A    between atoms: C_41  and  S_44
REMARK    8  A    between atoms: S_44  and  N_47
REMARK                            x       y       z     vdW  Elec       q    Type
REMARK                         _______ _______ _______ _____ _____    ______ ____
ROOT
ATOM      1  C   UNL     1       5.528  -1.373  27.012  0.00  0.00    +0.000 C 
ATOM      2  C   UNL     1       6.942  -1.040  27.234  0.00  0.00    +0.000 C 
ATOM      3  C   UNL     1       7.599  -0.059  26.300  0.00  0.00    +0.000 C 
ATOM      4  N   UNL     1       6.654   0.318  25.258  0.00  0.00    +0.000 N 
ATOM      5  C   UNL     1       7.076   0.475  23.983  0.00  0.00    +0.000 C 
ATOM      6  O   UNL     1       7.436   1.629  23.665  0.00  0.00    +0.000 OA
ATOM      7  C   UNL     1       5.372   0.800  25.707  0.00  0.00    +0.000 C 
ATOM      8  C   UNL     1       4.640  -0.331  26.422  0.00  0.00    +0.000 C 
ENDROOT
BRANCH   1  11
ATOM      9  N   UNL     1       6.317  -3.182  25.591  0.00  0.00    +0.000 N 
ATOM     10  H   UNL     1       6.311  -2.808  24.664  0.00  0.00    +0.000 HD
ATOM     11  C   UNL     1       5.278  -2.681  26.267  0.00  0.00    +0.000 C 
ATOM     12  O   UNL     1       4.166  -3.049  25.945  0.00  0.00    +0.000 OA
BRANCH   9  18
ATOM     13  C   UNL     1       7.697  -4.570  26.873  0.00  0.00    +0.000 A 
ATOM     14  C   UNL     1       9.023  -4.796  26.423  0.00  0.00    +0.000 A 
ATOM     15  C   UNL     1       9.675  -5.211  25.130  0.00  0.00    +0.000 A 
ATOM     16  C   UNL     1       8.497  -5.028  24.201  0.00  0.00    +0.000 A 
ATOM     17  C   UNL     1       7.133  -4.800  24.206  0.00  0.00    +0.000 A 
ATOM     18  C   UNL     1       6.858  -4.300  25.727  0.00  0.00    +0.000 A 
BRANCH  13  20
ATOM     19  H   UNL     1       8.326  -6.242  27.509  0.00  0.00    +0.000 HD
ATOM     20  O   UNL     1       7.597  -5.692  27.708  0.00  0.00    +0.000 OA
ENDBRANCH  13  20
ENDBRANCH   9  18
ENDBRANCH   1  11
BRANCH   5  21
ATOM     21  C   UNL     1       6.419  -0.392  22.954  0.00  0.00    +0.000 C 
BRANCH  21  22
ATOM     22  C   UNL     1       7.445  -0.820  21.875  0.00  0.00    +0.000 A 
ATOM     23  C   UNL     1       8.360  -1.813  22.650  0.00  0.00    +0.000 A 
ATOM     24  C   UNL     1       9.782  -1.564  23.022  0.00  0.00    +0.000 A 
ATOM     25  F   UNL     1       9.679  -1.329  24.305  0.00  0.00    +0.000 F 
ATOM     26  C   UNL     1      10.155  -0.265  22.434  0.00  0.00    +0.000 A 
ATOM     27  C   UNL     1       9.623   0.637  21.493  0.00  0.00    +0.000 A 
ATOM     28  C   UNL     1       8.263   0.074  21.012  0.00  0.00    +0.000 A 
BRANCH  28  29
ATOM     29  C   UNL     1       8.055  -0.127  19.540  0.00  0.00    +0.000 C 
BRANCH  29  30
ATOM     30  S   UNL     1       6.540   0.385  18.836  0.00  0.00    +0.000 S 
ATOM     31  O   UNL     1       5.822   1.232  19.746  0.00  0.00    +0.000 OA
ATOM     32  O   UNL     1       6.960   1.145  17.629  0.00  0.00    +0.000 OA
BRANCH  30  33
ATOM     33  N   UNL     1       5.633  -0.850  18.312  0.00  0.00    +0.000 NA
ATOM     34  H   UNL     1       5.513  -0.841  17.311  0.00  0.00    +0.000 HD
ATOM     35  H   UNL     1       4.694  -0.802  18.692  0.00  0.00    +0.000 HD
ENDBRANCH  30  33
ENDBRANCH  29  30
ENDBRANCH  28  29
ENDBRANCH  21  22
ENDBRANCH   5  21
TORSDOF 8
ENDMDL
MODEL 8
REMARK VINA RESULT:      -7.6      3.279      6.809
REMARK  Name = 
REMARK  8 active torsions:
REMARK  status: ('A' for Active; 'I' for Inactive)
REMARK    1  A    between atoms: O_2  and  C_3
REMARK    2  A    between atoms: C_12  and  N_13
REMARK    3  A    between atoms: C_15  and  C_17
REMARK    4  A    between atoms: C_26  and  C_28
REMARK    5  A    between atoms: C_28  and  C_31
REMARK    6  A    between atoms: C_40  and  C_41
REMARK    7  A    between atoms: C_41  and  S_44
REMARK    8  A    between atoms: S_44  and  N_47
REMARK                            x       y       z     vdW  Elec       q    Type
REMARK                         _______ _______ _______ _____ _____    ______ ____
ROOT
ATOM      1  C   UNL     1       9.338  -1.754  24.549  0.00  0.00    +0.000 C 
ATOM      2  C   UNL     1      10.012  -1.784  23.244  0.00  0.00    +0.000 C 
ATOM      3  C   UNL     1      10.467  -0.480  22.646  0.00  0.00    +0.000 C 
ATOM      4  N   UNL     1      10.045   0.616  23.507  0.00  0.00    +0.000 N 
ATOM      5  C   UNL     1       9.592   1.769  22.966  0.00  0.00    +0.000 C 
ATOM      6  O   UNL     1      10.453   2.652  22.761  0.00  0.00    +0.000 OA
ATOM      7  C   UNL     1      10.423   0.516  24.895  0.00  0.00    +0.000 C 
ATOM      8  C   UNL     1       9.715  -0.684  25.516  0.00  0.00    +0.000 C 
ENDROOT
BRANCH   1  11
ATOM      9  N   UNL     1       7.291  -2.439  23.430  0.00  0.00    +0.000 N 
ATOM     10  H   UNL     1       7.152  -1.767  22.703  0.00  0.00    +0.000 HD
ATOM     11  C   UNL     1       7.814  -1.824  24.495  0.00  0.00    +0.000 C 
ATOM     12  O   UNL     1       7.101  -1.056  25.110  0.00  0.00    +0.000 OA
BRANCH   9  18
ATOM     13  C   UNL     1       6.930  -4.667  24.048  0.00  0.00    +0.000 A 
ATOM     14  C   UNL     1       7.070  -5.669  23.053  0.00  0.00    +0.000 A 
ATOM     15  C   UNL     1       6.554  -5.891  21.656  0.00  0.00    +0.000 A 
ATOM     16  C   UNL     1       6.023  -4.504  21.375  0.00  0.00    +0.000 A 
ATOM     17  C   UNL     1       5.740  -3.302  21.997  0.00  0.00    +0.000 A 
ATOM     18  C   UNL     1       6.533  -3.433  23.410  0.00  0.00    +0.000 A 
BRANCH  13  20
ATOM     19  H   UNL     1       5.843  -4.815  25.595  0.00  0.00    +0.000 HD
ATOM     20  O   UNL     1       6.145  -5.410  24.942  0.00  0.00    +0.000 OA
ENDBRANCH  13  20
ENDBRANCH   9  18
ENDBRANCH   1  11
BRANCH   5  21
ATOM     21  C   UNL     1       8.204   2.182  23.348  0.00  0.00    +0.000 C 
BRANCH  21  22
ATOM     22  C   UNL     1       7.448   2.736  22.114  0.00  0.00    +0.000 A 
ATOM     23  C   UNL     1       7.480   4.274  22.358  0.00  0.00    +0.000 A 
ATOM     24  C   UNL     1       6.299   5.120  22.692  0.00  0.00    +0.000 A 
ATOM     25  F   UNL     1       6.494   5.347  23.965  0.00  0.00    +0.000 F 
ATOM     26  C   UNL     1       5.118   4.239  22.646  0.00  0.00    +0.000 A 
ATOM     27  C   UNL     1       4.808   2.946  22.186  0.00  0.00    +0.000 A 
ATOM     28  C   UNL     1       6.108   2.318  21.623  0.00  0.00    +0.000 A 
BRANCH  28  29
ATOM     29  C   UNL     1       6.098   1.805  20.212  0.00  0.00    +0.000 C 
BRANCH  29  30
ATOM     30  S   UNL     1       6.637   0.170  19.918  0.00  0.00    +0.000 S 
ATOM     31  O   UNL     1       7.777   0.164  19.045  0.00  0.00    +0.000 OA
ATOM     32  O   UNL     1       7.008  -0.320  21.272  0.00  0.00    +0.000 OA
BRANCH  30  33
ATOM     33  N   UNL     1       5.458  -0.802  19.382  0.00  0.00    +0.000 NA
ATOM     34  H   UNL     1       5.495  -0.937  18.384  0.00  0.00    +0.000 HD
ATOM     35  H   UNL     1       4.543  -0.403  19.562  0.00  0.00    +0.000 HD
ENDBRANCH  30  33
ENDBRANCH  29  30
ENDBRANCH  28  29
ENDBRANCH  21  22
ENDBRANCH   5  21
TORSDOF 8
ENDMDL
MODEL 9
REMARK VINA RESULT:      -7.6      2.079      3.213
REMARK  Name = 
REMARK  8 active torsions:
REMARK  status: ('A' for Active; 'I' for Inactive)
REMARK    1  A    between atoms: O_2  and  C_3
REMARK    2  A    between atoms: C_12  and  N_13
REMARK    3  A    between atoms: C_15  and  C_17
REMARK    4  A    between atoms: C_26  and  C_28
REMARK    5  A    between atoms: C_28  and  C_31
REMARK    6  A    between atoms: C_40  and  C_41
REMARK    7  A    between atoms: C_41  and  S_44
REMARK    8  A    between atoms: S_44  and  N_47
REMARK                            x       y       z     vdW  Elec       q    Type
REMARK                         _______ _______ _______ _____ _____    ______ ____
ROOT
ATOM      1  C   UNL     1       9.307  -1.005  25.161  0.00  0.00    +0.000 C 
ATOM      2  C   UNL     1       8.494   0.186  25.447  0.00  0.00    +0.000 C 
ATOM      3  C   UNL     1       7.020   0.001  25.691  0.00  0.00    +0.000 C 
ATOM      4  N   UNL     1       6.675  -1.401  25.501  0.00  0.00    +0.000 N 
ATOM      5  C   UNL     1       5.516  -1.738  24.892  0.00  0.00    +0.000 C 
ATOM      6  O   UNL     1       4.531  -1.901  25.643  0.00  0.00    +0.000 OA
ATOM      7  C   UNL     1       7.453  -2.354  26.252  0.00  0.00    +0.000 C 
ATOM      8  C   UNL     1       8.899  -2.303  25.769  0.00  0.00    +0.000 C 
ENDROOT
BRANCH   1  11
ATOM      9  N   UNL     1       8.645  -0.892  22.824  0.00  0.00    +0.000 N 
ATOM     10  H   UNL     1       8.026  -1.665  22.690  0.00  0.00    +0.000 HD
ATOM     11  C   UNL     1       9.604  -1.250  23.684  0.00  0.00    +0.000 C 
ATOM     12  O   UNL     1      10.427  -2.060  23.307  0.00  0.00    +0.000 OA
BRANCH   9  18
ATOM     13  C   UNL     1       9.037   1.306  22.126  0.00  0.00    +0.000 A 
ATOM     14  C   UNL     1       7.921   2.099  21.751  0.00  0.00    +0.000 A 
ATOM     15  C   UNL     1       6.733   1.939  20.840  0.00  0.00    +0.000 A 
ATOM     16  C   UNL     1       6.819   0.449  20.597  0.00  0.00    +0.000 A 
ATOM     17  C   UNL     1       7.654  -0.637  20.785  0.00  0.00    +0.000 A 
ATOM     18  C   UNL     1       8.724  -0.082  21.876  0.00  0.00    +0.000 A 
BRANCH  13  20
ATOM     19  H   UNL     1      10.347   1.512  20.771  0.00  0.00    +0.000 HD
ATOM     20  O   UNL     1      10.019   2.053  21.458  0.00  0.00    +0.000 OA
ENDBRANCH  13  20
ENDBRANCH   9  18
ENDBRANCH   1  11
BRANCH   5  21
ATOM     21  C   UNL     1       5.635  -2.575  23.656  0.00  0.00    +0.000 C 
BRANCH  21  22
ATOM     22  C   UNL     1       6.425  -3.874  23.958  0.00  0.00    +0.000 A 
ATOM     23  C   UNL     1       7.111  -4.180  22.594  0.00  0.00    +0.000 A 
ATOM     24  C   UNL     1       6.776  -5.323  21.698  0.00  0.00    +0.000 A 
ATOM     25  F   UNL     1       6.117  -4.721  20.742  0.00  0.00    +0.000 F 
ATOM     26  C   UNL     1       5.763  -6.132  22.399  0.00  0.00    +0.000 A 
ATOM     27  C   UNL     1       5.226  -6.221  23.697  0.00  0.00    +0.000 A 
ATOM     28  C   UNL     1       5.894  -5.125  24.564  0.00  0.00    +0.000 A 
BRANCH  28  29
ATOM     29  C   UNL     1       6.580  -5.539  25.832  0.00  0.00    +0.000 C 
BRANCH  29  30
ATOM     30  S   UNL     1       5.623  -5.685  27.286  0.00  0.00    +0.000 S 
ATOM     31  O   UNL     1       6.332  -5.147  28.413  0.00  0.00    +0.000 OA
ATOM     32  O   UNL     1       4.414  -4.873  26.986  0.00  0.00    +0.000 OA
BRANCH  30  33
ATOM     33  N   UNL     1       5.108  -7.196  27.559  0.00  0.00    +0.000 NA
ATOM     34  H   UNL     1       4.962  -7.381  28.539  0.00  0.00    +0.000 HD
ATOM     35  H   UNL     1       5.797  -7.878  27.260  0.00  0.00    +0.000 HD
ENDBRANCH  30  33
ENDBRANCH  29  30
ENDBRANCH  28  29
ENDBRANCH  21  22
ENDBRANCH   5  21
TORSDOF 8
ENDMDL
