MODEL 1
REMARK VINA RESULT:      -6.9      0.000      0.000
REMARK  Name = 
REMARK  2 active torsions:
REMARK  status: ('A' for Active; 'I' for Inactive)
REMARK    1  A    between atoms: C_9  and  C_10
REMARK    2  A    between atoms: C_10  and  N_11
REMARK                            x       y       z     vdW  Elec       q    Type
REMARK                         _______ _______ _______ _____ _____    ______ ____
ROOT
ATOM      1  C   UNL     1      10.081   1.733  24.340  0.00  0.00    +0.000 A 
ATOM      2  C   UNL     1       8.886   1.964  23.628  0.00  0.00    +0.000 A 
ATOM      3  C   UNL     1       8.687   1.696  22.124  0.00  0.00    +0.000 A 
ATOM      4  N   UNL     1       7.832   2.077  21.551  0.00  0.00    +0.000 NA
ATOM      5  C   UNL     1       6.879   1.317  20.868  0.00  0.00    +0.000 A 
ATOM      6  C   UNL     1       7.746   0.203  20.369  0.00  0.00    +0.000 A 
ATOM      7  C   UNL     1       8.975  -0.230  20.949  0.00  0.00    +0.000 A 
ATOM      8  C   UNL     1       9.748   0.494  21.950  0.00  0.00    +0.000 A 
ATOM      9  C   UNL     1      10.242  -0.266  23.025  0.00  0.00    +0.000 A 
ATOM     10  C   UNL     1      10.829   0.336  24.231  0.00  0.00    +0.000 A 
ENDROOT
BRANCH   9  11
ATOM     11  C   UNL     1       9.918  -1.770  23.112  0.00  0.00    +0.000 C 
BRANCH  11  12
ATOM     12  N   UNL     1       9.093  -2.049  24.207  0.00  0.00    +0.000 NA
ATOM     13  C   UNL     1       9.408  -3.582  24.576  0.00  0.00    +0.000 C 
ATOM     14  C   UNL     1       8.034  -3.978  24.196  0.00  0.00    +0.000 C 
ATOM     15  C   UNL     1       7.047  -4.202  25.351  0.00  0.00    +0.000 C 
ATOM     16  C   UNL     1       6.082  -5.281  24.773  0.00  0.00    +0.000 C 
ATOM     17  O   UNL     1       6.437  -5.538  23.449  0.00  0.00    +0.000 OA
ATOM     18  C   UNL     1       7.752  -5.030  23.198  0.00  0.00    +0.000 C 
ATOM     19  C   UNL     1       7.732  -2.549  23.621  0.00  0.00    +0.000 C 
ENDBRANCH  11  12
ENDBRANCH   9  11
TORSDOF 2
ENDMDL
MODEL 2
REMARK VINA RESULT:      -6.4      2.671      6.612
REMARK  Name = 
REMARK  2 active torsions:
REMARK  status: ('A' for Active; 'I' for Inactive)
REMARK    1  A    between atoms: C_9  and  C_10
REMARK    2  A    between atoms: C_10  and  N_11
REMARK                            x       y       z     vdW  Elec       q    Type
REMARK                         _______ _______ _______ _____ _____    ______ ____
ROOT
ATOM      1  C   UNL     1       5.345  -4.078  22.800  0.00  0.00    +0.000 A 
ATOM      2  C   UNL     1       5.229  -4.345  24.179  0.00  0.00    +0.000 A 
ATOM      3  C   UNL     1       6.197  -5.221  24.996  0.00  0.00    +0.000 A 
ATOM      4  N   UNL     1       5.974  -5.587  26.006  0.00  0.00    +0.000 NA
ATOM      5  C   UNL     1       6.701  -5.321  27.170  0.00  0.00    +0.000 A 
ATOM      6  C   UNL     1       8.089  -5.309  26.611  0.00  0.00    +0.000 A 
ATOM      7  C   UNL     1       8.447  -5.029  25.259  0.00  0.00    +0.000 A 
ATOM      8  C   UNL     1       7.533  -4.981  24.125  0.00  0.00    +0.000 A 
ATOM      9  C   UNL     1       7.697  -3.903  23.237  0.00  0.00    +0.000 A 
ATOM     10  C   UNL     1       6.721  -3.572  22.189  0.00  0.00    +0.000 A 
ENDROOT
BRANCH   9  11
ATOM     11  C   UNL     1       8.773  -2.837  23.519  0.00  0.00    +0.000 C 
BRANCH  11  12
ATOM     12  N   UNL     1       8.741  -1.818  22.561  0.00  0.00    +0.000 NA
ATOM     13  C   UNL     1      10.278  -1.382  22.376  0.00  0.00    +0.000 C 
ATOM     14  C   UNL     1       9.989  -0.046  22.942  0.00  0.00    +0.000 C 
ATOM     15  C   UNL     1       9.841   1.103  21.934  0.00  0.00    +0.000 C 
ATOM     16  C   UNL     1      10.328   2.340  22.748  0.00  0.00    +0.000 C 
ATOM     17  O   UNL     1      10.610   1.935  24.052  0.00  0.00    +0.000 OA
ATOM     18  C   UNL     1      10.723   0.508  24.099  0.00  0.00    +0.000 C 
ATOM     19  C   UNL     1       8.535  -0.479  23.343  0.00  0.00    +0.000 C 
ENDBRANCH  11  12
ENDBRANCH   9  11
TORSDOF 2
ENDMDL
MODEL 3
REMARK VINA RESULT:      -6.2      1.740      3.325
REMARK  Name = 
REMARK  2 active torsions:
REMARK  status: ('A' for Active; 'I' for Inactive)
REMARK    1  A    between atoms: C_9  and  C_10
REMARK    2  A    between atoms: C_10  and  N_11
REMARK                            x       y       z     vdW  Elec       q    Type
REMARK                         _______ _______ _______ _____ _____    ______ ____
ROOT
ATOM      1  C   UNL     1       7.876   0.183  20.771  0.00  0.00    +0.000 A 
ATOM      2  C   UNL     1       9.042   0.630  21.424  0.00  0.00    +0.000 A 
ATOM      3  C   UNL     1       9.181   0.835  22.945  0.00  0.00    +0.000 A 
ATOM      4  N   UNL     1      10.014   1.379  23.407  0.00  0.00    +0.000 NA
ATOM      5  C   UNL     1      10.937   0.872  24.325  0.00  0.00    +0.000 A 
ATOM      6  C   UNL     1      10.047  -0.045  25.106  0.00  0.00    +0.000 A 
ATOM      7  C   UNL     1       8.841  -0.645  24.638  0.00  0.00    +0.000 A 
ATOM      8  C   UNL     1       8.110  -0.267  23.435  0.00  0.00    +0.000 A 
ATOM      9  C   UNL     1       7.657  -1.323  22.624  0.00  0.00    +0.000 A 
ATOM     10  C   UNL     1       7.120  -1.121  21.270  0.00  0.00    +0.000 A 
ENDROOT
BRANCH   9  11
ATOM     11  C   UNL     1       7.980  -2.778  23.012  0.00  0.00    +0.000 C 
BRANCH  11  12
ATOM     12  N   UNL     1       6.832  -3.578  22.986  0.00  0.00    +0.000 NA
ATOM     13  C   UNL     1       6.040  -3.201  24.333  0.00  0.00    +0.000 C 
ATOM     14  C   UNL     1       6.256  -4.564  24.867  0.00  0.00    +0.000 C 
ATOM     15  C   UNL     1       5.063  -5.527  24.776  0.00  0.00    +0.000 C 
ATOM     16  C   UNL     1       5.279  -6.458  26.007  0.00  0.00    +0.000 C 
ATOM     17  O   UNL     1       6.478  -6.110  26.627  0.00  0.00    +0.000 OA
ATOM     18  C   UNL     1       6.897  -4.819  26.174  0.00  0.00    +0.000 C 
ATOM     19  C   UNL     1       7.215  -4.927  23.679  0.00  0.00    +0.000 C 
ENDBRANCH  11  12
ENDBRANCH   9  11
TORSDOF 2
ENDMDL
MODEL 4
REMARK VINA RESULT:      -6.2      1.522      1.747
REMARK  Name = 
REMARK  2 active torsions:
REMARK  status: ('A' for Active; 'I' for Inactive)
REMARK    1  A    between atoms: C_9  and  C_10
REMARK    2  A    between atoms: C_10  and  N_11
REMARK                            x       y       z     vdW  Elec       q    Type
REMARK                         _______ _______ _______ _____ _____    ______ ____
ROOT
ATOM      1  C   UNL     1       8.163   0.422  25.567  0.00  0.00    +0.000 A 
ATOM      2  C   UNL     1       7.557   0.752  24.338  0.00  0.00    +0.000 A 
ATOM      3  C   UNL     1       8.288   0.821  22.983  0.00  0.00    +0.000 A 
ATOM      4  N   UNL     1       7.853   1.281  22.086  0.00  0.00    +0.000 NA
ATOM      5  C   UNL     1       7.594   0.651  20.866  0.00  0.00    +0.000 A 
ATOM      6  C   UNL     1       8.765  -0.280  20.802  0.00  0.00    +0.000 A 
ATOM      7  C   UNL     1       9.506  -0.775  21.916  0.00  0.00    +0.000 A 
ATOM      8  C   UNL     1       9.447  -0.260  23.278  0.00  0.00    +0.000 A 
ATOM      9  C   UNL     1       9.371  -1.219  24.304  0.00  0.00    +0.000 A 
ATOM     10  C   UNL     1       9.066  -0.878  25.701  0.00  0.00    +0.000 A 
ENDROOT
BRANCH   9  11
ATOM     11  C   UNL     1       9.314  -2.717  23.947  0.00  0.00    +0.000 C 
BRANCH  11  12
ATOM     12  N   UNL     1       8.212  -3.339  24.544  0.00  0.00    +0.000 NA
ATOM     13  C   UNL     1       8.300  -4.873  24.069  0.00  0.00    +0.000 C 
ATOM     14  C   UNL     1       7.048  -4.728  23.295  0.00  0.00    +0.000 C 
ATOM     15  C   UNL     1       5.779  -5.301  23.942  0.00  0.00    +0.000 C 
ATOM     16  C   UNL     1       4.919  -5.710  22.707  0.00  0.00    +0.000 C 
ATOM     17  O   UNL     1       5.588  -5.322  21.547  0.00  0.00    +0.000 OA
ATOM     18  C   UNL     1       6.958  -5.040  21.854  0.00  0.00    +0.000 C 
ATOM     19  C   UNL     1       7.018  -3.179  23.547  0.00  0.00    +0.000 C 
ENDBRANCH  11  12
ENDBRANCH   9  11
TORSDOF 2
ENDMDL
MODEL 5
REMARK VINA RESULT:      -6.2      1.522      1.872
REMARK  Name = 
REMARK  2 active torsions:
REMARK  status: ('A' for Active; 'I' for Inactive)
REMARK    1  A    between atoms: C_9  and  C_10
REMARK    2  A    between atoms: C_10  and  N_11
REMARK                            x       y       z     vdW  Elec       q    Type
REMARK                         _______ _______ _______ _____ _____    ______ ____
ROOT
ATOM      1  C   UNL     1       7.587   1.633  23.707  0.00  0.00    +0.000 A 
ATOM      2  C   UNL     1       6.686   1.659  22.624  0.00  0.00    +0.000 A 
ATOM      3  C   UNL     1       7.078   1.501  21.143  0.00  0.00    +0.000 A 
ATOM      4  N   UNL     1       6.401   1.734  20.311  0.00  0.00    +0.000 NA
ATOM      5  C   UNL     1       5.951   0.850  19.327  0.00  0.00    +0.000 A 
ATOM      6  C   UNL     1       7.179   0.013  19.150  0.00  0.00    +0.000 A 
ATOM      7  C   UNL     1       8.205  -0.188  20.120  0.00  0.00    +0.000 A 
ATOM      8  C   UNL     1       8.394   0.589  21.337  0.00  0.00    +0.000 A 
ATOM      9  C   UNL     1       8.666  -0.141  22.508  0.00  0.00    +0.000 A 
ATOM     10  C   UNL     1       8.645   0.457  23.850  0.00  0.00    +0.000 A 
ENDROOT
BRANCH   9  11
ATOM     11  C   UNL     1       8.708  -1.680  22.456  0.00  0.00    +0.000 C 
BRANCH  11  12
ATOM     12  N   UNL     1       7.780  -2.244  23.339  0.00  0.00    +0.000 NA
ATOM     13  C   UNL     1       8.205  -3.791  23.447  0.00  0.00    +0.000 C 
ATOM     14  C   UNL     1       6.943  -4.206  22.795  0.00  0.00    +0.000 C 
ATOM     15  C   UNL     1       5.842  -4.740  23.723  0.00  0.00    +0.000 C 
ATOM     16  C   UNL     1       5.082  -5.748  22.808  0.00  0.00    +0.000 C 
ATOM     17  O   UNL     1       5.634  -5.695  21.528  0.00  0.00    +0.000 OA
ATOM     18  C   UNL     1       6.909  -5.046  21.581  0.00  0.00    +0.000 C 
ATOM     19  C   UNL     1       6.569  -2.716  22.469  0.00  0.00    +0.000 C 
ENDBRANCH  11  12
ENDBRANCH   9  11
TORSDOF 2
ENDMDL
MODEL 6
REMARK VINA RESULT:      -6.1      1.318      1.471
REMARK  Name = 
REMARK  2 active torsions:
REMARK  status: ('A' for Active; 'I' for Inactive)
REMARK    1  A    between atoms: C_9  and  C_10
REMARK    2  A    between atoms: C_10  and  N_11
REMARK                            x       y       z     vdW  Elec       q    Type
REMARK                         _______ _______ _______ _____ _____    ______ ____
ROOT
ATOM      1  C   UNL     1      10.412   1.016  23.785  0.00  0.00    +0.000 A 
ATOM      2  C   UNL     1       9.212   1.706  23.520  0.00  0.00    +0.000 A 
ATOM      3  C   UNL     1       8.574   1.867  22.127  0.00  0.00    +0.000 A 
ATOM      4  N   UNL     1       7.766   2.578  21.911  0.00  0.00    +0.000 NA
ATOM      5  C   UNL     1       6.486   2.271  21.442  0.00  0.00    +0.000 A 
ATOM      6  C   UNL     1       6.811   1.128  20.532  0.00  0.00    +0.000 A 
ATOM      7  C   UNL     1       7.948   0.272  20.632  0.00  0.00    +0.000 A 
ATOM      8  C   UNL     1       9.130   0.514  21.448  0.00  0.00    +0.000 A 
ATOM      9  C   UNL     1       9.613  -0.582  22.185  0.00  0.00    +0.000 A 
ATOM     10  C   UNL     1      10.637  -0.456  23.233  0.00  0.00    +0.000 A 
ENDROOT
BRANCH   9  11
ATOM     11  C   UNL     1       8.869  -1.930  22.129  0.00  0.00    +0.000 C 
BRANCH  11  12
ATOM     12  N   UNL     1       8.457  -2.337  23.402  0.00  0.00    +0.000 NA
ATOM     13  C   UNL     1       7.966  -3.855  23.208  0.00  0.00    +0.000 C 
ATOM     14  C   UNL     1       6.574  -3.469  23.532  0.00  0.00    +0.000 C 
ATOM     15  C   UNL     1       6.091  -3.796  24.952  0.00  0.00    +0.000 C 
ATOM     16  C   UNL     1       4.562  -4.025  24.750  0.00  0.00    +0.000 C 
ATOM     17  O   UNL     1       4.242  -3.762  23.418  0.00  0.00    +0.000 OA
ATOM     18  C   UNL     1       5.437  -3.747  22.630  0.00  0.00    +0.000 C 
ATOM     19  C   UNL     1       6.948  -1.945  23.527  0.00  0.00    +0.000 C 
ENDBRANCH  11  12
ENDBRANCH   9  11
TORSDOF 2
ENDMDL
MODEL 7
REMARK VINA RESULT:      -6.0      2.623      6.559
REMARK  Name = 
REMARK  2 active torsions:
REMARK  status: ('A' for Active; 'I' for Inactive)
REMARK    1  A    between atoms: C_9  and  C_10
REMARK    2  A    between atoms: C_10  and  N_11
REMARK                            x       y       z     vdW  Elec       q    Type
REMARK                         _______ _______ _______ _____ _____    ______ ____
ROOT
ATOM      1  C   UNL     1       4.260  -4.441  24.600  0.00  0.00    +0.000 A 
ATOM      2  C   UNL     1       5.250  -4.360  25.600  0.00  0.00    +0.000 A 
ATOM      3  C   UNL     1       6.604  -5.094  25.565  0.00  0.00    +0.000 A 
ATOM      4  N   UNL     1       7.263  -5.187  26.438  0.00  0.00    +0.000 NA
ATOM      5  C   UNL     1       8.572  -4.713  26.552  0.00  0.00    +0.000 A 
ATOM      6  C   UNL     1       9.056  -4.950  25.156  0.00  0.00    +0.000 A 
ATOM      7  C   UNL     1       8.241  -5.032  23.988  0.00  0.00    +0.000 A 
ATOM      8  C   UNL     1       6.792  -5.181  23.966  0.00  0.00    +0.000 A 
ATOM      9  C   UNL     1       6.095  -4.364  23.058  0.00  0.00    +0.000 A 
ATOM     10  C   UNL     1       4.633  -4.212  23.073  0.00  0.00    +0.000 A 
ENDROOT
BRANCH   9  11
ATOM     11  C   UNL     1       6.869  -3.354  22.188  0.00  0.00    +0.000 C 
BRANCH  11  12
ATOM     12  N   UNL     1       6.460  -2.042  22.449  0.00  0.00    +0.000 NA
ATOM     13  C   UNL     1       6.717  -1.252  21.072  0.00  0.00    +0.000 C 
ATOM     14  C   UNL     1       7.761  -0.424  21.716  0.00  0.00    +0.000 C 
ATOM     15  C   UNL     1       7.347   0.998  22.121  0.00  0.00    +0.000 C 
ATOM     16  C   UNL     1       8.683   1.792  21.999  0.00  0.00    +0.000 C 
ATOM     17  O   UNL     1       9.704   0.902  21.668  0.00  0.00    +0.000 OA
ATOM     18  C   UNL     1       9.138  -0.324  21.191  0.00  0.00    +0.000 C 
ATOM     19  C   UNL     1       7.709  -1.294  23.022  0.00  0.00    +0.000 C 
ENDBRANCH  11  12
ENDBRANCH   9  11
TORSDOF 2
ENDMDL
MODEL 8
REMARK VINA RESULT:      -5.6      1.818      3.253
REMARK  Name = 
REMARK  2 active torsions:
REMARK  status: ('A' for Active; 'I' for Inactive)
REMARK    1  A    between atoms: C_9  and  C_10
REMARK    2  A    between atoms: C_10  and  N_11
REMARK                            x       y       z     vdW  Elec       q    Type
REMARK                         _______ _______ _______ _____ _____    ______ ____
ROOT
ATOM      1  C   UNL     1       8.161   0.233  20.445  0.00  0.00    +0.000 A 
ATOM      2  C   UNL     1       9.041   1.012  21.223  0.00  0.00    +0.000 A 
ATOM      3  C   UNL     1       8.611   1.974  22.347  0.00  0.00    +0.000 A 
ATOM      4  N   UNL     1       9.281   2.721  22.792  0.00  0.00    +0.000 NA
ATOM      5  C   UNL     1       9.667   2.805  24.132  0.00  0.00    +0.000 A 
ATOM      6  C   UNL     1       8.396   2.374  24.795  0.00  0.00    +0.000 A 
ATOM      7  C   UNL     1       7.381   1.557  24.214  0.00  0.00    +0.000 A 
ATOM      8  C   UNL     1       7.256   1.226  22.801  0.00  0.00    +0.000 A 
ATOM      9  C   UNL     1       6.973  -0.118  22.498  0.00  0.00    +0.000 A 
ATOM     10  C   UNL     1       7.051  -0.667  21.136  0.00  0.00    +0.000 A 
ENDROOT
BRANCH   9  11
ATOM     11  C   UNL     1       6.855  -1.150  23.636  0.00  0.00    +0.000 C 
BRANCH  11  12
ATOM     12  N   UNL     1       7.979  -1.981  23.686  0.00  0.00    +0.000 NA
ATOM     13  C   UNL     1       7.384  -3.475  23.704  0.00  0.00    +0.000 C 
ATOM     14  C   UNL     1       7.901  -3.688  25.074  0.00  0.00    +0.000 C 
ATOM     15  C   UNL     1       9.193  -4.509  25.193  0.00  0.00    +0.000 C 
ATOM     16  C   UNL     1       9.038  -5.193  26.585  0.00  0.00    +0.000 C 
ATOM     17  O   UNL     1       7.868  -4.729  27.184  0.00  0.00    +0.000 OA
ATOM     18  C   UNL     1       7.038  -4.105  26.198  0.00  0.00    +0.000 C 
ATOM     19  C   UNL     1       8.317  -2.180  25.201  0.00  0.00    +0.000 C 
ENDBRANCH  11  12
ENDBRANCH   9  11
TORSDOF 2
ENDMDL
MODEL 9
REMARK VINA RESULT:      -5.5      2.623      6.180
REMARK  Name = 
REMARK  2 active torsions:
REMARK  status: ('A' for Active; 'I' for Inactive)
REMARK    1  A    between atoms: C_9  and  C_10
REMARK    2  A    between atoms: C_10  and  N_11
REMARK                            x       y       z     vdW  Elec       q    Type
REMARK                         _______ _______ _______ _____ _____    ______ ____
ROOT
ATOM      1  C   UNL     1       5.911  -4.507  26.465  0.00  0.00    +0.000 A 
ATOM      2  C   UNL     1       6.009  -5.489  25.459  0.00  0.00    +0.000 A 
ATOM      3  C   UNL     1       5.806  -5.236  23.953  0.00  0.00    +0.000 A 
ATOM      4  N   UNL     1       5.676  -6.040  23.217  0.00  0.00    +0.000 NA
ATOM      5  C   UNL     1       6.497  -6.308  22.119  0.00  0.00    +0.000 A 
ATOM      6  C   UNL     1       6.863  -4.912  21.722  0.00  0.00    +0.000 A 
ATOM      7  C   UNL     1       6.873  -3.771  22.578  0.00  0.00    +0.000 A 
ATOM      8  C   UNL     1       6.271  -3.692  23.903  0.00  0.00    +0.000 A 
ATOM      9  C   UNL     1       7.047  -3.083  24.905  0.00  0.00    +0.000 A 
ATOM     10  C   UNL     1       6.698  -3.134  26.332  0.00  0.00    +0.000 A 
ENDROOT
BRANCH   9  11
ATOM     11  C   UNL     1       8.466  -2.582  24.575  0.00  0.00    +0.000 C 
BRANCH  11  12
ATOM     12  N   UNL     1       8.692  -1.309  25.108  0.00  0.00    +0.000 NA
ATOM     13  C   UNL     1       7.817  -0.320  24.190  0.00  0.00    +0.000 C 
ATOM     14  C   UNL     1       9.045   0.327  23.677  0.00  0.00    +0.000 C 
ATOM     15  C   UNL     1       9.408   1.685  24.296  0.00  0.00    +0.000 C 
ATOM     16  C   UNL     1      10.147   2.407  23.129  0.00  0.00    +0.000 C 
ATOM     17  O   UNL     1      10.257   1.525  22.055  0.00  0.00    +0.000 OA
ATOM     18  C   UNL     1       9.352   0.430  22.236  0.00  0.00    +0.000 C 
ATOM     19  C   UNL     1       9.955  -0.741  24.381  0.00  0.00    +0.000 C 
ENDBRANCH  11  12
ENDBRANCH   9  11
TORSDOF 2
ENDMDL
