MODEL 1
REMARK VINA RESULT:      -5.9      0.000      0.000
REMARK  Name = 
REMARK  5 active torsions:
REMARK  status: ('A' for Active; 'I' for Inactive)
REMARK    1  A    between atoms: C_2  and  N_3
REMARK    2  A    between atoms: N_3  and  C_4
REMARK    3  A    between atoms: C_4  and  C_5
REMARK    4  A    between atoms: N_8  and  C_9
REMARK    5  A    between atoms: C_9  and  C_10
REMARK                            x       y       z     vdW  Elec       q    Type
REMARK                         _______ _______ _______ _____ _____    ______ ____
ROOT
ATOM      1  C   UNL     1       8.492  -1.390  24.297  0.00  0.00    +0.000 C 
ENDROOT
BRANCH   1   2
ATOM      2  C   UNL     1       9.468  -0.261  24.038  0.00  0.00    +0.000 C 
ATOM      3  N   UNL     1       9.283   0.382  22.838  0.00  0.00    +0.000 N 
ATOM      4  C   UNL     1       8.091   1.240  22.767  0.00  0.00    +0.000 C 
ATOM      5  C   UNL     1       7.559   1.317  21.375  0.00  0.00    +0.000 C 
ATOM      6  N   UNL     1       7.334   0.084  20.743  0.00  0.00    +0.000 NA
ATOM      7  C   UNL     1       7.548   0.237  19.323  0.00  0.00    +0.000 C 
ATOM      8  C   UNL     1       8.149  -0.969  21.213  0.00  0.00    +0.000 C 
ATOM      9  C   UNL     1       9.526  -0.469  21.644  0.00  0.00    +0.000 C 
ATOM     10  O   UNL     1      10.475  -0.104  24.669  0.00  0.00    +0.000 OA
ENDBRANCH   1   2
BRANCH   1  14
ATOM     11  C   UNL     1       9.061  -4.478  26.178  0.00  0.00    +0.000 C 
ATOM     12  N   UNL     1       9.749  -4.550  24.893  0.00  0.00    +0.000 NA
ATOM     13  N   UNL     1       9.460  -3.542  24.198  0.00  0.00    +0.000 NA
ATOM     14  N   UNL     1       9.142  -2.434  25.034  0.00  0.00    +0.000 N 
ATOM     15  C   UNL     1       8.495  -3.006  26.235  0.00  0.00    +0.000 C 
BRANCH  11  16
ATOM     16  C   UNL     1       7.872  -5.417  26.184  0.00  0.00    +0.000 C 
BRANCH  16  17
ATOM     17  N   UNL     1       7.477  -5.684  27.543  0.00  0.00    +0.000 NA
BRANCH  17  19
ATOM     18  C   UNL     1       5.483  -6.182  26.263  0.00  0.00    +0.000 C 
ATOM     19  C   UNL     1       6.038  -5.678  27.589  0.00  0.00    +0.000 C 
ENDBRANCH  17  19
ENDBRANCH  16  17
ENDBRANCH  11  16
ENDBRANCH   1  14
TORSDOF 5
ENDMDL
MODEL 2
REMARK VINA RESULT:      -5.9      2.750      6.288
REMARK  Name = 
REMARK  5 active torsions:
REMARK  status: ('A' for Active; 'I' for Inactive)
REMARK    1  A    between atoms: C_2  and  N_3
REMARK    2  A    between atoms: N_3  and  C_4
REMARK    3  A    between atoms: C_4  and  C_5
REMARK    4  A    between atoms: N_8  and  C_9
REMARK    5  A    between atoms: C_9  and  C_10
REMARK                            x       y       z     vdW  Elec       q    Type
REMARK                         _______ _______ _______ _____ _____    ______ ____
ROOT
ATOM      1  C   UNL     1       8.004  -3.010  24.070  0.00  0.00    +0.000 C 
ENDROOT
BRANCH   1   2
ATOM      2  C   UNL     1       8.385  -4.477  24.064  0.00  0.00    +0.000 C 
ATOM      3  N   UNL     1       7.370  -5.322  23.686  0.00  0.00    +0.000 N 
ATOM      4  C   UNL     1       7.028  -5.286  22.257  0.00  0.00    +0.000 C 
ATOM      5  C   UNL     1       5.588  -5.609  22.033  0.00  0.00    +0.000 C 
ATOM      6  N   UNL     1       4.675  -4.862  22.793  0.00  0.00    +0.000 NA
ATOM      7  C   UNL     1       3.513  -5.674  23.066  0.00  0.00    +0.000 C 
ATOM      8  C   UNL     1       5.189  -4.380  24.016  0.00  0.00    +0.000 C 
ATOM      9  C   UNL     1       6.212  -5.343  24.617  0.00  0.00    +0.000 C 
ATOM     10  O   UNL     1       9.372  -4.902  24.594  0.00  0.00    +0.000 OA
ENDBRANCH   1   2
BRANCH   1  14
ATOM     11  C   UNL     1      10.312  -0.473  22.793  0.00  0.00    +0.000 C 
ATOM     12  N   UNL     1       9.943  -0.155  24.168  0.00  0.00    +0.000 NA
ATOM     13  N   UNL     1       9.062  -0.958  24.569  0.00  0.00    +0.000 NA
ATOM     14  N   UNL     1       9.177  -2.205  23.890  0.00  0.00    +0.000 N 
ATOM     15  C   UNL     1       9.650  -1.880  22.527  0.00  0.00    +0.000 C 
BRANCH  11  16
ATOM     16  C   UNL     1       9.668   0.515  21.841  0.00  0.00    +0.000 C 
BRANCH  16  17
ATOM     17  N   UNL     1       8.927  -0.201  20.835  0.00  0.00    +0.000 NA
BRANCH  17  19
ATOM     18  C   UNL     1       7.365   0.227  19.036  0.00  0.00    +0.000 C 
ATOM     19  C   UNL     1       7.823   0.630  20.432  0.00  0.00    +0.000 C 
ENDBRANCH  17  19
ENDBRANCH  16  17
ENDBRANCH  11  16
ENDBRANCH   1  14
TORSDOF 5
ENDMDL
MODEL 3
REMARK VINA RESULT:      -5.8      2.882      6.426
REMARK  Name = 
REMARK  5 active torsions:
REMARK  status: ('A' for Active; 'I' for Inactive)
REMARK    1  A    between atoms: C_2  and  N_3
REMARK    2  A    between atoms: N_3  and  C_4
REMARK    3  A    between atoms: C_4  and  C_5
REMARK    4  A    between atoms: N_8  and  C_9
REMARK    5  A    between atoms: C_9  and  C_10
REMARK                            x       y       z     vdW  Elec       q    Type
REMARK                         _______ _______ _______ _____ _____    ______ ____
ROOT
ATOM      1  C   UNL     1       7.972  -3.019  23.826  0.00  0.00    +0.000 C 
ENDROOT
BRANCH   1   2
ATOM      2  C   UNL     1       8.330  -4.487  23.938  0.00  0.00    +0.000 C 
ATOM      3  N   UNL     1       7.298  -5.344  23.642  0.00  0.00    +0.000 N 
ATOM      4  C   UNL     1       6.940  -5.420  22.218  0.00  0.00    +0.000 C 
ATOM      5  C   UNL     1       5.493  -5.738  22.037  0.00  0.00    +0.000 C 
ATOM      6  N   UNL     1       4.600  -4.915  22.741  0.00  0.00    +0.000 NA
ATOM      7  C   UNL     1       3.429  -5.684  23.092  0.00  0.00    +0.000 C 
ATOM      8  C   UNL     1       5.136  -4.343  23.915  0.00  0.00    +0.000 C 
ATOM      9  C   UNL     1       6.150  -5.269  24.583  0.00  0.00    +0.000 C 
ATOM     10  O   UNL     1       9.316  -4.883  24.491  0.00  0.00    +0.000 OA
ENDBRANCH   1   2
BRANCH   1  14
ATOM     11  C   UNL     1       9.052  -0.619  21.282  0.00  0.00    +0.000 C 
ATOM     12  N   UNL     1      10.215  -1.133  21.999  0.00  0.00    +0.000 NA
ATOM     13  N   UNL     1       9.838  -1.867  22.949  0.00  0.00    +0.000 NA
ATOM     14  N   UNL     1       8.578  -2.460  22.653  0.00  0.00    +0.000 N 
ATOM     15  C   UNL     1       7.843  -1.464  21.842  0.00  0.00    +0.000 C 
BRANCH  11  16
ATOM     16  C   UNL     1       8.805   0.827  21.662  0.00  0.00    +0.000 C 
BRANCH  16  17
ATOM     17  N   UNL     1      10.063   1.474  21.930  0.00  0.00    +0.000 NA
BRANCH  17  19
ATOM     18  C   UNL     1      10.009   1.614  24.347  0.00  0.00    +0.000 C 
ATOM     19  C   UNL     1       9.864   2.376  23.035  0.00  0.00    +0.000 C 
ENDBRANCH  17  19
ENDBRANCH  16  17
ENDBRANCH  11  16
ENDBRANCH   1  14
TORSDOF 5
ENDMDL
MODEL 4
REMARK VINA RESULT:      -5.6      2.374      6.877
REMARK  Name = 
REMARK  5 active torsions:
REMARK  status: ('A' for Active; 'I' for Inactive)
REMARK    1  A    between atoms: C_2  and  N_3
REMARK    2  A    between atoms: N_3  and  C_4
REMARK    3  A    between atoms: C_4  and  C_5
REMARK    4  A    between atoms: N_8  and  C_9
REMARK    5  A    between atoms: C_9  and  C_10
REMARK                            x       y       z     vdW  Elec       q    Type
REMARK                         _______ _______ _______ _____ _____    ______ ____
ROOT
ATOM      1  C   UNL     1       7.692  -2.323  23.916  0.00  0.00    +0.000 C 
ENDROOT
BRANCH   1   2
ATOM      2  C   UNL     1       8.635  -3.506  23.832  0.00  0.00    +0.000 C 
ATOM      3  N   UNL     1       8.007  -4.727  23.802  0.00  0.00    +0.000 N 
ATOM      4  C   UNL     1       7.314  -5.042  22.544  0.00  0.00    +0.000 C 
ATOM      5  C   UNL     1       6.140  -5.933  22.778  0.00  0.00    +0.000 C 
ATOM      6  N   UNL     1       5.237  -5.499  23.761  0.00  0.00    +0.000 NA
ATOM      7  C   UNL     1       4.641  -6.652  24.395  0.00  0.00    +0.000 C 
ATOM      8  C   UNL     1       5.808  -4.678  24.757  0.00  0.00    +0.000 C 
ATOM      9  C   UNL     1       7.259  -5.062  25.042  0.00  0.00    +0.000 C 
ATOM     10  O   UNL     1       9.811  -3.426  24.046  0.00  0.00    +0.000 OA
ENDBRANCH   1   2
BRANCH   1  14
ATOM     11  C   UNL     1       7.984  -0.135  20.997  0.00  0.00    +0.000 C 
ATOM     12  N   UNL     1       7.511   0.635  22.143  0.00  0.00    +0.000 NA
ATOM     13  N   UNL     1       7.299  -0.136  23.114  0.00  0.00    +0.000 NA
ATOM     14  N   UNL     1       8.137  -1.284  23.034  0.00  0.00    +0.000 N 
ATOM     15  C   UNL     1       8.304  -1.562  21.590  0.00  0.00    +0.000 C 
BRANCH  11  16
ATOM     16  C   UNL     1       6.864  -0.307  19.990  0.00  0.00    +0.000 C 
BRANCH  16  17
ATOM     17  N   UNL     1       7.250   0.288  18.736  0.00  0.00    +0.000 NA
BRANCH  17  19
ATOM     18  C   UNL     1       5.087   1.326  19.056  0.00  0.00    +0.000 C 
ATOM     19  C   UNL     1       6.047   0.694  18.057  0.00  0.00    +0.000 C 
ENDBRANCH  17  19
ENDBRANCH  16  17
ENDBRANCH  11  16
ENDBRANCH   1  14
TORSDOF 5
ENDMDL
MODEL 5
REMARK VINA RESULT:      -5.5      2.755      3.801
REMARK  Name = 
REMARK  5 active torsions:
REMARK  status: ('A' for Active; 'I' for Inactive)
REMARK    1  A    between atoms: C_2  and  N_3
REMARK    2  A    between atoms: N_3  and  C_4
REMARK    3  A    between atoms: C_4  and  C_5
REMARK    4  A    between atoms: N_8  and  C_9
REMARK    5  A    between atoms: C_9  and  C_10
REMARK                            x       y       z     vdW  Elec       q    Type
REMARK                         _______ _______ _______ _____ _____    ______ ____
ROOT
ATOM      1  C   UNL     1       6.691  -1.205  21.897  0.00  0.00    +0.000 C 
ENDROOT
BRANCH   1   2
ATOM      2  C   UNL     1       7.135  -0.420  20.680  0.00  0.00    +0.000 C 
ATOM      3  N   UNL     1       8.001   0.609  20.957  0.00  0.00    +0.000 N 
ATOM      4  C   UNL     1       9.362   0.196  21.331  0.00  0.00    +0.000 C 
ATOM      5  C   UNL     1       9.994   1.181  22.256  0.00  0.00    +0.000 C 
ATOM      6  N   UNL     1       9.238   1.521  23.388  0.00  0.00    +0.000 NA
ATOM      7  C   UNL     1       9.533   2.885  23.760  0.00  0.00    +0.000 C 
ATOM      8  C   UNL     1       7.842   1.390  23.218  0.00  0.00    +0.000 C 
ATOM      9  C   UNL     1       7.416   1.696  21.784  0.00  0.00    +0.000 C 
ATOM     10  O   UNL     1       6.590  -0.494  19.615  0.00  0.00    +0.000 OA
ENDBRANCH   1   2
BRANCH   1  14
ATOM     11  C   UNL     1       6.848  -4.826  22.408  0.00  0.00    +0.000 C 
ATOM     12  N   UNL     1       5.681  -4.493  21.597  0.00  0.00    +0.000 NA
ATOM     13  N   UNL     1       5.560  -3.244  21.518  0.00  0.00    +0.000 NA
ATOM     14  N   UNL     1       6.828  -2.610  21.645  0.00  0.00    +0.000 N 
ATOM     15  C   UNL     1       7.611  -3.455  22.574  0.00  0.00    +0.000 C 
BRANCH  11  16
ATOM     16  C   UNL     1       6.411  -5.267  23.790  0.00  0.00    +0.000 C 
BRANCH  16  17
ATOM     17  N   UNL     1       6.858  -4.305  24.765  0.00  0.00    +0.000 NA
BRANCH  17  19
ATOM     18  C   UNL     1       7.947  -5.140  26.760  0.00  0.00    +0.000 C 
ATOM     19  C   UNL     1       6.617  -4.862  26.071  0.00  0.00    +0.000 C 
ENDBRANCH  17  19
ENDBRANCH  16  17
ENDBRANCH  11  16
ENDBRANCH   1  14
TORSDOF 5
ENDMDL
MODEL 6
REMARK VINA RESULT:      -5.5      1.298      1.501
REMARK  Name = 
REMARK  5 active torsions:
REMARK  status: ('A' for Active; 'I' for Inactive)
REMARK    1  A    between atoms: C_2  and  N_3
REMARK    2  A    between atoms: N_3  and  C_4
REMARK    3  A    between atoms: C_4  and  C_5
REMARK    4  A    between atoms: N_8  and  C_9
REMARK    5  A    between atoms: C_9  and  C_10
REMARK                            x       y       z     vdW  Elec       q    Type
REMARK                         _______ _______ _______ _____ _____    ______ ____
ROOT
ATOM      1  C   UNL     1       8.660  -2.346  23.225  0.00  0.00    +0.000 C 
ENDROOT
BRANCH   1   2
ATOM      2  C   UNL     1       9.789  -1.499  22.676  0.00  0.00    +0.000 C 
ATOM      3  N   UNL     1       9.402  -0.255  22.243  0.00  0.00    +0.000 N 
ATOM      4  C   UNL     1       9.051   0.696  23.308  0.00  0.00    +0.000 C 
ATOM      5  C   UNL     1       8.026   1.677  22.845  0.00  0.00    +0.000 C 
ATOM      6  N   UNL     1       6.877   1.123  22.261  0.00  0.00    +0.000 NA
ATOM      7  C   UNL     1       6.370   2.033  21.260  0.00  0.00    +0.000 C 
ATOM      8  C   UNL     1       7.078  -0.141  21.664  0.00  0.00    +0.000 C 
ATOM      9  C   UNL     1       8.481  -0.272  21.076  0.00  0.00    +0.000 C 
ATOM     10  O   UNL     1      10.863  -1.943  22.385  0.00  0.00    +0.000 OA
ENDBRANCH   1   2
BRANCH   1  14
ATOM     11  C   UNL     1       8.682  -4.166  26.401  0.00  0.00    +0.000 C 
ATOM     12  N   UNL     1       9.030  -5.073  25.312  0.00  0.00    +0.000 NA
ATOM     13  N   UNL     1       8.910  -4.479  24.209  0.00  0.00    +0.000 NA
ATOM     14  N   UNL     1       9.116  -3.080  24.370  0.00  0.00    +0.000 N 
ATOM     15  C   UNL     1       8.598  -2.747  25.716  0.00  0.00    +0.000 C 
BRANCH  11  16
ATOM     16  C   UNL     1       7.299  -4.494  26.927  0.00  0.00    +0.000 C 
BRANCH  16  17
ATOM     17  N   UNL     1       7.024  -5.892  26.716  0.00  0.00    +0.000 NA
BRANCH  17  19
ATOM     18  C   UNL     1       5.039  -6.399  25.427  0.00  0.00    +0.000 C 
ATOM     19  C   UNL     1       5.599  -6.075  26.806  0.00  0.00    +0.000 C 
ENDBRANCH  17  19
ENDBRANCH  16  17
ENDBRANCH  11  16
ENDBRANCH   1  14
TORSDOF 5
ENDMDL
MODEL 7
REMARK VINA RESULT:      -5.3      2.608      3.242
REMARK  Name = 
REMARK  5 active torsions:
REMARK  status: ('A' for Active; 'I' for Inactive)
REMARK    1  A    between atoms: C_2  and  N_3
REMARK    2  A    between atoms: N_3  and  C_4
REMARK    3  A    between atoms: C_4  and  C_5
REMARK    4  A    between atoms: N_8  and  C_9
REMARK    5  A    between atoms: C_9  and  C_10
REMARK                            x       y       z     vdW  Elec       q    Type
REMARK                         _______ _______ _______ _____ _____    ______ ____
ROOT
ATOM      1  C   UNL     1       9.574  -0.242  23.463  0.00  0.00    +0.000 C 
ENDROOT
BRANCH   1   2
ATOM      2  C   UNL     1      10.138   0.740  24.469  0.00  0.00    +0.000 C 
ATOM      3  N   UNL     1       9.558   1.984  24.430  0.00  0.00    +0.000 N 
ATOM      4  C   UNL     1       8.188   2.051  24.958  0.00  0.00    +0.000 C 
ATOM      5  C   UNL     1       7.396   3.122  24.284  0.00  0.00    +0.000 C 
ATOM      6  N   UNL     1       7.398   3.085  22.881  0.00  0.00    +0.000 NA
ATOM      7  C   UNL     1       7.284   4.432  22.374  0.00  0.00    +0.000 C 
ATOM      8  C   UNL     1       8.542   2.482  22.315  0.00  0.00    +0.000 C 
ATOM      9  C   UNL     1       9.789   2.728  23.163  0.00  0.00    +0.000 C 
ATOM     10  O   UNL     1      11.166   0.561  25.058  0.00  0.00    +0.000 OA
ENDBRANCH   1   2
BRANCH   1  14
ATOM     11  C   UNL     1       8.021  -3.489  24.131  0.00  0.00    +0.000 C 
ATOM     12  N   UNL     1       9.474  -3.622  24.162  0.00  0.00    +0.000 NA
ATOM     13  N   UNL     1      10.009  -2.537  23.819  0.00  0.00    +0.000 NA
ATOM     14  N   UNL     1       9.158  -1.439  24.134  0.00  0.00    +0.000 N 
ATOM     15  C   UNL     1       7.775  -1.939  23.967  0.00  0.00    +0.000 C 
BRANCH  11  16
ATOM     16  C   UNL     1       7.465  -4.165  22.895  0.00  0.00    +0.000 C 
BRANCH  16  17
ATOM     17  N   UNL     1       7.216  -5.556  23.179  0.00  0.00    +0.000 NA
BRANCH  17  19
ATOM     18  C   UNL     1       6.255  -5.673  20.960  0.00  0.00    +0.000 C 
ATOM     19  C   UNL     1       6.043  -5.949  22.443  0.00  0.00    +0.000 C 
ENDBRANCH  17  19
ENDBRANCH  16  17
ENDBRANCH  11  16
ENDBRANCH   1  14
TORSDOF 5
ENDMDL
MODEL 8
REMARK VINA RESULT:      -5.2      2.225      2.803
REMARK  Name = 
REMARK  5 active torsions:
REMARK  status: ('A' for Active; 'I' for Inactive)
REMARK    1  A    between atoms: C_2  and  N_3
REMARK    2  A    between atoms: N_3  and  C_4
REMARK    3  A    between atoms: C_4  and  C_5
REMARK    4  A    between atoms: N_8  and  C_9
REMARK    5  A    between atoms: C_9  and  C_10
REMARK                            x       y       z     vdW  Elec       q    Type
REMARK                         _______ _______ _______ _____ _____    ______ ____
ROOT
ATOM      1  C   UNL     1       8.885  -1.916  25.265  0.00  0.00    +0.000 C 
ENDROOT
BRANCH   1   2
ATOM      2  C   UNL     1       9.453  -2.807  24.179  0.00  0.00    +0.000 C 
ATOM      3  N   UNL     1       9.368  -2.279  22.914  0.00  0.00    +0.000 N 
ATOM      4  C   UNL     1      10.286  -1.164  22.640  0.00  0.00    +0.000 C 
ATOM      5  C   UNL     1       9.713  -0.222  21.634  0.00  0.00    +0.000 C 
ATOM      6  N   UNL     1       8.417   0.243  21.909  0.00  0.00    +0.000 NA
ATOM      7  C   UNL     1       7.728   0.484  20.663  0.00  0.00    +0.000 C 
ATOM      8  C   UNL     1       7.637  -0.633  22.696  0.00  0.00    +0.000 C 
ATOM      9  C   UNL     1       7.978  -2.096  22.419  0.00  0.00    +0.000 C 
ATOM     10  O   UNL     1       9.703  -3.968  24.344  0.00  0.00    +0.000 OA
ENDBRANCH   1   2
BRANCH   1  14
ATOM     11  C   UNL     1       6.442  -4.437  26.301  0.00  0.00    +0.000 C 
ATOM     12  N   UNL     1       7.667  -4.589  27.080  0.00  0.00    +0.000 NA
ATOM     13  N   UNL     1       8.547  -3.802  26.647  0.00  0.00    +0.000 NA
ATOM     14  N   UNL     1       7.945  -2.655  26.056  0.00  0.00    +0.000 N 
ATOM     15  C   UNL     1       6.680  -3.129  25.451  0.00  0.00    +0.000 C 
BRANCH  11  16
ATOM     16  C   UNL     1       6.301  -5.588  25.326  0.00  0.00    +0.000 C 
BRANCH  16  17
ATOM     17  N   UNL     1       6.520  -5.110  23.985  0.00  0.00    +0.000 NA
BRANCH  17  19
ATOM     18  C   UNL     1       6.397  -5.953  21.719  0.00  0.00    +0.000 C 
ATOM     19  C   UNL     1       5.745  -5.936  23.095  0.00  0.00    +0.000 C 
ENDBRANCH  17  19
ENDBRANCH  16  17
ENDBRANCH  11  16
ENDBRANCH   1  14
TORSDOF 5
ENDMDL
MODEL 9
REMARK VINA RESULT:      -5.2      2.077      2.717
REMARK  Name = 
REMARK  5 active torsions:
REMARK  status: ('A' for Active; 'I' for Inactive)
REMARK    1  A    between atoms: C_2  and  N_3
REMARK    2  A    between atoms: N_3  and  C_4
REMARK    3  A    between atoms: C_4  and  C_5
REMARK    4  A    between atoms: N_8  and  C_9
REMARK    5  A    between atoms: C_9  and  C_10
REMARK                            x       y       z     vdW  Elec       q    Type
REMARK                         _______ _______ _______ _____ _____    ______ ____
ROOT
ATOM      1  C   UNL     1       8.472  -1.652  22.494  0.00  0.00    +0.000 C 
ENDROOT
BRANCH   1   2
ATOM      2  C   UNL     1       9.917  -1.217  22.633  0.00  0.00    +0.000 C 
ATOM      3  N   UNL     1      10.077   0.092  23.016  0.00  0.00    +0.000 N 
ATOM      4  C   UNL     1       9.735   0.378  24.417  0.00  0.00    +0.000 C 
ATOM      5  C   UNL     1       9.247   1.779  24.583  0.00  0.00    +0.000 C 
ATOM      6  N   UNL     1       8.211   2.166  23.718  0.00  0.00    +0.000 NA
ATOM      7  C   UNL     1       8.330   3.578  23.443  0.00  0.00    +0.000 C 
ATOM      8  C   UNL     1       8.182   1.465  22.492  0.00  0.00    +0.000 C 
ATOM      9  C   UNL     1       9.586   1.086  22.026  0.00  0.00    +0.000 C 
ATOM     10  O   UNL     1      10.838  -1.845  22.194  0.00  0.00    +0.000 OA
ENDBRANCH   1   2
BRANCH   1  14
ATOM     11  C   UNL     1       7.532  -4.857  23.992  0.00  0.00    +0.000 C 
ATOM     12  N   UNL     1       6.935  -4.740  22.666  0.00  0.00    +0.000 NA
ATOM     13  N   UNL     1       7.160  -3.594  22.198  0.00  0.00    +0.000 NA
ATOM     14  N   UNL     1       8.365  -3.062  22.737  0.00  0.00    +0.000 N 
ATOM     15  C   UNL     1       8.455  -3.583  24.118  0.00  0.00    +0.000 C 
BRANCH  11  16
ATOM     16  C   UNL     1       6.460  -4.743  25.056  0.00  0.00    +0.000 C 
BRANCH  16  17
ATOM     17  N   UNL     1       6.647  -5.778  26.040  0.00  0.00    +0.000 NA
BRANCH  17  19
ATOM     18  C   UNL     1       4.607  -6.823  25.261  0.00  0.00    +0.000 C 
ATOM     19  C   UNL     1       5.343  -6.228  26.454  0.00  0.00    +0.000 C 
ENDBRANCH  17  19
ENDBRANCH  16  17
ENDBRANCH  11  16
ENDBRANCH   1  14
TORSDOF 5
ENDMDL
