MODEL 1
REMARK VINA RESULT:      -6.4      0.000      0.000
REMARK  Name = 
REMARK  2 active torsions:
REMARK  status: ('A' for Active; 'I' for Inactive)
REMARK    1  A    between atoms: C_4  and  C_5
REMARK    2  A    between atoms: C_5  and  N_6
REMARK                            x       y       z     vdW  Elec       q    Type
REMARK                         _______ _______ _______ _____ _____    ______ ____
ROOT
ATOM      1  N   UNL     1       8.204  -3.797  23.327  0.00  0.00    +0.000 NA
ATOM      2  C   UNL     1       7.415  -4.926  22.914  0.00  0.00    +0.000 C 
ATOM      3  C   UNL     1       6.149  -4.958  23.718  0.00  0.00    +0.000 C 
ATOM      4  C   UNL     1       5.183  -3.855  23.259  0.00  0.00    +0.000 C 
ATOM      5  O   UNL     1       4.078  -4.493  22.669  0.00  0.00    +0.000 OA
ATOM      6  C   UNL     1       3.929  -5.778  23.227  0.00  0.00    +0.000 C 
ATOM      7  C   UNL     1       5.381  -6.277  23.492  0.00  0.00    +0.000 C 
ATOM      8  C   UNL     1       6.447  -4.797  25.194  0.00  0.00    +0.000 C 
ATOM      9  C   UNL     1       7.947  -5.021  25.417  0.00  0.00    +0.000 C 
ATOM     10  C   UNL     1       8.719  -3.982  24.613  0.00  0.00    +0.000 C 
ENDROOT
BRANCH   1  11
ATOM     11  C   UNL     1       7.614  -2.617  23.032  0.00  0.00    +0.000 C 
BRANCH  11  15
ATOM     12  C   UNL     1      10.008   1.146  22.601  0.00  0.00    +0.000 C 
ATOM     13  C   UNL     1       9.636   0.167  21.506  0.00  0.00    +0.000 C 
ATOM     14  C   UNL     1       9.206  -1.134  22.001  0.00  0.00    +0.000 C 
ATOM     15  C   UNL     1       7.923  -1.685  22.059  0.00  0.00    +0.000 C 
ATOM     16  N   UNL     1       6.833  -1.321  21.301  0.00  0.00    +0.000 NA
ATOM     17  C   UNL     1       7.330  -0.376  20.548  0.00  0.00    +0.000 C 
ATOM     18  C   UNL     1       8.207   0.727  20.933  0.00  0.00    +0.000 C 
ENDBRANCH  11  15
ENDBRANCH   1  11
TORSDOF 2
ENDMDL
MODEL 2
REMARK VINA RESULT:      -6.3      1.227      1.472
REMARK  Name = 
REMARK  2 active torsions:
REMARK  status: ('A' for Active; 'I' for Inactive)
REMARK    1  A    between atoms: C_4  and  C_5
REMARK    2  A    between atoms: C_5  and  N_6
REMARK                            x       y       z     vdW  Elec       q    Type
REMARK                         _______ _______ _______ _____ _____    ______ ____
ROOT
ATOM      1  N   UNL     1       8.759  -4.120  24.095  0.00  0.00    +0.000 NA
ATOM      2  C   UNL     1       7.872  -5.043  23.441  0.00  0.00    +0.000 C 
ATOM      3  C   UNL     1       6.489  -4.867  23.993  0.00  0.00    +0.000 C 
ATOM      4  C   UNL     1       5.854  -3.569  23.470  0.00  0.00    +0.000 C 
ATOM      5  O   UNL     1       4.789  -3.939  22.631  0.00  0.00    +0.000 OA
ATOM      6  C   UNL     1       4.297  -5.198  23.030  0.00  0.00    +0.000 C 
ATOM      7  C   UNL     1       5.550  -5.991  23.508  0.00  0.00    +0.000 C 
ATOM      8  C   UNL     1       6.513  -4.852  25.508  0.00  0.00    +0.000 C 
ATOM      9  C   UNL     1       7.872  -5.384  25.979  0.00  0.00    +0.000 C 
ATOM     10  C   UNL     1       8.966  -4.476  25.431  0.00  0.00    +0.000 C 
ENDROOT
BRANCH   1  11
ATOM     11  C   UNL     1       8.468  -2.831  23.810  0.00  0.00    +0.000 C 
BRANCH  11  15
ATOM     12  C   UNL     1       9.938   1.337  24.546  0.00  0.00    +0.000 C 
ATOM     13  C   UNL     1      10.565   0.291  23.649  0.00  0.00    +0.000 C 
ATOM     14  C   UNL     1      10.101  -1.065  23.912  0.00  0.00    +0.000 C 
ATOM     15  C   UNL     1       9.228  -1.866  23.173  0.00  0.00    +0.000 C 
ATOM     16  N   UNL     1       8.923  -1.742  21.837  0.00  0.00    +0.000 NA
ATOM     17  C   UNL     1       9.662  -0.724  21.483  0.00  0.00    +0.000 C 
ATOM     18  C   UNL     1       9.865   0.539  22.188  0.00  0.00    +0.000 C 
ENDBRANCH  11  15
ENDBRANCH   1  11
TORSDOF 2
ENDMDL
MODEL 3
REMARK VINA RESULT:      -6.3      1.801      2.733
REMARK  Name = 
REMARK  2 active torsions:
REMARK  status: ('A' for Active; 'I' for Inactive)
REMARK    1  A    between atoms: C_4  and  C_5
REMARK    2  A    between atoms: C_5  and  N_6
REMARK                            x       y       z     vdW  Elec       q    Type
REMARK                         _______ _______ _______ _____ _____    ______ ____
ROOT
ATOM      1  N   UNL     1       6.618  -3.129  22.433  0.00  0.00    +0.000 NA
ATOM      2  C   UNL     1       6.359  -3.547  23.784  0.00  0.00    +0.000 C 
ATOM      3  C   UNL     1       7.403  -4.541  24.197  0.00  0.00    +0.000 C 
ATOM      4  C   UNL     1       8.749  -3.845  24.454  0.00  0.00    +0.000 C 
ATOM      5  O   UNL     1       9.011  -3.948  25.831  0.00  0.00    +0.000 OA
ATOM      6  C   UNL     1       8.369  -5.092  26.343  0.00  0.00    +0.000 C 
ATOM      7  C   UNL     1       7.038  -5.205  25.541  0.00  0.00    +0.000 C 
ATOM      8  C   UNL     1       7.574  -5.612  23.139  0.00  0.00    +0.000 C 
ATOM      9  C   UNL     1       6.382  -5.540  22.176  0.00  0.00    +0.000 C 
ATOM     10  C   UNL     1       6.365  -4.162  21.526  0.00  0.00    +0.000 C 
ENDROOT
BRANCH   1  11
ATOM     11  C   UNL     1       7.774  -2.438  22.317  0.00  0.00    +0.000 C 
BRANCH  11  15
ATOM     12  C   UNL     1      10.160   1.291  23.010  0.00  0.00    +0.000 C 
ATOM     13  C   UNL     1       9.721   0.720  21.678  0.00  0.00    +0.000 C 
ATOM     14  C   UNL     1       9.312  -0.678  21.742  0.00  0.00    +0.000 C 
ATOM     15  C   UNL     1       8.033  -1.234  21.687  0.00  0.00    +0.000 C 
ATOM     16  N   UNL     1       6.903  -0.657  21.153  0.00  0.00    +0.000 NA
ATOM     17  C   UNL     1       7.361   0.489  20.724  0.00  0.00    +0.000 C 
ATOM     18  C   UNL     1       8.264   1.416  21.401  0.00  0.00    +0.000 C 
ENDBRANCH  11  15
ENDBRANCH   1  11
TORSDOF 2
ENDMDL
MODEL 4
REMARK VINA RESULT:      -6.3      1.671      2.451
REMARK  Name = 
REMARK  2 active torsions:
REMARK  status: ('A' for Active; 'I' for Inactive)
REMARK    1  A    between atoms: C_4  and  C_5
REMARK    2  A    between atoms: C_5  and  N_6
REMARK                            x       y       z     vdW  Elec       q    Type
REMARK                         _______ _______ _______ _____ _____    ______ ____
ROOT
ATOM      1  N   UNL     1       5.583  -3.458  21.995  0.00  0.00    +0.000 NA
ATOM      2  C   UNL     1       4.993  -4.183  23.088  0.00  0.00    +0.000 C 
ATOM      3  C   UNL     1       6.083  -4.826  23.894  0.00  0.00    +0.000 C 
ATOM      4  C   UNL     1       6.836  -3.777  24.727  0.00  0.00    +0.000 C 
ATOM      5  O   UNL     1       6.550  -4.040  26.078  0.00  0.00    +0.000 OA
ATOM      6  C   UNL     1       6.251  -5.408  26.233  0.00  0.00    +0.000 C 
ATOM      7  C   UNL     1       5.501  -5.812  24.928  0.00  0.00    +0.000 C 
ATOM      8  C   UNL     1       7.055  -5.559  22.993  0.00  0.00    +0.000 C 
ATOM      9  C   UNL     1       6.414  -5.715  21.608  0.00  0.00    +0.000 C 
ATOM     10  C   UNL     1       6.127  -4.328  21.046  0.00  0.00    +0.000 C 
ENDROOT
BRANCH   1  11
ATOM     11  C   UNL     1       6.328  -2.409  22.411  0.00  0.00    +0.000 C 
BRANCH  11  15
ATOM     12  C   UNL     1      10.258  -0.479  23.359  0.00  0.00    +0.000 C 
ATOM     13  C   UNL     1       9.807  -1.027  22.022  0.00  0.00    +0.000 C 
ATOM     14  C   UNL     1       8.668  -1.931  22.109  0.00  0.00    +0.000 C 
ATOM     15  C   UNL     1       7.332  -1.717  21.760  0.00  0.00    +0.000 C 
ATOM     16  N   UNL     1       6.849  -0.775  20.881  0.00  0.00    +0.000 NA
ATOM     17  C   UNL     1       7.946  -0.187  20.483  0.00  0.00    +0.000 C 
ATOM     18  C   UNL     1       9.086   0.248  21.286  0.00  0.00    +0.000 C 
ENDBRANCH  11  15
ENDBRANCH   1  11
TORSDOF 2
ENDMDL
MODEL 5
REMARK VINA RESULT:      -6.3      1.997      5.491
REMARK  Name = 
REMARK  2 active torsions:
REMARK  status: ('A' for Active; 'I' for Inactive)
REMARK    1  A    between atoms: C_4  and  C_5
REMARK    2  A    between atoms: C_5  and  N_6
REMARK                            x       y       z     vdW  Elec       q    Type
REMARK                         _______ _______ _______ _____ _____    ______ ____
ROOT
ATOM      1  N   UNL     1       8.100  -1.665  24.190  0.00  0.00    +0.000 NA
ATOM      2  C   UNL     1       8.156  -0.395  23.518  0.00  0.00    +0.000 C 
ATOM      3  C   UNL     1       8.375  -0.627  22.052  0.00  0.00    +0.000 C 
ATOM      4  C   UNL     1       7.096  -1.156  21.385  0.00  0.00    +0.000 C 
ATOM      5  O   UNL     1       6.640  -0.152  20.513  0.00  0.00    +0.000 OA
ATOM      6  C   UNL     1       7.734   0.629  20.090  0.00  0.00    +0.000 C 
ATOM      7  C   UNL     1       8.687   0.695  21.321  0.00  0.00    +0.000 C 
ATOM      8  C   UNL     1       9.511  -1.604  21.828  0.00  0.00    +0.000 C 
ATOM      9  C   UNL     1      10.295  -1.750  23.138  0.00  0.00    +0.000 C 
ATOM     10  C   UNL     1       9.353  -2.282  24.212  0.00  0.00    +0.000 C 
ENDROOT
BRANCH   1  11
ATOM     11  C   UNL     1       7.026  -2.399  23.823  0.00  0.00    +0.000 C 
BRANCH  11  15
ATOM     12  C   UNL     1       6.201  -5.731  20.943  0.00  0.00    +0.000 C 
ATOM     13  C   UNL     1       6.878  -5.835  22.294  0.00  0.00    +0.000 C 
ATOM     14  C   UNL     1       7.354  -4.560  22.814  0.00  0.00    +0.000 C 
ATOM     15  C   UNL     1       6.835  -3.769  23.842  0.00  0.00    +0.000 C 
ATOM     16  N   UNL     1       6.018  -4.181  24.870  0.00  0.00    +0.000 NA
ATOM     17  C   UNL     1       5.895  -5.458  24.623  0.00  0.00    +0.000 C 
ATOM     18  C   UNL     1       5.650  -6.115  23.341  0.00  0.00    +0.000 C 
ENDBRANCH  11  15
ENDBRANCH   1  11
TORSDOF 2
ENDMDL
MODEL 6
REMARK VINA RESULT:      -6.2      1.589      2.123
REMARK  Name = 
REMARK  2 active torsions:
REMARK  status: ('A' for Active; 'I' for Inactive)
REMARK    1  A    between atoms: C_4  and  C_5
REMARK    2  A    between atoms: C_5  and  N_6
REMARK                            x       y       z     vdW  Elec       q    Type
REMARK                         _______ _______ _______ _____ _____    ______ ____
ROOT
ATOM      1  N   UNL     1       8.072  -3.239  24.463  0.00  0.00    +0.000 NA
ATOM      2  C   UNL     1       8.177  -4.343  23.548  0.00  0.00    +0.000 C 
ATOM      3  C   UNL     1       6.798  -4.786  23.156  0.00  0.00    +0.000 C 
ATOM      4  C   UNL     1       6.156  -3.780  22.188  0.00  0.00    +0.000 C 
ATOM      5  O   UNL     1       6.032  -4.424  20.946  0.00  0.00    +0.000 OA
ATOM      6  C   UNL     1       5.928  -5.814  21.150  0.00  0.00    +0.000 C 
ATOM      7  C   UNL     1       6.844  -6.115  22.374  0.00  0.00    +0.000 C 
ATOM      8  C   UNL     1       5.920  -4.953  24.379  0.00  0.00    +0.000 C 
ATOM      9  C   UNL     1       6.816  -4.973  25.624  0.00  0.00    +0.000 C 
ATOM     10  C   UNL     1       7.571  -3.652  25.701  0.00  0.00    +0.000 C 
ENDROOT
BRANCH   1  11
ATOM     11  C   UNL     1       7.539  -2.138  23.887  0.00  0.00    +0.000 C 
BRANCH  11  15
ATOM     12  C   UNL     1       7.913   0.053  19.997  0.00  0.00    +0.000 C 
ATOM     13  C   UNL     1       8.058   0.630  21.389  0.00  0.00    +0.000 C 
ATOM     14  C   UNL     1       7.503  -0.216  22.438  0.00  0.00    +0.000 C 
ATOM     15  C   UNL     1       8.158  -1.009  23.383  0.00  0.00    +0.000 C 
ATOM     16  N   UNL     1       9.456  -0.870  23.820  0.00  0.00    +0.000 NA
ATOM     17  C   UNL     1       9.861   0.171  23.142  0.00  0.00    +0.000 C 
ATOM     18  C   UNL     1       9.653   0.470  21.728  0.00  0.00    +0.000 C 
ENDBRANCH  11  15
ENDBRANCH   1  11
TORSDOF 2
ENDMDL
MODEL 7
REMARK VINA RESULT:      -6.2      2.756      6.411
REMARK  Name = 
REMARK  2 active torsions:
REMARK  status: ('A' for Active; 'I' for Inactive)
REMARK    1  A    between atoms: C_4  and  C_5
REMARK    2  A    between atoms: C_5  and  N_6
REMARK                            x       y       z     vdW  Elec       q    Type
REMARK                         _______ _______ _______ _____ _____    ______ ____
ROOT
ATOM      1  N   UNL     1       8.499  -1.964  22.311  0.00  0.00    +0.000 NA
ATOM      2  C   UNL     1       9.459  -0.970  21.913  0.00  0.00    +0.000 C 
ATOM      3  C   UNL     1       9.090   0.344  22.535  0.00  0.00    +0.000 C 
ATOM      4  C   UNL     1       9.409   0.344  24.038  0.00  0.00    +0.000 C 
ATOM      5  O   UNL     1      10.455   1.261  24.239  0.00  0.00    +0.000 OA
ATOM      6  C   UNL     1      10.412   2.244  23.230  0.00  0.00    +0.000 C 
ATOM      7  C   UNL     1       9.938   1.493  21.950  0.00  0.00    +0.000 C 
ATOM      8  C   UNL     1       7.621   0.645  22.323  0.00  0.00    +0.000 C 
ATOM      9  C   UNL     1       7.082  -0.298  21.239  0.00  0.00    +0.000 C 
ATOM     10  C   UNL     1       7.256  -1.735  21.715  0.00  0.00    +0.000 C 
ENDROOT
BRANCH   1  11
ATOM     11  C   UNL     1       8.540  -2.221  23.638  0.00  0.00    +0.000 C 
BRANCH  11  15
ATOM     12  C   UNL     1       6.432  -4.073  27.131  0.00  0.00    +0.000 C 
ATOM     13  C   UNL     1       7.030  -4.790  25.938  0.00  0.00    +0.000 C 
ATOM     14  C   UNL     1       7.290  -3.920  24.798  0.00  0.00    +0.000 C 
ATOM     15  C   UNL     1       8.503  -3.428  24.312  0.00  0.00    +0.000 C 
ATOM     16  N   UNL     1       9.754  -3.961  24.523  0.00  0.00    +0.000 NA
ATOM     17  C   UNL     1       9.483  -5.009  25.255  0.00  0.00    +0.000 C 
ATOM     18  C   UNL     1       8.571  -5.111  26.391  0.00  0.00    +0.000 C 
ENDBRANCH  11  15
ENDBRANCH   1  11
TORSDOF 2
ENDMDL
MODEL 8
REMARK VINA RESULT:      -6.2      2.364      6.343
REMARK  Name = 
REMARK  2 active torsions:
REMARK  status: ('A' for Active; 'I' for Inactive)
REMARK    1  A    between atoms: C_4  and  C_5
REMARK    2  A    between atoms: C_5  and  N_6
REMARK                            x       y       z     vdW  Elec       q    Type
REMARK                         _______ _______ _______ _____ _____    ______ ____
ROOT
ATOM      1  N   UNL     1       7.870  -1.212  21.508  0.00  0.00    +0.000 NA
ATOM      2  C   UNL     1       9.117  -0.499  21.570  0.00  0.00    +0.000 C 
ATOM      3  C   UNL     1       8.879   0.849  22.183  0.00  0.00    +0.000 C 
ATOM      4  C   UNL     1       8.639   0.726  23.695  0.00  0.00    +0.000 C 
ATOM      5  O   UNL     1       9.735   1.328  24.338  0.00  0.00    +0.000 OA
ATOM      6  C   UNL     1      10.287   2.312  23.494  0.00  0.00    +0.000 C 
ATOM      7  C   UNL     1      10.128   1.746  22.051  0.00  0.00    +0.000 C 
ATOM      8  C   UNL     1       7.697   1.535  21.530  0.00  0.00    +0.000 C 
ATOM      9  C   UNL     1       7.364   0.798  20.227  0.00  0.00    +0.000 C 
ATOM     10  C   UNL     1       7.009  -0.646  20.563  0.00  0.00    +0.000 C 
ENDROOT
BRANCH   1  11
ATOM     11  C   UNL     1       7.378  -1.505  22.733  0.00  0.00    +0.000 C 
BRANCH  11  15
ATOM     12  C   UNL     1       6.700  -5.808  21.683  0.00  0.00    +0.000 C 
ATOM     13  C   UNL     1       7.381  -5.265  22.922  0.00  0.00    +0.000 C 
ATOM     14  C   UNL     1       7.801  -3.874  22.802  0.00  0.00    +0.000 C 
ATOM     15  C   UNL     1       7.247  -2.725  23.371  0.00  0.00    +0.000 C 
ATOM     16  N   UNL     1       6.449  -2.660  24.490  0.00  0.00    +0.000 NA
ATOM     17  C   UNL     1       6.381  -3.914  24.848  0.00  0.00    +0.000 C 
ATOM     18  C   UNL     1       6.166  -5.089  24.006  0.00  0.00    +0.000 C 
ENDBRANCH  11  15
ENDBRANCH   1  11
TORSDOF 2
ENDMDL
MODEL 9
REMARK VINA RESULT:      -6.2      2.078      5.816
REMARK  Name = 
REMARK  2 active torsions:
REMARK  status: ('A' for Active; 'I' for Inactive)
REMARK    1  A    between atoms: C_4  and  C_5
REMARK    2  A    between atoms: C_5  and  N_6
REMARK                            x       y       z     vdW  Elec       q    Type
REMARK                         _______ _______ _______ _____ _____    ______ ____
ROOT
ATOM      1  N   UNL     1       9.183  -0.808  23.968  0.00  0.00    +0.000 NA
ATOM      2  C   UNL     1       8.088   0.009  23.522  0.00  0.00    +0.000 C 
ATOM      3  C   UNL     1       8.304   0.372  22.082  0.00  0.00    +0.000 C 
ATOM      4  C   UNL     1       8.042  -0.836  21.170  0.00  0.00    +0.000 C 
ATOM      5  O   UNL     1       6.893  -0.543  20.415  0.00  0.00    +0.000 OA
ATOM      6  C   UNL     1       6.771   0.854  20.277  0.00  0.00    +0.000 C 
ATOM      7  C   UNL     1       7.292   1.443  21.622  0.00  0.00    +0.000 C 
ATOM      8  C   UNL     1       9.712   0.885  21.863  0.00  0.00    +0.000 C 
ATOM      9  C   UNL     1      10.330   1.209  23.229  0.00  0.00    +0.000 C 
ATOM     10  C   UNL     1      10.363  -0.065  24.063  0.00  0.00    +0.000 C 
ENDROOT
BRANCH   1  11
ATOM     11  C   UNL     1       9.224  -2.007  23.344  0.00  0.00    +0.000 C 
BRANCH  11  15
ATOM     12  C   UNL     1       5.649  -4.052  25.109  0.00  0.00    +0.000 C 
ATOM     13  C   UNL     1       6.778  -4.693  24.329  0.00  0.00    +0.000 C 
ATOM     14  C   UNL     1       7.573  -3.746  23.558  0.00  0.00    +0.000 C 
ATOM     15  C   UNL     1       8.861  -3.261  23.799  0.00  0.00    +0.000 C 
ATOM     16  N   UNL     1       9.835  -3.852  24.570  0.00  0.00    +0.000 NA
ATOM     17  C   UNL     1       9.239  -4.944  24.970  0.00  0.00    +0.000 C 
ATOM     18  C   UNL     1       7.877  -5.104  25.472  0.00  0.00    +0.000 C 
ENDBRANCH  11  15
ENDBRANCH   1  11
TORSDOF 2
ENDMDL
