MODEL 1
REMARK VINA RESULT:      -6.5      0.000      0.000
REMARK  Name = 
REMARK  6 active torsions:
REMARK  status: ('A' for Active; 'I' for Inactive)
REMARK    1  A    between atoms: C_2  and  C_3
REMARK    2  A    between atoms: C_6  and  C_7
REMARK    3  A    between atoms: C_7  and  N_8
REMARK    4  A    between atoms: N_11  and  C_12
REMARK    5  A    between atoms: C_12  and  C_13
REMARK    6  A    between atoms: C_13  and  C_14
REMARK                            x       y       z     vdW  Elec       q    Type
REMARK                         _______ _______ _______ _____ _____    ______ ____
ROOT
ATOM      1  N   UNL     1       8.484  -1.850  26.048  0.00  0.00    +0.000 NA
ATOM      2  C   UNL     1       7.220  -1.322  26.482  0.00  0.00    +0.000 C 
ATOM      3  C   UNL     1       6.122  -2.074  25.740  0.00  0.00    +0.000 C 
ATOM      4  N   UNL     1       6.149  -3.445  26.040  0.00  0.00    +0.000 NA
ATOM      5  C   UNL     1       7.311  -3.953  26.542  0.00  0.00    +0.000 C 
ATOM      6  C   UNL     1       8.586  -3.195  26.406  0.00  0.00    +0.000 C 
ENDROOT
BRANCH   1   7
ATOM      7  C   UNL     1       8.695  -1.555  24.702  0.00  0.00    +0.000 C 
BRANCH   7  11
ATOM      8  C   UNL     1       9.972   1.705  22.006  0.00  0.00    +0.000 C 
ATOM      9  C   UNL     1       9.985   0.096  21.997  0.00  0.00    +0.000 C 
ATOM     10  C   UNL     1      10.343  -0.842  22.915  0.00  0.00    +0.000 C 
ATOM     11  C   UNL     1       9.913  -0.699  24.398  0.00  0.00    +0.000 C 
ATOM     12  C   UNL     1       9.730   0.765  24.419  0.00  0.00    +0.000 C 
ATOM     13  C   UNL     1      10.266   1.829  23.587  0.00  0.00    +0.000 C 
BRANCH   8  15
ATOM     14  C   UNL     1       7.812   1.031  20.946  0.00  0.00    +0.000 C 
ATOM     15  C   UNL     1       8.455   2.014  21.913  0.00  0.00    +0.000 C 
ENDBRANCH   8  15
ENDBRANCH   7  11
ENDBRANCH   1   7
BRANCH   4  16
ATOM     16  C   UNL     1       5.624  -4.193  24.928  0.00  0.00    +0.000 C 
BRANCH  16  17
ATOM     17  C   UNL     1       6.695  -5.125  24.408  0.00  0.00    +0.000 C 
BRANCH  17  18
ATOM     18  C   UNL     1       7.282  -4.730  23.105  0.00  0.00    +0.000 C 
ATOM     19  S   UNL     1       6.033  -3.613  22.223  0.00  0.00    +0.000 S 
ATOM     20  N   UNL     1       5.757  -4.522  20.912  0.00  0.00    +0.000 NA
ATOM     21  C   UNL     1       6.188  -5.678  21.117  0.00  0.00    +0.000 C 
ATOM     22  C   UNL     1       7.272  -5.939  22.113  0.00  0.00    +0.000 C 
ENDBRANCH  17  18
ENDBRANCH  16  17
ENDBRANCH   4  16
TORSDOF 6
ENDMDL
MODEL 2
REMARK VINA RESULT:      -6.5      1.981      3.387
REMARK  Name = 
REMARK  6 active torsions:
REMARK  status: ('A' for Active; 'I' for Inactive)
REMARK    1  A    between atoms: C_2  and  C_3
REMARK    2  A    between atoms: C_6  and  C_7
REMARK    3  A    between atoms: C_7  and  N_8
REMARK    4  A    between atoms: N_11  and  C_12
REMARK    5  A    between atoms: C_12  and  C_13
REMARK    6  A    between atoms: C_13  and  C_14
REMARK                            x       y       z     vdW  Elec       q    Type
REMARK                         _______ _______ _______ _____ _____    ______ ____
ROOT
ATOM      1  N   UNL     1       7.579  -0.957  22.534  0.00  0.00    +0.000 NA
ATOM      2  C   UNL     1       6.656  -1.419  21.532  0.00  0.00    +0.000 C 
ATOM      3  C   UNL     1       6.351  -2.883  21.821  0.00  0.00    +0.000 C 
ATOM      4  N   UNL     1       5.746  -3.041  23.078  0.00  0.00    +0.000 NA
ATOM      5  C   UNL     1       5.908  -2.032  23.981  0.00  0.00    +0.000 C 
ATOM      6  C   UNL     1       6.982  -1.017  23.793  0.00  0.00    +0.000 C 
ENDROOT
BRANCH   1   7
ATOM      7  C   UNL     1       8.802  -1.611  22.402  0.00  0.00    +0.000 C 
BRANCH   7  11
ATOM      8  C   UNL     1      10.027   2.397  23.802  0.00  0.00    +0.000 C 
ATOM      9  C   UNL     1       9.473   1.744  22.439  0.00  0.00    +0.000 C 
ATOM     10  C   UNL     1       9.797   0.623  21.740  0.00  0.00    +0.000 C 
ATOM     11  C   UNL     1      10.034  -0.723  22.473  0.00  0.00    +0.000 C 
ATOM     12  C   UNL     1      10.395  -0.177  23.795  0.00  0.00    +0.000 C 
ATOM     13  C   UNL     1      10.916   1.115  24.210  0.00  0.00    +0.000 C 
BRANCH   8  15
ATOM     14  C   UNL     1       7.550   2.678  23.965  0.00  0.00    +0.000 C 
ATOM     15  C   UNL     1       8.798   2.277  24.738  0.00  0.00    +0.000 C 
ENDBRANCH   8  15
ENDBRANCH   7  11
ENDBRANCH   1   7
BRANCH   4  16
ATOM     16  C   UNL     1       6.059  -4.343  23.604  0.00  0.00    +0.000 C 
BRANCH  16  17
ATOM     17  C   UNL     1       7.513  -4.653  23.328  0.00  0.00    +0.000 C 
BRANCH  17  18
ATOM     18  C   UNL     1       8.278  -5.135  24.503  0.00  0.00    +0.000 C 
ATOM     19  S   UNL     1       7.071  -5.301  25.952  0.00  0.00    +0.000 S 
ATOM     20  N   UNL     1       7.739  -4.230  26.967  0.00  0.00    +0.000 NA
ATOM     21  C   UNL     1       8.547  -3.515  26.333  0.00  0.00    +0.000 C 
ATOM     22  C   UNL     1       9.185  -3.994  25.069  0.00  0.00    +0.000 C 
ENDBRANCH  17  18
ENDBRANCH  16  17
ENDBRANCH   4  16
TORSDOF 6
ENDMDL
MODEL 3
REMARK VINA RESULT:      -6.4      1.895      5.846
REMARK  Name = 
REMARK  6 active torsions:
REMARK  status: ('A' for Active; 'I' for Inactive)
REMARK    1  A    between atoms: C_2  and  C_3
REMARK    2  A    between atoms: C_6  and  C_7
REMARK    3  A    between atoms: C_7  and  N_8
REMARK    4  A    between atoms: N_11  and  C_12
REMARK    5  A    between atoms: C_12  and  C_13
REMARK    6  A    between atoms: C_13  and  C_14
REMARK                            x       y       z     vdW  Elec       q    Type
REMARK                         _______ _______ _______ _____ _____    ______ ____
ROOT
ATOM      1  N   UNL     1       8.855  -1.899  24.570  0.00  0.00    +0.000 NA
ATOM      2  C   UNL     1       9.931  -2.427  23.776  0.00  0.00    +0.000 C 
ATOM      3  C   UNL     1      10.021  -1.597  22.503  0.00  0.00    +0.000 C 
ATOM      4  N   UNL     1      10.307  -0.252  22.788  0.00  0.00    +0.000 NA
ATOM      5  C   UNL     1      10.043   0.189  24.051  0.00  0.00    +0.000 C 
ATOM      6  C   UNL     1       9.142  -0.588  24.948  0.00  0.00    +0.000 C 
ENDROOT
BRANCH   1   7
ATOM      7  C   UNL     1       7.636  -2.100  23.925  0.00  0.00    +0.000 C 
BRANCH   7  11
ATOM      8  C   UNL     1       5.381  -5.863  23.391  0.00  0.00    +0.000 C 
ATOM      9  C   UNL     1       5.147  -4.298  23.098  0.00  0.00    +0.000 C 
ATOM     10  C   UNL     1       5.341  -3.169  23.832  0.00  0.00    +0.000 C 
ATOM     11  C   UNL     1       6.638  -2.980  24.661  0.00  0.00    +0.000 C 
ATOM     12  C   UNL     1       6.988  -4.404  24.824  0.00  0.00    +0.000 C 
ATOM     13  C   UNL     1       6.193  -5.619  24.764  0.00  0.00    +0.000 C 
BRANCH   8  15
ATOM     14  C   UNL     1       6.170  -5.591  21.037  0.00  0.00    +0.000 C 
ATOM     15  C   UNL     1       6.505  -6.214  22.384  0.00  0.00    +0.000 C 
ENDBRANCH   8  15
ENDBRANCH   7  11
ENDBRANCH   1   7
BRANCH   4  16
ATOM     16  C   UNL     1       9.759   0.587  21.756  0.00  0.00    +0.000 C 
BRANCH  16  17
ATOM     17  C   UNL     1       8.901  -0.253  20.837  0.00  0.00    +0.000 C 
BRANCH  17  18
ATOM     18  C   UNL     1       7.520   0.252  20.645  0.00  0.00    +0.000 C 
ATOM     19  S   UNL     1       6.340  -1.223  20.775  0.00  0.00    +0.000 S 
ATOM     20  N   UNL     1       5.704  -1.175  19.287  0.00  0.00    +0.000 NA
ATOM     21  C   UNL     1       6.414  -0.444  18.561  0.00  0.00    +0.000 C 
ATOM     22  C   UNL     1       7.280   0.626  19.145  0.00  0.00    +0.000 C 
ENDBRANCH  17  18
ENDBRANCH  16  17
ENDBRANCH   4  16
TORSDOF 6
ENDMDL
MODEL 4
REMARK VINA RESULT:      -6.4      2.380      6.271
REMARK  Name = 
REMARK  6 active torsions:
REMARK  status: ('A' for Active; 'I' for Inactive)
REMARK    1  A    between atoms: C_2  and  C_3
REMARK    2  A    between atoms: C_6  and  C_7
REMARK    3  A    between atoms: C_7  and  N_8
REMARK    4  A    between atoms: N_11  and  C_12
REMARK    5  A    between atoms: C_12  and  C_13
REMARK    6  A    between atoms: C_13  and  C_14
REMARK                            x       y       z     vdW  Elec       q    Type
REMARK                         _______ _______ _______ _____ _____    ______ ____
ROOT
ATOM      1  N   UNL     1       8.533  -2.048  23.729  0.00  0.00    +0.000 NA
ATOM      2  C   UNL     1       9.863  -1.896  23.205  0.00  0.00    +0.000 C 
ATOM      3  C   UNL     1       9.791  -0.935  22.025  0.00  0.00    +0.000 C 
ATOM      4  N   UNL     1       9.331   0.330  22.424  0.00  0.00    +0.000 NA
ATOM      5  C   UNL     1       8.644   0.404  23.599  0.00  0.00    +0.000 C 
ATOM      6  C   UNL     1       8.072  -0.825  24.217  0.00  0.00    +0.000 C 
ENDROOT
BRANCH   1   7
ATOM      7  C   UNL     1       7.716  -2.685  22.797  0.00  0.00    +0.000 C 
BRANCH   7  11
ATOM      8  C   UNL     1       5.129  -6.194  23.523  0.00  0.00    +0.000 C 
ATOM      9  C   UNL     1       6.115  -5.259  24.386  0.00  0.00    +0.000 C 
ATOM     10  C   UNL     1       7.372  -4.782  24.177  0.00  0.00    +0.000 C 
ATOM     11  C   UNL     1       7.778  -4.204  22.796  0.00  0.00    +0.000 C 
ATOM     12  C   UNL     1       6.783  -4.919  21.974  0.00  0.00    +0.000 C 
ATOM     13  C   UNL     1       6.036  -6.146  22.190  0.00  0.00    +0.000 C 
BRANCH   8  15
ATOM     14  C   UNL     1       3.769  -4.275  24.365  0.00  0.00    +0.000 C 
ATOM     15  C   UNL     1       3.973  -5.217  23.188  0.00  0.00    +0.000 C 
ENDBRANCH   8  15
ENDBRANCH   7  11
ENDBRANCH   1   7
BRANCH   4  16
ATOM     16  C   UNL     1       8.663   0.970  21.322  0.00  0.00    +0.000 C 
BRANCH  16  17
ATOM     17  C   UNL     1       8.181  -0.086  20.354  0.00  0.00    +0.000 C 
BRANCH  17  18
ATOM     18  C   UNL     1       6.710  -0.134  20.170  0.00  0.00    +0.000 C 
ATOM     19  S   UNL     1       6.354  -1.140  18.607  0.00  0.00    +0.000 S 
ATOM     20  N   UNL     1       5.619   0.004  17.727  0.00  0.00    +0.000 NA
ATOM     21  C   UNL     1       5.839   1.122  18.244  0.00  0.00    +0.000 C 
ATOM     22  C   UNL     1       6.175   1.256  19.694  0.00  0.00    +0.000 C 
ENDBRANCH  17  18
ENDBRANCH  16  17
ENDBRANCH   4  16
TORSDOF 6
ENDMDL
MODEL 5
REMARK VINA RESULT:      -6.3      2.465      6.648
REMARK  Name = 
REMARK  6 active torsions:
REMARK  status: ('A' for Active; 'I' for Inactive)
REMARK    1  A    between atoms: C_2  and  C_3
REMARK    2  A    between atoms: C_6  and  C_7
REMARK    3  A    between atoms: C_7  and  N_8
REMARK    4  A    between atoms: N_11  and  C_12
REMARK    5  A    between atoms: C_12  and  C_13
REMARK    6  A    between atoms: C_13  and  C_14
REMARK                            x       y       z     vdW  Elec       q    Type
REMARK                         _______ _______ _______ _____ _____    ______ ____
ROOT
ATOM      1  N   UNL     1       7.374  -1.847  22.047  0.00  0.00    +0.000 NA
ATOM      2  C   UNL     1       6.820  -1.275  20.850  0.00  0.00    +0.000 C 
ATOM      3  C   UNL     1       7.082   0.225  20.887  0.00  0.00    +0.000 C 
ATOM      4  N   UNL     1       8.458   0.503  20.908  0.00  0.00    +0.000 NA
ATOM      5  C   UNL     1       9.292  -0.497  21.313  0.00  0.00    +0.000 C 
ATOM      6  C   UNL     1       8.757  -1.667  22.063  0.00  0.00    +0.000 C 
ENDROOT
BRANCH   1   7
ATOM      7  C   UNL     1       6.681  -1.390  23.167  0.00  0.00    +0.000 C 
BRANCH   7  11
ATOM      8  C   UNL     1       6.055  -5.759  23.378  0.00  0.00    +0.000 C 
ATOM      9  C   UNL     1       5.177  -4.460  23.016  0.00  0.00    +0.000 C 
ATOM     10  C   UNL     1       5.015  -3.246  23.608  0.00  0.00    +0.000 C 
ATOM     11  C   UNL     1       6.238  -2.462  24.150  0.00  0.00    +0.000 C 
ATOM     12  C   UNL     1       7.145  -3.608  24.351  0.00  0.00    +0.000 C 
ATOM     13  C   UNL     1       6.899  -5.027  24.542  0.00  0.00    +0.000 C 
BRANCH   8  15
ATOM     14  C   UNL     1       6.329  -5.448  20.915  0.00  0.00    +0.000 C 
ATOM     15  C   UNL     1       7.061  -5.806  22.200  0.00  0.00    +0.000 C 
ENDBRANCH   8  15
ENDBRANCH   7  11
ENDBRANCH   1   7
BRANCH   4  16
ATOM     16  C   UNL     1       8.688   1.755  21.579  0.00  0.00    +0.000 C 
BRANCH  16  17
ATOM     17  C   UNL     1      10.079   1.751  22.172  0.00  0.00    +0.000 C 
BRANCH  17  18
ATOM     18  C   UNL     1      10.138   2.085  23.616  0.00  0.00    +0.000 C 
ATOM     19  S   UNL     1      10.878   0.598  24.525  0.00  0.00    +0.000 S 
ATOM     20  N   UNL     1       9.624   0.233  25.483  0.00  0.00    +0.000 NA
ATOM     21  C   UNL     1       8.603   0.820  25.062  0.00  0.00    +0.000 C 
ATOM     22  C   UNL     1       8.704   2.064  24.239  0.00  0.00    +0.000 C 
ENDBRANCH  17  18
ENDBRANCH  16  17
ENDBRANCH   4  16
TORSDOF 6
ENDMDL
MODEL 6
REMARK VINA RESULT:      -6.2      1.846      2.669
REMARK  Name = 
REMARK  6 active torsions:
REMARK  status: ('A' for Active; 'I' for Inactive)
REMARK    1  A    between atoms: C_2  and  C_3
REMARK    2  A    between atoms: C_6  and  C_7
REMARK    3  A    between atoms: C_7  and  N_8
REMARK    4  A    between atoms: N_11  and  C_12
REMARK    5  A    between atoms: C_12  and  C_13
REMARK    6  A    between atoms: C_13  and  C_14
REMARK                            x       y       z     vdW  Elec       q    Type
REMARK                         _______ _______ _______ _____ _____    ______ ____
ROOT
ATOM      1  N   UNL     1       7.552  -0.402  25.335  0.00  0.00    +0.000 NA
ATOM      2  C   UNL     1       6.771  -0.190  24.147  0.00  0.00    +0.000 C 
ATOM      3  C   UNL     1       6.240  -1.543  23.691  0.00  0.00    +0.000 C 
ATOM      4  N   UNL     1       5.408  -2.119  24.664  0.00  0.00    +0.000 NA
ATOM      5  C   UNL     1       5.532  -1.662  25.943  0.00  0.00    +0.000 C 
ATOM      6  C   UNL     1       6.739  -0.895  26.356  0.00  0.00    +0.000 C 
ENDROOT
BRANCH   1   7
ATOM      7  C   UNL     1       8.689  -1.152  25.038  0.00  0.00    +0.000 C 
BRANCH   7  11
ATOM      8  C   UNL     1      10.026   1.793  22.026  0.00  0.00    +0.000 C 
ATOM      9  C   UNL     1      10.011   0.191  22.181  0.00  0.00    +0.000 C 
ATOM     10  C   UNL     1      10.351  -0.654  23.192  0.00  0.00    +0.000 C 
ATOM     11  C   UNL     1       9.923  -0.352  24.652  0.00  0.00    +0.000 C 
ATOM     12  C   UNL     1       9.765   1.109  24.522  0.00  0.00    +0.000 C 
ATOM     13  C   UNL     1      10.321   2.073  23.587  0.00  0.00    +0.000 C 
BRANCH   8  15
ATOM     14  C   UNL     1       7.879   1.121  20.940  0.00  0.00    +0.000 C 
ATOM     15  C   UNL     1       8.516   2.117  21.898  0.00  0.00    +0.000 C 
ENDBRANCH   8  15
ENDBRANCH   7  11
ENDBRANCH   1   7
BRANCH   4  16
ATOM     16  C   UNL     1       5.458  -3.553  24.554  0.00  0.00    +0.000 C 
BRANCH  16  17
ATOM     17  C   UNL     1       6.778  -3.956  23.935  0.00  0.00    +0.000 C 
BRANCH  17  18
ATOM     18  C   UNL     1       7.436  -5.118  24.581  0.00  0.00    +0.000 C 
ATOM     19  S   UNL     1       6.647  -5.357  26.286  0.00  0.00    +0.000 S 
ATOM     20  N   UNL     1       7.958  -5.125  27.209  0.00  0.00    +0.000 NA
ATOM     21  C   UNL     1       8.856  -4.593  26.518  0.00  0.00    +0.000 C 
ATOM     22  C   UNL     1       8.885  -4.743  25.031  0.00  0.00    +0.000 C 
ENDBRANCH  17  18
ENDBRANCH  16  17
ENDBRANCH   4  16
TORSDOF 6
ENDMDL
MODEL 7
REMARK VINA RESULT:      -6.0      2.416      3.863
REMARK  Name = 
REMARK  6 active torsions:
REMARK  status: ('A' for Active; 'I' for Inactive)
REMARK    1  A    between atoms: C_2  and  C_3
REMARK    2  A    between atoms: C_6  and  C_7
REMARK    3  A    between atoms: C_7  and  N_8
REMARK    4  A    between atoms: N_11  and  C_12
REMARK    5  A    between atoms: C_12  and  C_13
REMARK    6  A    between atoms: C_13  and  C_14
REMARK                            x       y       z     vdW  Elec       q    Type
REMARK                         _______ _______ _______ _____ _____    ______ ____
ROOT
ATOM      1  N   UNL     1       8.332  -3.627  23.525  0.00  0.00    +0.000 NA
ATOM      2  C   UNL     1       8.707  -4.671  24.439  0.00  0.00    +0.000 C 
ATOM      3  C   UNL     1       7.549  -4.880  25.406  0.00  0.00    +0.000 C 
ATOM      4  N   UNL     1       6.386  -5.286  24.732  0.00  0.00    +0.000 NA
ATOM      5  C   UNL     1       6.316  -5.026  23.395  0.00  0.00    +0.000 C 
ATOM      6  C   UNL     1       7.228  -4.027  22.772  0.00  0.00    +0.000 C 
ENDROOT
BRANCH   1   7
ATOM      7  C   UNL     1       8.207  -2.415  24.202  0.00  0.00    +0.000 C 
BRANCH   7  11
ATOM      8  C   UNL     1       9.878   0.934  21.852  0.00  0.00    +0.000 C 
ATOM      9  C   UNL     1       9.956  -0.673  21.832  0.00  0.00    +0.000 C 
ATOM     10  C   UNL     1      10.156  -1.612  22.796  0.00  0.00    +0.000 C 
ATOM     11  C   UNL     1       9.427  -1.509  24.162  0.00  0.00    +0.000 C 
ATOM     12  C   UNL     1       9.186  -0.053  24.156  0.00  0.00    +0.000 C 
ATOM     13  C   UNL     1       9.838   1.044  23.461  0.00  0.00    +0.000 C 
BRANCH   8  15
ATOM     14  C   UNL     1       8.025   0.236  20.328  0.00  0.00    +0.000 C 
ATOM     15  C   UNL     1       8.401   1.189  21.454  0.00  0.00    +0.000 C 
ENDBRANCH   8  15
ENDBRANCH   7  11
ENDBRANCH   1   7
BRANCH   4  16
ATOM     16  C   UNL     1       5.227  -4.855  25.467  0.00  0.00    +0.000 C 
BRANCH  16  17
ATOM     17  C   UNL     1       4.488  -6.069  25.983  0.00  0.00    +0.000 C 
BRANCH  17  18
ATOM     18  C   UNL     1       4.176  -6.035  27.433  0.00  0.00    +0.000 C 
ATOM     19  S   UNL     1       4.924  -4.450  28.149  0.00  0.00    +0.000 S 
ATOM     20  N   UNL     1       5.959  -5.109  29.206  0.00  0.00    +0.000 NA
ATOM     21  C   UNL     1       6.099  -6.323  28.939  0.00  0.00    +0.000 C 
ATOM     22  C   UNL     1       5.044  -7.085  28.201  0.00  0.00    +0.000 C 
ENDBRANCH  17  18
ENDBRANCH  16  17
ENDBRANCH   4  16
TORSDOF 6
ENDMDL
MODEL 8
REMARK VINA RESULT:      -5.9      1.930      3.339
REMARK  Name = 
REMARK  6 active torsions:
REMARK  status: ('A' for Active; 'I' for Inactive)
REMARK    1  A    between atoms: C_2  and  C_3
REMARK    2  A    between atoms: C_6  and  C_7
REMARK    3  A    between atoms: C_7  and  N_8
REMARK    4  A    between atoms: N_11  and  C_12
REMARK    5  A    between atoms: C_12  and  C_13
REMARK    6  A    between atoms: C_13  and  C_14
REMARK                            x       y       z     vdW  Elec       q    Type
REMARK                         _______ _______ _______ _____ _____    ______ ____
ROOT
ATOM      1  N   UNL     1       8.856  -3.537  23.840  0.00  0.00    +0.000 NA
ATOM      2  C   UNL     1       9.369  -4.453  24.823  0.00  0.00    +0.000 C 
ATOM      3  C   UNL     1       8.267  -4.705  25.844  0.00  0.00    +0.000 C 
ATOM      4  N   UNL     1       7.141  -5.292  25.246  0.00  0.00    +0.000 NA
ATOM      5  C   UNL     1       7.008  -5.156  23.895  0.00  0.00    +0.000 C 
ATOM      6  C   UNL     1       7.786  -4.119  23.161  0.00  0.00    +0.000 C 
ENDROOT
BRANCH   1   7
ATOM      7  C   UNL     1       8.613  -2.293  24.420  0.00  0.00    +0.000 C 
BRANCH   7  11
ATOM      8  C   UNL     1       9.744   1.082  21.801  0.00  0.00    +0.000 C 
ATOM      9  C   UNL     1      10.004  -0.505  21.855  0.00  0.00    +0.000 C 
ATOM     10  C   UNL     1      10.368  -1.361  22.848  0.00  0.00    +0.000 C 
ATOM     11  C   UNL     1       9.717  -1.262  24.253  0.00  0.00    +0.000 C 
ATOM     12  C   UNL     1       9.312   0.156  24.192  0.00  0.00    +0.000 C 
ATOM     13  C   UNL     1       9.791   1.277  23.401  0.00  0.00    +0.000 C 
BRANCH   8  15
ATOM     14  C   UNL     1       7.924   0.224  20.320  0.00  0.00    +0.000 C 
ATOM     15  C   UNL     1       8.227   1.148  21.490  0.00  0.00    +0.000 C 
ENDBRANCH   8  15
ENDBRANCH   7  11
ENDBRANCH   1   7
BRANCH   4  16
ATOM     16  C   UNL     1       5.959  -4.929  25.982  0.00  0.00    +0.000 C 
BRANCH  16  17
ATOM     17  C   UNL     1       6.360  -4.120  27.195  0.00  0.00    +0.000 C 
BRANCH  17  18
ATOM     18  C   UNL     1       5.437  -3.010  27.532  0.00  0.00    +0.000 C 
ATOM     19  S   UNL     1       3.905  -3.175  26.432  0.00  0.00    +0.000 S 
ATOM     20  N   UNL     1       4.012  -1.773  25.630  0.00  0.00    +0.000 NA
ATOM     21  C   UNL     1       5.157  -1.295  25.792  0.00  0.00    +0.000 C 
ATOM     22  C   UNL     1       5.990  -1.655  26.981  0.00  0.00    +0.000 C 
ENDBRANCH  17  18
ENDBRANCH  16  17
ENDBRANCH   4  16
TORSDOF 6
ENDMDL
MODEL 9
REMARK VINA RESULT:      -5.8      2.395      6.149
REMARK  Name = 
REMARK  6 active torsions:
REMARK  status: ('A' for Active; 'I' for Inactive)
REMARK    1  A    between atoms: C_2  and  C_3
REMARK    2  A    between atoms: C_6  and  C_7
REMARK    3  A    between atoms: C_7  and  N_8
REMARK    4  A    between atoms: N_11  and  C_12
REMARK    5  A    between atoms: C_12  and  C_13
REMARK    6  A    between atoms: C_13  and  C_14
REMARK                            x       y       z     vdW  Elec       q    Type
REMARK                         _______ _______ _______ _____ _____    ______ ____
ROOT
ATOM      1  N   UNL     1       7.681  -2.110  24.252  0.00  0.00    +0.000 NA
ATOM      2  C   UNL     1       9.027  -2.453  24.622  0.00  0.00    +0.000 C 
ATOM      3  C   UNL     1       9.933  -1.304  24.201  0.00  0.00    +0.000 C 
ATOM      4  N   UNL     1       9.590  -0.114  24.861  0.00  0.00    +0.000 NA
ATOM      5  C   UNL     1       8.336  -0.032  25.391  0.00  0.00    +0.000 C 
ATOM      6  C   UNL     1       7.270  -0.977  24.954  0.00  0.00    +0.000 C 
ENDROOT
BRANCH   1   7
ATOM      7  C   UNL     1       7.562  -2.049  22.864  0.00  0.00    +0.000 C 
BRANCH   7  11
ATOM      8  C   UNL     1       5.348  -5.730  23.903  0.00  0.00    +0.000 C 
ATOM      9  C   UNL     1       6.785  -5.355  23.283  0.00  0.00    +0.000 C 
ATOM     10  C   UNL     1       7.189  -4.493  22.311  0.00  0.00    +0.000 C 
ATOM     11  C   UNL     1       6.609  -3.056  22.241  0.00  0.00    +0.000 C 
ATOM     12  C   UNL     1       5.340  -3.311  22.949  0.00  0.00    +0.000 C 
ATOM     13  C   UNL     1       4.570  -4.523  23.169  0.00  0.00    +0.000 C 
BRANCH   8  15
ATOM     14  C   UNL     1       6.928  -5.387  25.809  0.00  0.00    +0.000 C 
ATOM     15  C   UNL     1       5.484  -5.216  25.360  0.00  0.00    +0.000 C 
ENDBRANCH   8  15
ENDBRANCH   7  11
ENDBRANCH   1   7
BRANCH   4  16
ATOM     16  C   UNL     1       9.945   1.013  24.041  0.00  0.00    +0.000 C 
BRANCH  16  17
ATOM     17  C   UNL     1      10.006   0.573  22.595  0.00  0.00    +0.000 C 
BRANCH  17  18
ATOM     18  C   UNL     1       9.380   1.514  21.634  0.00  0.00    +0.000 C 
ATOM     19  S   UNL     1       8.293   2.710  22.619  0.00  0.00    +0.000 S 
ATOM     20  N   UNL     1       6.856   2.349  21.965  0.00  0.00    +0.000 NA
ATOM     21  C   UNL     1       6.951   1.270  21.339  0.00  0.00    +0.000 C 
ATOM     22  C   UNL     1       8.265   0.790  20.811  0.00  0.00    +0.000 C 
ENDBRANCH  17  18
ENDBRANCH  16  17
ENDBRANCH   4  16
TORSDOF 6
ENDMDL
