MODEL 1
REMARK VINA RESULT:      -7.5      0.000      0.000
REMARK  Name = 
REMARK  3 active torsions:
REMARK  status: ('A' for Active; 'I' for Inactive)
REMARK    1  A    between atoms: S_2  and  C_3
REMARK    2  A    between atoms: S_2  and  N_13
REMARK    3  A    between atoms: N_13  and  C_14
REMARK                            x       y       z     vdW  Elec       q    Type
REMARK                         _______ _______ _______ _____ _____    ______ ____
ROOT
ATOM      1  O   UNL     1      10.101  -3.481  24.208  0.00  0.00    +0.000 OA
ATOM      2  S   UNL     1       9.413  -2.224  24.022  0.00  0.00    +0.000 S 
ATOM      3  O   UNL     1      10.115  -1.077  24.555  0.00  0.00    +0.000 OA
ENDROOT
BRANCH   2   4
ATOM      4  C   UNL     1       9.172  -1.974  22.303  0.00  0.00    +0.000 C 
ATOM      5  C   UNL     1       7.604  -1.657  22.106  0.00  0.00    +0.000 C 
ATOM      6  C   UNL     1       6.931  -0.975  21.110  0.00  0.00    +0.000 A 
ATOM      7  C   UNL     1       7.431   0.362  20.605  0.00  0.00    +0.000 A 
ATOM      8  C   UNL     1       7.145   0.627  19.227  0.00  0.00    +0.000 A 
ATOM      9  C   UNL     1       6.367  -0.243  18.445  0.00  0.00    +0.000 A 
ATOM     10  C   UNL     1       5.726  -1.356  19.037  0.00  0.00    +0.000 A 
ATOM     11  C   UNL     1       5.901  -1.596  20.412  0.00  0.00    +0.000 A 
ATOM     12  C   UNL     1       8.886   0.192  20.874  0.00  0.00    +0.000 C 
ATOM     13  C   UNL     1       9.608  -0.468  21.940  0.00  0.00    +0.000 C 
ENDBRANCH   2   4
BRANCH   2  14
ATOM     14  N   UNL     1       7.954  -2.325  24.784  0.00  0.00    +0.000 NA
BRANCH  14  15
ATOM     15  C   UNL     1       7.611  -3.704  25.014  0.00  0.00    +0.000 C 
ATOM     16  C   UNL     1       6.303  -4.062  24.464  0.00  0.00    +0.000 C 
ATOM     17  C   UNL     1       5.378  -4.663  25.650  0.00  0.00    +0.000 C 
ATOM     18  C   UNL     1       4.764  -5.853  25.858  0.00  0.00    +0.000 C 
ATOM     19  C   UNL     1       4.497  -6.910  24.804  0.00  0.00    +0.000 C 
ATOM     20  C   UNL     1       5.148  -6.214  23.626  0.00  0.00    +0.000 C 
ATOM     21  C   UNL     1       6.429  -5.490  23.710  0.00  0.00    +0.000 C 
ATOM     22  S   UNL     1       6.508  -4.364  27.058  0.00  0.00    +0.000 S 
ATOM     23  N   UNL     1       7.869  -4.097  26.361  0.00  0.00    +0.000 NA
ENDBRANCH  14  15
ENDBRANCH   2  14
TORSDOF 3
ENDMDL
MODEL 2
REMARK VINA RESULT:      -7.4      2.567      3.849
REMARK  Name = 
REMARK  3 active torsions:
REMARK  status: ('A' for Active; 'I' for Inactive)
REMARK    1  A    between atoms: S_2  and  C_3
REMARK    2  A    between atoms: S_2  and  N_13
REMARK    3  A    between atoms: N_13  and  C_14
REMARK                            x       y       z     vdW  Elec       q    Type
REMARK                         _______ _______ _______ _____ _____    ______ ____
ROOT
ATOM      1  O   UNL     1       5.580  -3.085  20.258  0.00  0.00    +0.000 OA
ATOM      2  S   UNL     1       6.135  -3.298  21.576  0.00  0.00    +0.000 S 
ATOM      3  O   UNL     1       7.242  -4.228  21.611  0.00  0.00    +0.000 OA
ENDROOT
BRANCH   2   4
ATOM      4  C   UNL     1       6.688  -1.756  22.200  0.00  0.00    +0.000 C 
ATOM      5  C   UNL     1       8.250  -1.942  22.550  0.00  0.00    +0.000 C 
ATOM      6  C   UNL     1       9.278  -1.023  22.641  0.00  0.00    +0.000 A 
ATOM      7  C   UNL     1       9.475   0.038  21.579  0.00  0.00    +0.000 A 
ATOM      8  C   UNL     1      10.030   1.268  22.056  0.00  0.00    +0.000 A 
ATOM      9  C   UNL     1      10.455   1.431  23.386  0.00  0.00    +0.000 A 
ATOM     10  C   UNL     1      10.469   0.328  24.271  0.00  0.00    +0.000 A 
ATOM     11  C   UNL     1      10.024  -0.925  23.811  0.00  0.00    +0.000 A 
ATOM     12  C   UNL     1       8.067   0.177  21.114  0.00  0.00    +0.000 C 
ATOM     13  C   UNL     1       6.996  -0.783  20.956  0.00  0.00    +0.000 C 
ENDBRANCH   2   4
BRANCH   2  14
ATOM     14  N   UNL     1       4.938  -3.897  22.541  0.00  0.00    +0.000 NA
BRANCH  14  15
ATOM     15  C   UNL     1       5.302  -3.753  23.926  0.00  0.00    +0.000 C 
ATOM     16  C   UNL     1       6.087  -4.882  24.425  0.00  0.00    +0.000 C 
ATOM     17  C   UNL     1       5.337  -5.519  25.712  0.00  0.00    +0.000 C 
ATOM     18  C   UNL     1       5.677  -5.695  27.013  0.00  0.00    +0.000 C 
ATOM     19  C   UNL     1       7.081  -5.625  27.580  0.00  0.00    +0.000 C 
ATOM     20  C   UNL     1       7.817  -5.278  26.302  0.00  0.00    +0.000 C 
ATOM     21  C   UNL     1       7.318  -4.309  25.308  0.00  0.00    +0.000 C 
ATOM     22  S   UNL     1       3.809  -4.513  25.666  0.00  0.00    +0.000 S 
ATOM     23  N   UNL     1       4.195  -3.340  24.725  0.00  0.00    +0.000 NA
ENDBRANCH  14  15
ENDBRANCH   2  14
TORSDOF 3
ENDMDL
MODEL 3
REMARK VINA RESULT:      -7.3      3.014      4.003
REMARK  Name = 
REMARK  3 active torsions:
REMARK  status: ('A' for Active; 'I' for Inactive)
REMARK    1  A    between atoms: S_2  and  C_3
REMARK    2  A    between atoms: S_2  and  N_13
REMARK    3  A    between atoms: N_13  and  C_14
REMARK                            x       y       z     vdW  Elec       q    Type
REMARK                         _______ _______ _______ _____ _____    ______ ____
ROOT
ATOM      1  O   UNL     1       8.159  -2.462  22.040  0.00  0.00    +0.000 OA
ATOM      2  S   UNL     1       9.185  -1.651  22.656  0.00  0.00    +0.000 S 
ATOM      3  O   UNL     1      10.493  -1.787  22.052  0.00  0.00    +0.000 OA
ENDROOT
BRANCH   2   4
ATOM      4  C   UNL     1       8.699   0.030  22.552  0.00  0.00    +0.000 C 
ATOM      5  C   UNL     1       8.859   0.641  24.035  0.00  0.00    +0.000 C 
ATOM      6  C   UNL     1       9.052   1.940  24.468  0.00  0.00    +0.000 A 
ATOM      7  C   UNL     1      10.078   2.839  23.810  0.00  0.00    +0.000 A 
ATOM      8  C   UNL     1       9.745   4.231  23.814  0.00  0.00    +0.000 A 
ATOM      9  C   UNL     1       8.607   4.725  24.475  0.00  0.00    +0.000 A 
ATOM     10  C   UNL     1       7.816   3.868  25.275  0.00  0.00    +0.000 A 
ATOM     11  C   UNL     1       8.168   2.510  25.378  0.00  0.00    +0.000 A 
ATOM     12  C   UNL     1      10.077   2.245  22.444  0.00  0.00    +0.000 C 
ATOM     13  C   UNL     1       9.936   0.883  21.976  0.00  0.00    +0.000 C 
ENDBRANCH   2   4
BRANCH   2  14
ATOM     14  N   UNL     1       9.308  -2.103  24.238  0.00  0.00    +0.000 NA
BRANCH  14  15
ATOM     15  C   UNL     1       8.681  -3.384  24.436  0.00  0.00    +0.000 C 
ATOM     16  C   UNL     1       7.552  -3.324  25.366  0.00  0.00    +0.000 C 
ATOM     17  C   UNL     1       7.809  -4.371  26.576  0.00  0.00    +0.000 C 
ATOM     18  C   UNL     1       7.147  -5.458  27.041  0.00  0.00    +0.000 C 
ATOM     19  C   UNL     1       5.710  -5.824  26.726  0.00  0.00    +0.000 C 
ATOM     20  C   UNL     1       5.395  -4.680  25.784  0.00  0.00    +0.000 C 
ATOM     21  C   UNL     1       6.327  -4.188  24.753  0.00  0.00    +0.000 C 
ATOM     22  S   UNL     1       9.504  -4.898  26.128  0.00  0.00    +0.000 S 
ATOM     23  N   UNL     1       9.640  -4.416  24.659  0.00  0.00    +0.000 NA
ENDBRANCH  14  15
ENDBRANCH   2  14
TORSDOF 3
ENDMDL
MODEL 4
REMARK VINA RESULT:      -7.2      1.886      6.183
REMARK  Name = 
REMARK  3 active torsions:
REMARK  status: ('A' for Active; 'I' for Inactive)
REMARK    1  A    between atoms: S_2  and  C_3
REMARK    2  A    between atoms: S_2  and  N_13
REMARK    3  A    between atoms: N_13  and  C_14
REMARK                            x       y       z     vdW  Elec       q    Type
REMARK                         _______ _______ _______ _____ _____    ______ ____
ROOT
ATOM      1  O   UNL     1       9.570  -4.544  26.279  0.00  0.00    +0.000 OA
ATOM      2  S   UNL     1       9.088  -4.434  24.921  0.00  0.00    +0.000 S 
ATOM      3  O   UNL     1       9.136  -5.670  24.171  0.00  0.00    +0.000 OA
ENDROOT
BRANCH   2   4
ATOM      4  C   UNL     1       7.425  -3.880  24.968  0.00  0.00    +0.000 C 
ATOM      5  C   UNL     1       6.538  -5.047  24.298  0.00  0.00    +0.000 C 
ATOM      6  C   UNL     1       5.204  -5.376  24.445  0.00  0.00    +0.000 A 
ATOM      7  C   UNL     1       4.566  -5.455  25.816  0.00  0.00    +0.000 A 
ATOM      8  C   UNL     1       3.177  -5.110  25.851  0.00  0.00    +0.000 A 
ATOM      9  C   UNL     1       2.447  -4.826  24.684  0.00  0.00    +0.000 A 
ATOM     10  C   UNL     1       3.038  -5.003  23.411  0.00  0.00    +0.000 A 
ATOM     11  C   UNL     1       4.374  -5.438  23.331  0.00  0.00    +0.000 A 
ATOM     12  C   UNL     1       5.426  -4.477  26.538  0.00  0.00    +0.000 C 
ATOM     13  C   UNL     1       6.835  -4.162  26.439  0.00  0.00    +0.000 C 
ENDBRANCH   2   4
BRANCH   2  14
ATOM     14  N   UNL     1      10.026  -3.327  24.137  0.00  0.00    +0.000 NA
BRANCH  14  15
ATOM     15  C   UNL     1       9.253  -2.150  23.835  0.00  0.00    +0.000 C 
ATOM     16  C   UNL     1       9.155  -1.890  22.398  0.00  0.00    +0.000 C 
ATOM     17  C   UNL     1       9.710  -0.398  22.093  0.00  0.00    +0.000 C 
ATOM     18  C   UNL     1       9.165   0.721  21.557  0.00  0.00    +0.000 C 
ATOM     19  C   UNL     1       7.886   0.785  20.746  0.00  0.00    +0.000 C 
ATOM     20  C   UNL     1       7.507  -0.680  20.821  0.00  0.00    +0.000 C 
ATOM     21  C   UNL     1       7.625  -1.495  22.045  0.00  0.00    +0.000 C 
ATOM     22  S   UNL     1      10.309   0.021  23.771  0.00  0.00    +0.000 S 
ATOM     23  N   UNL     1       9.621  -1.048  24.662  0.00  0.00    +0.000 NA
ENDBRANCH  14  15
ENDBRANCH   2  14
TORSDOF 3
ENDMDL
MODEL 5
REMARK VINA RESULT:      -7.2      1.722      2.218
REMARK  Name = 
REMARK  3 active torsions:
REMARK  status: ('A' for Active; 'I' for Inactive)
REMARK    1  A    between atoms: S_2  and  C_3
REMARK    2  A    between atoms: S_2  and  N_13
REMARK    3  A    between atoms: N_13  and  C_14
REMARK                            x       y       z     vdW  Elec       q    Type
REMARK                         _______ _______ _______ _____ _____    ______ ____
ROOT
ATOM      1  O   UNL     1      10.726  -1.628  22.325  0.00  0.00    +0.000 OA
ATOM      2  S   UNL     1      10.191  -0.527  23.095  0.00  0.00    +0.000 S 
ATOM      3  O   UNL     1      11.185   0.217  23.837  0.00  0.00    +0.000 OA
ENDROOT
BRANCH   2   4
ATOM      4  C   UNL     1       9.382   0.574  21.997  0.00  0.00    +0.000 C 
ATOM      5  C   UNL     1       8.609  -0.344  20.921  0.00  0.00    +0.000 C 
ATOM      6  C   UNL     1       7.503  -0.087  20.133  0.00  0.00    +0.000 A 
ATOM      7  C   UNL     1       6.264   0.562  20.713  0.00  0.00    +0.000 A 
ATOM      8  C   UNL     1       5.531   1.379  19.794  0.00  0.00    +0.000 A 
ATOM      9  C   UNL     1       5.881   1.478  18.436  0.00  0.00    +0.000 A 
ATOM     10  C   UNL     1       6.903   0.660  17.901  0.00  0.00    +0.000 A 
ATOM     11  C   UNL     1       7.583  -0.231  18.752  0.00  0.00    +0.000 A 
ATOM     12  C   UNL     1       6.894   1.344  21.812  0.00  0.00    +0.000 C 
ATOM     13  C   UNL     1       8.013   1.067  22.686  0.00  0.00    +0.000 C 
ENDBRANCH   2   4
BRANCH   2  14
ATOM     14  N   UNL     1       9.106  -1.142  24.175  0.00  0.00    +0.000 NA
BRANCH  14  15
ATOM     15  C   UNL     1       8.786  -2.503  23.833  0.00  0.00    +0.000 C 
ATOM     16  C   UNL     1       7.379  -2.680  23.470  0.00  0.00    +0.000 C 
ATOM     17  C   UNL     1       6.724  -3.809  24.430  0.00  0.00    +0.000 C 
ATOM     18  C   UNL     1       6.140  -5.012  24.210  0.00  0.00    +0.000 C 
ATOM     19  C   UNL     1       5.617  -5.515  22.879  0.00  0.00    +0.000 C 
ATOM     20  C   UNL     1       6.009  -4.325  22.027  0.00  0.00    +0.000 C 
ATOM     21  C   UNL     1       7.296  -3.617  22.152  0.00  0.00    +0.000 C 
ATOM     22  S   UNL     1       8.146  -4.076  25.550  0.00  0.00    +0.000 S 
ATOM     23  N   UNL     1       9.325  -3.428  24.776  0.00  0.00    +0.000 NA
ENDBRANCH  14  15
ENDBRANCH   2  14
TORSDOF 3
ENDMDL
MODEL 6
REMARK VINA RESULT:      -7.2      2.379      3.527
REMARK  Name = 
REMARK  3 active torsions:
REMARK  status: ('A' for Active; 'I' for Inactive)
REMARK    1  A    between atoms: S_2  and  C_3
REMARK    2  A    between atoms: S_2  and  N_13
REMARK    3  A    between atoms: N_13  and  C_14
REMARK                            x       y       z     vdW  Elec       q    Type
REMARK                         _______ _______ _______ _____ _____    ______ ____
ROOT
ATOM      1  O   UNL     1       8.047  -5.309  23.621  0.00  0.00    +0.000 OA
ATOM      2  S   UNL     1       8.637  -4.444  24.618  0.00  0.00    +0.000 S 
ATOM      3  O   UNL     1      10.068  -4.595  24.765  0.00  0.00    +0.000 OA
ENDROOT
BRANCH   2   4
ATOM      4  C   UNL     1       8.298  -2.781  24.178  0.00  0.00    +0.000 C 
ATOM      5  C   UNL     1       9.720  -2.023  24.139  0.00  0.00    +0.000 C 
ATOM      6  C   UNL     1      10.129  -0.890  23.461  0.00  0.00    +0.000 A 
ATOM      7  C   UNL     1       9.801  -0.695  21.996  0.00  0.00    +0.000 A 
ATOM      8  C   UNL     1       9.629   0.669  21.598  0.00  0.00    +0.000 A 
ATOM      9  C   UNL     1       9.855   1.740  22.480  0.00  0.00    +0.000 A 
ATOM     10  C   UNL     1      10.393   1.505  23.766  0.00  0.00    +0.000 A 
ATOM     11  C   UNL     1      10.671   0.183  24.161  0.00  0.00    +0.000 A 
ATOM     12  C   UNL     1       8.540  -1.485  21.925  0.00  0.00    +0.000 C 
ATOM     13  C   UNL     1       8.118  -2.703  22.581  0.00  0.00    +0.000 C 
ENDBRANCH   2   4
BRANCH   2  14
ATOM     14  N   UNL     1       7.938  -4.793  26.071  0.00  0.00    +0.000 NA
BRANCH  14  15
ATOM     15  C   UNL     1       6.553  -5.136  25.884  0.00  0.00    +0.000 C 
ATOM     16  C   UNL     1       5.659  -3.987  26.037  0.00  0.00    +0.000 C 
ATOM     17  C   UNL     1       4.563  -4.320  27.182  0.00  0.00    +0.000 C 
ATOM     18  C   UNL     1       3.210  -4.404  27.199  0.00  0.00    +0.000 C 
ATOM     19  C   UNL     1       2.274  -3.854  26.141  0.00  0.00    +0.000 C 
ATOM     20  C   UNL     1       3.317  -3.308  25.188  0.00  0.00    +0.000 C 
ATOM     21  C   UNL     1       4.563  -4.018  24.845  0.00  0.00    +0.000 C 
ATOM     22  S   UNL     1       5.228  -5.931  27.740  0.00  0.00    +0.000 S 
ATOM     23  N   UNL     1       6.199  -6.322  26.593  0.00  0.00    +0.000 NA
ENDBRANCH  14  15
ENDBRANCH   2  14
TORSDOF 3
ENDMDL
MODEL 7
REMARK VINA RESULT:      -7.1      1.904      6.192
REMARK  Name = 
REMARK  3 active torsions:
REMARK  status: ('A' for Active; 'I' for Inactive)
REMARK    1  A    between atoms: S_2  and  C_3
REMARK    2  A    between atoms: S_2  and  N_13
REMARK    3  A    between atoms: N_13  and  C_14
REMARK                            x       y       z     vdW  Elec       q    Type
REMARK                         _______ _______ _______ _____ _____    ______ ____
ROOT
ATOM      1  O   UNL     1       9.762  -0.897  25.164  0.00  0.00    +0.000 OA
ATOM      2  S   UNL     1       9.434  -1.708  24.013  0.00  0.00    +0.000 S 
ATOM      3  O   UNL     1      10.337  -2.816  23.789  0.00  0.00    +0.000 OA
ENDROOT
BRANCH   2   4
ATOM      4  C   UNL     1       7.817  -2.348  24.229  0.00  0.00    +0.000 C 
ATOM      5  C   UNL     1       7.845  -3.855  23.659  0.00  0.00    +0.000 C 
ATOM      6  C   UNL     1       7.054  -4.952  23.945  0.00  0.00    +0.000 A 
ATOM      7  C   UNL     1       6.725  -5.326  25.375  0.00  0.00    +0.000 A 
ATOM      8  C   UNL     1       5.449  -5.950  25.552  0.00  0.00    +0.000 A 
ATOM      9  C   UNL     1       4.622  -6.284  24.466  0.00  0.00    +0.000 A 
ATOM     10  C   UNL     1       5.088  -6.128  23.140  0.00  0.00    +0.000 A 
ATOM     11  C   UNL     1       6.378  -5.610  22.923  0.00  0.00    +0.000 A 
ATOM     12  C   UNL     1       6.803  -3.976  26.000  0.00  0.00    +0.000 C 
ATOM     13  C   UNL     1       7.662  -2.839  25.754  0.00  0.00    +0.000 C 
ENDBRANCH   2   4
BRANCH   2  14
ATOM     14  N   UNL     1       9.480  -0.739  22.678  0.00  0.00    +0.000 NA
BRANCH  14  15
ATOM     15  C   UNL     1       8.144  -0.371  22.289  0.00  0.00    +0.000 C 
ATOM     16  C   UNL     1       7.907  -0.535  20.854  0.00  0.00    +0.000 C 
ATOM     17  C   UNL     1       7.415   0.880  20.236  0.00  0.00    +0.000 C 
ATOM     18  C   UNL     1       6.293   1.293  19.597  0.00  0.00    +0.000 C 
ATOM     19  C   UNL     1       5.252   0.393  18.961  0.00  0.00    +0.000 C 
ATOM     20  C   UNL     1       5.866  -0.943  19.327  0.00  0.00    +0.000 C 
ATOM     21  C   UNL     1       6.463  -1.237  20.643  0.00  0.00    +0.000 C 
ATOM     22  S   UNL     1       7.622   1.919  21.728  0.00  0.00    +0.000 S 
ATOM     23  N   UNL     1       7.747   0.871  22.866  0.00  0.00    +0.000 NA
ENDBRANCH  14  15
ENDBRANCH   2  14
TORSDOF 3
ENDMDL
MODEL 8
REMARK VINA RESULT:      -6.8      2.626      3.154
REMARK  Name = 
REMARK  3 active torsions:
REMARK  status: ('A' for Active; 'I' for Inactive)
REMARK    1  A    between atoms: S_2  and  C_3
REMARK    2  A    between atoms: S_2  and  N_13
REMARK    3  A    between atoms: N_13  and  C_14
REMARK                            x       y       z     vdW  Elec       q    Type
REMARK                         _______ _______ _______ _____ _____    ______ ____
ROOT
ATOM      1  O   UNL     1      10.625  -1.808  22.273  0.00  0.00    +0.000 OA
ATOM      2  S   UNL     1      10.023  -0.971  23.286  0.00  0.00    +0.000 S 
ATOM      3  O   UNL     1      10.927  -0.010  23.879  0.00  0.00    +0.000 OA
ENDROOT
BRANCH   2   4
ATOM      4  C   UNL     1       8.688  -0.097  22.560  0.00  0.00    +0.000 C 
ATOM      5  C   UNL     1       7.990   0.737  23.749  0.00  0.00    +0.000 C 
ATOM      6  C   UNL     1       7.224   1.888  23.726  0.00  0.00    +0.000 A 
ATOM      7  C   UNL     1       7.646   3.091  22.910  0.00  0.00    +0.000 A 
ATOM      8  C   UNL     1       6.564   3.877  22.400  0.00  0.00    +0.000 A 
ATOM      9  C   UNL     1       5.224   3.608  22.727  0.00  0.00    +0.000 A 
ATOM     10  C   UNL     1       4.909   2.618  23.687  0.00  0.00    +0.000 A 
ATOM     11  C   UNL     1       5.952   1.889  24.287  0.00  0.00    +0.000 A 
ATOM     12  C   UNL     1       8.415   2.397  21.840  0.00  0.00    +0.000 C 
ATOM     13  C   UNL     1       9.268   1.229  21.856  0.00  0.00    +0.000 C 
ENDBRANCH   2   4
BRANCH   2  14
ATOM     14  N   UNL     1       9.463  -1.951  24.489  0.00  0.00    +0.000 NA
BRANCH  14  15
ATOM     15  C   UNL     1       8.961  -3.180  23.932  0.00  0.00    +0.000 C 
ATOM     16  C   UNL     1       7.511  -3.163  23.737  0.00  0.00    +0.000 C 
ATOM     17  C   UNL     1       6.856  -4.412  24.534  0.00  0.00    +0.000 C 
ATOM     18  C   UNL     1       6.125  -5.491  24.163  0.00  0.00    +0.000 C 
ATOM     19  C   UNL     1       5.399  -5.659  22.843  0.00  0.00    +0.000 C 
ATOM     20  C   UNL     1       5.812  -4.352  22.198  0.00  0.00    +0.000 C 
ATOM     21  C   UNL     1       7.174  -3.792  22.283  0.00  0.00    +0.000 C 
ATOM     22  S   UNL     1       8.363  -5.022  25.375  0.00  0.00    +0.000 S 
ATOM     23  N   UNL     1       9.506  -4.323  24.590  0.00  0.00    +0.000 NA
ENDBRANCH  14  15
ENDBRANCH   2  14
TORSDOF 3
ENDMDL
MODEL 9
REMARK VINA RESULT:      -6.8      1.993      2.704
REMARK  Name = 
REMARK  3 active torsions:
REMARK  status: ('A' for Active; 'I' for Inactive)
REMARK    1  A    between atoms: S_2  and  C_3
REMARK    2  A    between atoms: S_2  and  N_13
REMARK    3  A    between atoms: N_13  and  C_14
REMARK                            x       y       z     vdW  Elec       q    Type
REMARK                         _______ _______ _______ _____ _____    ______ ____
ROOT
ATOM      1  O   UNL     1       8.545  -5.300  23.779  0.00  0.00    +0.000 OA
ATOM      2  S   UNL     1       9.000  -4.484  24.883  0.00  0.00    +0.000 S 
ATOM      3  O   UNL     1      10.103  -5.052  25.626  0.00  0.00    +0.000 OA
ENDROOT
BRANCH   2   4
ATOM      4  C   UNL     1       9.501  -2.928  24.252  0.00  0.00    +0.000 C 
ATOM      5  C   UNL     1       8.426  -2.529  23.119  0.00  0.00    +0.000 C 
ATOM      6  C   UNL     1       8.048  -1.299  22.616  0.00  0.00    +0.000 A 
ATOM      7  C   UNL     1       7.752  -0.135  23.538  0.00  0.00    +0.000 A 
ATOM      8  C   UNL     1       8.055   1.153  22.992  0.00  0.00    +0.000 A 
ATOM      9  C   UNL     1       8.491   1.321  21.667  0.00  0.00    +0.000 A 
ATOM     10  C   UNL     1       8.519   0.220  20.780  0.00  0.00    +0.000 A 
ATOM     11  C   UNL     1       8.132  -1.049  21.250  0.00  0.00    +0.000 A 
ATOM     12  C   UNL     1       8.632  -0.504  24.681  0.00  0.00    +0.000 C 
ATOM     13  C   UNL     1       8.992  -1.781  25.259  0.00  0.00    +0.000 C 
ENDBRANCH   2   4
BRANCH   2  14
ATOM     14  N   UNL     1       7.735  -4.287  25.924  0.00  0.00    +0.000 NA
BRANCH  14  15
ATOM     15  C   UNL     1       6.639  -5.135  25.535  0.00  0.00    +0.000 C 
ATOM     16  C   UNL     1       5.497  -4.382  25.015  0.00  0.00    +0.000 C 
ATOM     17  C   UNL     1       4.181  -4.751  25.884  0.00  0.00    +0.000 C 
ATOM     18  C   UNL     1       2.977  -5.300  25.589  0.00  0.00    +0.000 C 
ATOM     19  C   UNL     1       2.378  -5.431  24.202  0.00  0.00    +0.000 C 
ATOM     20  C   UNL     1       3.525  -4.838  23.411  0.00  0.00    +0.000 C 
ATOM     21  C   UNL     1       4.945  -5.127  23.687  0.00  0.00    +0.000 C 
ATOM     22  S   UNL     1       4.975  -5.801  27.155  0.00  0.00    +0.000 S 
ATOM     23  N   UNL     1       6.356  -6.124  26.524  0.00  0.00    +0.000 NA
ENDBRANCH  14  15
ENDBRANCH   2  14
TORSDOF 3
ENDMDL
