MODEL 1
REMARK VINA RESULT:      -7.1      0.000      0.000
REMARK  Name = 
REMARK  7 active torsions:
REMARK  status: ('A' for Active; 'I' for Inactive)
REMARK    1  A    between atoms: C_4  and  N_5
REMARK    2  A    between atoms: N_5  and  C_6
REMARK    3  A    between atoms: N_5  and  C_20
REMARK    4  A    between atoms: C_6  and  C_7
REMARK    5  A    between atoms: C_9  and  C_10
REMARK    6  A    between atoms: C_10  and  N_11
REMARK    7  A    between atoms: C_20  and  C_21
REMARK                            x       y       z     vdW  Elec       q    Type
REMARK                         _______ _______ _______ _____ _____    ______ ____
ROOT
ATOM      1  C   UNL     1       7.970  -1.765  24.156  0.00  0.00    +0.000 C 
ENDROOT
BRANCH   1   2
ATOM      2  C   UNL     1       9.420  -1.321  24.027  0.00  0.00    +0.000 C 
ATOM      3  C   UNL     1       9.615  -1.179  22.413  0.00  0.00    +0.000 C 
ATOM      4  C   UNL     1       9.420  -0.109  21.577  0.00  0.00    +0.000 C 
ATOM      5  C   UNL     1       9.994   1.271  21.909  0.00  0.00    +0.000 C 
ATOM      6  C   UNL     1      10.270   1.054  23.383  0.00  0.00    +0.000 C 
ATOM      7  C   UNL     1       9.389   0.277  24.271  0.00  0.00    +0.000 C 
BRANCH   4   8
ATOM      8  C   UNL     1       8.457  -0.127  20.422  0.00  0.00    +0.000 C 
BRANCH   8   9
ATOM      9  N   UNL     1       7.112   0.016  20.978  0.00  0.00    +0.000 NA
ATOM     10  C   UNL     1       6.403  -1.205  20.652  0.00  0.00    +0.000 C 
ATOM     11  C   UNL     1       5.781  -1.022  19.263  0.00  0.00    +0.000 C 
ATOM     12  O   UNL     1       6.792  -0.509  18.432  0.00  0.00    +0.000 OA
ATOM     13  C   UNL     1       6.929   0.856  18.728  0.00  0.00    +0.000 C 
ATOM     14  C   UNL     1       6.492   1.062  20.176  0.00  0.00    +0.000 C 
ENDBRANCH   8   9
ENDBRANCH   4   8
ENDBRANCH   1   2
BRANCH   1  15
ATOM     15  N   UNL     1       7.923  -3.156  24.575  0.00  0.00    +0.000 N 
BRANCH  15  19
ATOM     16  C   UNL     1       5.642  -4.925  27.786  0.00  0.00    +0.000 C 
ATOM     17  C   UNL     1       5.745  -3.542  26.930  0.00  0.00    +0.000 C 
ATOM     18  C   UNL     1       6.917  -2.774  26.740  0.00  0.00    +0.000 C 
ATOM     19  C   UNL     1       8.044  -3.425  25.933  0.00  0.00    +0.000 C 
ATOM     20  C   UNL     1       7.760  -4.871  26.263  0.00  0.00    +0.000 C 
ATOM     21  C   UNL     1       7.186  -5.343  27.546  0.00  0.00    +0.000 C 
ENDBRANCH  15  19
BRANCH  15  22
ATOM     22  C   UNL     1       8.110  -4.201  23.588  0.00  0.00    +0.000 C 
BRANCH  22  23
ATOM     23  C   UNL     1       7.002  -4.149  22.553  0.00  0.00    +0.000 C 
ATOM     24  C   UNL     1       7.097  -5.385  21.675  0.00  0.00    +0.000 C 
ATOM     25  C   UNL     1       5.950  -6.219  21.597  0.00  0.00    +0.000 C 
ATOM     26  S   UNL     1       4.813  -5.754  22.861  0.00  0.00    +0.000 S 
ATOM     27  C   UNL     1       5.645  -4.195  23.252  0.00  0.00    +0.000 C 
ENDBRANCH  22  23
ENDBRANCH  15  22
ENDBRANCH   1  15
TORSDOF 7
ENDMDL
MODEL 2
REMARK VINA RESULT:      -6.9      1.781      3.282
REMARK  Name = 
REMARK  7 active torsions:
REMARK  status: ('A' for Active; 'I' for Inactive)
REMARK    1  A    between atoms: C_4  and  N_5
REMARK    2  A    between atoms: N_5  and  C_6
REMARK    3  A    between atoms: N_5  and  C_20
REMARK    4  A    between atoms: C_6  and  C_7
REMARK    5  A    between atoms: C_9  and  C_10
REMARK    6  A    between atoms: C_10  and  N_11
REMARK    7  A    between atoms: C_20  and  C_21
REMARK                            x       y       z     vdW  Elec       q    Type
REMARK                         _______ _______ _______ _____ _____    ______ ____
ROOT
ATOM      1  C   UNL     1       7.903  -2.149  23.746  0.00  0.00    +0.000 C 
ENDROOT
BRANCH   1   2
ATOM      2  C   UNL     1       9.350  -1.681  23.678  0.00  0.00    +0.000 C 
ATOM      3  C   UNL     1       9.546  -1.334  22.095  0.00  0.00    +0.000 C 
ATOM      4  C   UNL     1       9.344  -0.169  21.400  0.00  0.00    +0.000 C 
ATOM      5  C   UNL     1       9.906   1.162  21.905  0.00  0.00    +0.000 C 
ATOM      6  C   UNL     1      10.181   0.764  23.341  0.00  0.00    +0.000 C 
ATOM      7  C   UNL     1       9.305  -0.126  24.121  0.00  0.00    +0.000 C 
BRANCH   4   8
ATOM      8  C   UNL     1       8.383  -0.049  20.250  0.00  0.00    +0.000 C 
BRANCH   8   9
ATOM      9  N   UNL     1       7.039   0.043  20.817  0.00  0.00    +0.000 NA
ATOM     10  C   UNL     1       6.374  -1.205  20.499  0.00  0.00    +0.000 C 
ATOM     11  C   UNL     1       5.734  -1.049  19.115  0.00  0.00    +0.000 C 
ATOM     12  O   UNL     1       6.717  -0.499  18.274  0.00  0.00    +0.000 OA
ATOM     13  C   UNL     1       6.804   0.871  18.567  0.00  0.00    +0.000 C 
ATOM     14  C   UNL     1       6.372   1.063  20.019  0.00  0.00    +0.000 C 
ENDBRANCH   8   9
ENDBRANCH   4   8
ENDBRANCH   1   2
BRANCH   1  15
ATOM     15  N   UNL     1       7.757  -3.119  24.818  0.00  0.00    +0.000 N 
BRANCH  15  19
ATOM     16  C   UNL     1       5.468  -6.000  22.557  0.00  0.00    +0.000 C 
ATOM     17  C   UNL     1       5.456  -5.233  23.995  0.00  0.00    +0.000 C 
ATOM     18  C   UNL     1       6.524  -5.196  24.920  0.00  0.00    +0.000 C 
ATOM     19  C   UNL     1       7.795  -4.466  24.478  0.00  0.00    +0.000 C 
ATOM     20  C   UNL     1       7.683  -4.690  22.988  0.00  0.00    +0.000 C 
ATOM     21  C   UNL     1       7.070  -5.885  22.361  0.00  0.00    +0.000 C 
ENDBRANCH  15  19
BRANCH  15  22
ATOM     22  C   UNL     1       7.234  -2.688  26.099  0.00  0.00    +0.000 C 
BRANCH  22  23
ATOM     23  C   UNL     1       6.307  -1.501  25.915  0.00  0.00    +0.000 C 
ATOM     24  C   UNL     1       4.874  -2.005  25.883  0.00  0.00    +0.000 C 
ATOM     25  C   UNL     1       3.971  -1.460  26.835  0.00  0.00    +0.000 C 
ATOM     26  S   UNL     1       4.884  -0.576  28.055  0.00  0.00    +0.000 S 
ATOM     27  C   UNL     1       6.430  -0.564  27.114  0.00  0.00    +0.000 C 
ENDBRANCH  22  23
ENDBRANCH  15  22
ENDBRANCH   1  15
TORSDOF 7
ENDMDL
MODEL 3
REMARK VINA RESULT:      -6.7      2.395      6.113
REMARK  Name = 
REMARK  7 active torsions:
REMARK  status: ('A' for Active; 'I' for Inactive)
REMARK    1  A    between atoms: C_4  and  N_5
REMARK    2  A    between atoms: N_5  and  C_6
REMARK    3  A    between atoms: N_5  and  C_20
REMARK    4  A    between atoms: C_6  and  C_7
REMARK    5  A    between atoms: C_9  and  C_10
REMARK    6  A    between atoms: C_10  and  N_11
REMARK    7  A    between atoms: C_20  and  C_21
REMARK                            x       y       z     vdW  Elec       q    Type
REMARK                         _______ _______ _______ _____ _____    ______ ____
ROOT
ATOM      1  C   UNL     1       8.765  -2.240  23.897  0.00  0.00    +0.000 C 
ENDROOT
BRANCH   1   2
ATOM      2  C   UNL     1       8.808  -2.497  25.397  0.00  0.00    +0.000 C 
ATOM      3  C   UNL     1       7.273  -2.938  25.734  0.00  0.00    +0.000 C 
ATOM      4  C   UNL     1       6.675  -4.173  25.739  0.00  0.00    +0.000 C 
ATOM      5  C   UNL     1       7.322  -5.363  26.451  0.00  0.00    +0.000 C 
ATOM      6  C   UNL     1       8.728  -4.814  26.582  0.00  0.00    +0.000 C 
ATOM      7  C   UNL     1       9.385  -4.000  25.544  0.00  0.00    +0.000 C 
BRANCH   4   8
ATOM      8  C   UNL     1       5.496  -4.524  24.874  0.00  0.00    +0.000 C 
BRANCH   8   9
ATOM      9  N   UNL     1       5.826  -5.763  24.174  0.00  0.00    +0.000 NA
ATOM     10  C   UNL     1       6.602  -5.382  23.011  0.00  0.00    +0.000 C 
ATOM     11  C   UNL     1       5.617  -5.077  21.877  0.00  0.00    +0.000 C 
ATOM     12  O   UNL     1       4.628  -4.235  22.416  0.00  0.00    +0.000 OA
ATOM     13  C   UNL     1       3.759  -5.035  23.173  0.00  0.00    +0.000 C 
ATOM     14  C   UNL     1       4.551  -6.247  23.661  0.00  0.00    +0.000 C 
ENDBRANCH   8   9
ENDBRANCH   4   8
ENDBRANCH   1   2
BRANCH   1  15
ATOM     15  N   UNL     1       8.404  -0.853  23.653  0.00  0.00    +0.000 N 
BRANCH  15  19
ATOM     16  C   UNL     1      10.029   3.147  23.578  0.00  0.00    +0.000 C 
ATOM     17  C   UNL     1      10.468   1.605  23.284  0.00  0.00    +0.000 C 
ATOM     18  C   UNL     1      10.323   0.520  24.179  0.00  0.00    +0.000 C 
ATOM     19  C   UNL     1       8.892   0.105  24.533  0.00  0.00    +0.000 C 
ATOM     20  C   UNL     1       8.214   1.444  24.364  0.00  0.00    +0.000 C 
ATOM     21  C   UNL     1       8.860   2.752  24.625  0.00  0.00    +0.000 C 
ENDBRANCH  15  19
BRANCH  15  22
ATOM     22  C   UNL     1       7.302  -0.554  22.760  0.00  0.00    +0.000 C 
BRANCH  22  23
ATOM     23  C   UNL     1       7.556  -1.161  21.393  0.00  0.00    +0.000 C 
ATOM     24  C   UNL     1       6.219  -1.501  20.756  0.00  0.00    +0.000 C 
ATOM     25  C   UNL     1       5.934  -0.923  19.490  0.00  0.00    +0.000 C 
ATOM     26  S   UNL     1       7.109   0.348  19.160  0.00  0.00    +0.000 S 
ATOM     27  C   UNL     1       8.235  -0.131  20.493  0.00  0.00    +0.000 C 
ENDBRANCH  22  23
ENDBRANCH  15  22
ENDBRANCH   1  15
TORSDOF 7
ENDMDL
MODEL 4
REMARK VINA RESULT:      -6.6      2.760      6.975
REMARK  Name = 
REMARK  7 active torsions:
REMARK  status: ('A' for Active; 'I' for Inactive)
REMARK    1  A    between atoms: C_4  and  N_5
REMARK    2  A    between atoms: N_5  and  C_6
REMARK    3  A    between atoms: N_5  and  C_20
REMARK    4  A    between atoms: C_6  and  C_7
REMARK    5  A    between atoms: C_9  and  C_10
REMARK    6  A    between atoms: C_10  and  N_11
REMARK    7  A    between atoms: C_20  and  C_21
REMARK                            x       y       z     vdW  Elec       q    Type
REMARK                         _______ _______ _______ _____ _____    ______ ____
ROOT
ATOM      1  C   UNL     1       7.521  -2.548  22.638  0.00  0.00    +0.000 C 
ENDROOT
BRANCH   1   2
ATOM      2  C   UNL     1       7.675  -3.977  22.138  0.00  0.00    +0.000 C 
ATOM      3  C   UNL     1       7.417  -4.863  23.485  0.00  0.00    +0.000 C 
ATOM      4  C   UNL     1       6.261  -5.381  24.011  0.00  0.00    +0.000 C 
ATOM      5  C   UNL     1       5.275  -6.163  23.139  0.00  0.00    +0.000 C 
ATOM      6  C   UNL     1       5.769  -5.715  21.778  0.00  0.00    +0.000 C 
ATOM      7  C   UNL     1       6.240  -4.348  21.492  0.00  0.00    +0.000 C 
BRANCH   4   8
ATOM      8  C   UNL     1       5.749  -5.036  25.382  0.00  0.00    +0.000 C 
BRANCH   8   9
ATOM      9  N   UNL     1       6.336  -5.995  26.316  0.00  0.00    +0.000 NA
ATOM     10  C   UNL     1       5.332  -6.246  27.331  0.00  0.00    +0.000 C 
ATOM     11  C   UNL     1       5.498  -5.178  28.419  0.00  0.00    +0.000 C 
ATOM     12  O   UNL     1       5.592  -3.940  27.760  0.00  0.00    +0.000 OA
ATOM     13  C   UNL     1       6.890  -3.839  27.236  0.00  0.00    +0.000 C 
ATOM     14  C   UNL     1       7.400  -5.255  26.983  0.00  0.00    +0.000 C 
ENDBRANCH   8   9
ENDBRANCH   4   8
ENDBRANCH   1   2
BRANCH   1  15
ATOM     15  N   UNL     1       8.523  -1.704  22.010  0.00  0.00    +0.000 N 
BRANCH  15  19
ATOM     16  C   UNL     1       9.898   1.488  24.573  0.00  0.00    +0.000 C 
ATOM     17  C   UNL     1       9.706   1.137  22.993  0.00  0.00    +0.000 C 
ATOM     18  C   UNL     1      10.213  -0.005  22.334  0.00  0.00    +0.000 C 
ATOM     19  C   UNL     1       9.640  -1.359  22.761  0.00  0.00    +0.000 C 
ATOM     20  C   UNL     1       9.293  -1.022  24.192  0.00  0.00    +0.000 C 
ATOM     21  C   UNL     1      10.040  -0.057  25.033  0.00  0.00    +0.000 C 
ENDBRANCH  15  19
BRANCH  15  22
ATOM     22  C   UNL     1       8.182  -0.975  20.804  0.00  0.00    +0.000 C 
BRANCH  22  23
ATOM     23  C   UNL     1       6.725  -0.552  20.842  0.00  0.00    +0.000 C 
ATOM     24  C   UNL     1       6.660   0.965  20.883  0.00  0.00    +0.000 C 
ATOM     25  C   UNL     1       5.924   1.614  19.855  0.00  0.00    +0.000 C 
ATOM     26  S   UNL     1       5.569   0.452  18.579  0.00  0.00    +0.000 S 
ATOM     27  C   UNL     1       6.028  -0.999  19.558  0.00  0.00    +0.000 C 
ENDBRANCH  22  23
ENDBRANCH  15  22
ENDBRANCH   1  15
TORSDOF 7
ENDMDL
MODEL 5
REMARK VINA RESULT:      -6.4      3.004      6.937
REMARK  Name = 
REMARK  7 active torsions:
REMARK  status: ('A' for Active; 'I' for Inactive)
REMARK    1  A    between atoms: C_4  and  N_5
REMARK    2  A    between atoms: N_5  and  C_6
REMARK    3  A    between atoms: N_5  and  C_20
REMARK    4  A    between atoms: C_6  and  C_7
REMARK    5  A    between atoms: C_9  and  C_10
REMARK    6  A    between atoms: C_10  and  N_11
REMARK    7  A    between atoms: C_20  and  C_21
REMARK                            x       y       z     vdW  Elec       q    Type
REMARK                         _______ _______ _______ _____ _____    ______ ____
ROOT
ATOM      1  C   UNL     1       8.222  -0.546  24.113  0.00  0.00    +0.000 C 
ENDROOT
BRANCH   1   2
ATOM      2  C   UNL     1       7.086  -0.273  25.089  0.00  0.00    +0.000 C 
ATOM      3  C   UNL     1       5.862  -1.168  24.482  0.00  0.00    +0.000 C 
ATOM      4  C   UNL     1       5.495  -2.467  24.725  0.00  0.00    +0.000 C 
ATOM      5  C   UNL     1       5.361  -2.999  26.154  0.00  0.00    +0.000 C 
ATOM      6  C   UNL     1       6.138  -1.915  26.874  0.00  0.00    +0.000 C 
ATOM      7  C   UNL     1       7.350  -1.281  26.326  0.00  0.00    +0.000 C 
BRANCH   4   8
ATOM      8  C   UNL     1       5.428  -3.521  23.655  0.00  0.00    +0.000 C 
BRANCH   8   9
ATOM      9  N   UNL     1       6.346  -4.591  24.043  0.00  0.00    +0.000 NA
ATOM     10  C   UNL     1       7.381  -4.632  23.029  0.00  0.00    +0.000 C 
ATOM     11  C   UNL     1       6.888  -5.547  21.902  0.00  0.00    +0.000 C 
ATOM     12  O   UNL     1       5.573  -5.149  21.603  0.00  0.00    +0.000 OA
ATOM     13  C   UNL     1       4.738  -5.664  22.606  0.00  0.00    +0.000 C 
ATOM     14  C   UNL     1       5.575  -5.816  23.874  0.00  0.00    +0.000 C 
ENDBRANCH   8   9
ENDBRANCH   4   8
ENDBRANCH   1   2
BRANCH   1  15
ATOM     15  N   UNL     1       8.091   0.328  22.959  0.00  0.00    +0.000 N 
BRANCH  15  19
ATOM     16  C   UNL     1       6.138  -0.643  19.232  0.00  0.00    +0.000 C 
ATOM     17  C   UNL     1       6.323  -1.223  20.744  0.00  0.00    +0.000 C 
ATOM     18  C   UNL     1       7.556  -1.440  21.399  0.00  0.00    +0.000 C 
ATOM     19  C   UNL     1       8.399  -0.201  21.711  0.00  0.00    +0.000 C 
ATOM     20  C   UNL     1       7.937   0.685  20.578  0.00  0.00    +0.000 C 
ATOM     21  C   UNL     1       7.523   0.193  19.243  0.00  0.00    +0.000 C 
ENDBRANCH  15  19
BRANCH  15  22
ATOM     22  C   UNL     1       8.000   1.760  23.161  0.00  0.00    +0.000 C 
BRANCH  22  23
ATOM     23  C   UNL     1       9.100   2.229  24.094  0.00  0.00    +0.000 C 
ATOM     24  C   UNL     1      10.379   2.399  23.292  0.00  0.00    +0.000 C 
ATOM     25  C   UNL     1      11.001   3.676  23.319  0.00  0.00    +0.000 C 
ATOM     26  S   UNL     1       9.885   4.845  24.023  0.00  0.00    +0.000 S 
ATOM     27  C   UNL     1       8.739   3.599  24.664  0.00  0.00    +0.000 C 
ENDBRANCH  22  23
ENDBRANCH  15  22
ENDBRANCH   1  15
TORSDOF 7
ENDMDL
MODEL 6
REMARK VINA RESULT:      -6.3      2.659      6.654
REMARK  Name = 
REMARK  7 active torsions:
REMARK  status: ('A' for Active; 'I' for Inactive)
REMARK    1  A    between atoms: C_4  and  N_5
REMARK    2  A    between atoms: N_5  and  C_6
REMARK    3  A    between atoms: N_5  and  C_20
REMARK    4  A    between atoms: C_6  and  C_7
REMARK    5  A    between atoms: C_9  and  C_10
REMARK    6  A    between atoms: C_10  and  N_11
REMARK    7  A    between atoms: C_20  and  C_21
REMARK                            x       y       z     vdW  Elec       q    Type
REMARK                         _______ _______ _______ _____ _____    ______ ____
ROOT
ATOM      1  C   UNL     1       8.420  -0.289  23.244  0.00  0.00    +0.000 C 
ENDROOT
BRANCH   1   2
ATOM      2  C   UNL     1       7.894  -0.330  24.672  0.00  0.00    +0.000 C 
ATOM      3  C   UNL     1       6.640  -1.370  24.567  0.00  0.00    +0.000 C 
ATOM      4  C   UNL     1       6.589  -2.732  24.719  0.00  0.00    +0.000 C 
ATOM      5  C   UNL     1       7.240  -3.420  25.920  0.00  0.00    +0.000 C 
ATOM      6  C   UNL     1       8.145  -2.290  26.368  0.00  0.00    +0.000 C 
ATOM      7  C   UNL     1       8.846  -1.391  25.435  0.00  0.00    +0.000 C 
BRANCH   4   8
ATOM      8  C   UNL     1       6.119  -3.667  23.638  0.00  0.00    +0.000 C 
BRANCH   8   9
ATOM      9  N   UNL     1       6.677  -4.985  23.934  0.00  0.00    +0.000 NA
ATOM     10  C   UNL     1       7.448  -5.374  22.770  0.00  0.00    +0.000 C 
ATOM     11  C   UNL     1       6.492  -6.066  21.792  0.00  0.00    +0.000 C 
ATOM     12  O   UNL     1       5.356  -5.245  21.687  0.00  0.00    +0.000 OA
ATOM     13  C   UNL     1       4.581  -5.446  22.839  0.00  0.00    +0.000 C 
ATOM     14  C   UNL     1       5.523  -5.874  23.962  0.00  0.00    +0.000 C 
ENDBRANCH   8   9
ENDBRANCH   4   8
ENDBRANCH   1   2
BRANCH   1  15
ATOM     15  N   UNL     1       8.652   1.091  22.852  0.00  0.00    +0.000 N 
BRANCH  15  19
ATOM     16  C   UNL     1      10.810   4.781  23.461  0.00  0.00    +0.000 C 
ATOM     17  C   UNL     1      11.068   3.175  23.358  0.00  0.00    +0.000 C 
ATOM     18  C   UNL     1      10.402   2.182  24.113  0.00  0.00    +0.000 C 
ATOM     19  C   UNL     1       8.901   2.015  23.860  0.00  0.00    +0.000 C 
ATOM     20  C   UNL     1       8.578   3.429  23.441  0.00  0.00    +0.000 C 
ATOM     21  C   UNL     1       9.274   4.636  23.948  0.00  0.00    +0.000 C 
ENDBRANCH  15  19
BRANCH  15  22
ATOM     22  C   UNL     1       8.275   1.524  21.521  0.00  0.00    +0.000 C 
BRANCH  22  23
ATOM     23  C   UNL     1       7.153   0.654  20.985  0.00  0.00    +0.000 C 
ATOM     24  C   UNL     1       5.959   1.539  20.670  0.00  0.00    +0.000 C 
ATOM     25  C   UNL     1       5.454   1.505  19.343  0.00  0.00    +0.000 C 
ATOM     26  S   UNL     1       6.612   0.674  18.307  0.00  0.00    +0.000 S 
ATOM     27  C   UNL     1       7.590   0.003  19.674  0.00  0.00    +0.000 C 
ENDBRANCH  22  23
ENDBRANCH  15  22
ENDBRANCH   1  15
TORSDOF 7
ENDMDL
MODEL 7
REMARK VINA RESULT:      -6.3      2.936      6.483
REMARK  Name = 
REMARK  7 active torsions:
REMARK  status: ('A' for Active; 'I' for Inactive)
REMARK    1  A    between atoms: C_4  and  N_5
REMARK    2  A    between atoms: N_5  and  C_6
REMARK    3  A    between atoms: N_5  and  C_20
REMARK    4  A    between atoms: C_6  and  C_7
REMARK    5  A    between atoms: C_9  and  C_10
REMARK    6  A    between atoms: C_10  and  N_11
REMARK    7  A    between atoms: C_20  and  C_21
REMARK                            x       y       z     vdW  Elec       q    Type
REMARK                         _______ _______ _______ _____ _____    ______ ____
ROOT
ATOM      1  C   UNL     1       7.320  -1.462  24.563  0.00  0.00    +0.000 C 
ENDROOT
BRANCH   1   2
ATOM      2  C   UNL     1       8.438  -2.063  25.404  0.00  0.00    +0.000 C 
ATOM      3  C   UNL     1       7.696  -3.302  26.164  0.00  0.00    +0.000 C 
ATOM      4  C   UNL     1       7.536  -4.614  25.796  0.00  0.00    +0.000 C 
ATOM      5  C   UNL     1       8.719  -5.446  25.295  0.00  0.00    +0.000 C 
ATOM      6  C   UNL     1       9.674  -4.314  24.972  0.00  0.00    +0.000 C 
ATOM      7  C   UNL     1       9.246  -3.030  24.390  0.00  0.00    +0.000 C 
BRANCH   4   8
ATOM      8  C   UNL     1       6.192  -5.266  25.622  0.00  0.00    +0.000 C 
BRANCH   8   9
ATOM      9  N   UNL     1       5.686  -4.871  24.309  0.00  0.00    +0.000 NA
ATOM     10  C   UNL     1       4.523  -4.041  24.550  0.00  0.00    +0.000 C 
ATOM     11  C   UNL     1       3.309  -4.968  24.671  0.00  0.00    +0.000 C 
ATOM     12  O   UNL     1       3.676  -6.002  25.551  0.00  0.00    +0.000 OA
ATOM     13  C   UNL     1       4.490  -6.895  24.836  0.00  0.00    +0.000 C 
ATOM     14  C   UNL     1       5.179  -6.106  23.725  0.00  0.00    +0.000 C 
ENDBRANCH   8   9
ENDBRANCH   4   8
ENDBRANCH   1   2
BRANCH   1  15
ATOM     15  N   UNL     1       7.790  -0.239  23.934  0.00  0.00    +0.000 N 
BRANCH  15  19
ATOM     16  C   UNL     1      10.327   3.216  23.418  0.00  0.00    +0.000 C 
ATOM     17  C   UNL     1      10.347   1.599  23.215  0.00  0.00    +0.000 C 
ATOM     18  C   UNL     1      10.026   0.640  24.202  0.00  0.00    +0.000 C 
ATOM     19  C   UNL     1       8.576   0.617  24.695  0.00  0.00    +0.000 C 
ATOM     20  C   UNL     1       8.233   2.070  24.471  0.00  0.00    +0.000 C 
ATOM     21  C   UNL     1       9.199   3.189  24.578  0.00  0.00    +0.000 C 
ENDBRANCH  15  19
BRANCH  15  22
ATOM     22  C   UNL     1       7.160   0.216  22.710  0.00  0.00    +0.000 C 
BRANCH  22  23
ATOM     23  C   UNL     1       7.582  -0.660  21.546  0.00  0.00    +0.000 C 
ATOM     24  C   UNL     1       6.344  -1.315  20.957  0.00  0.00    +0.000 C 
ATOM     25  C   UNL     1       6.086  -1.099  19.577  0.00  0.00    +0.000 C 
ATOM     26  S   UNL     1       7.123   0.202  18.995  0.00  0.00    +0.000 S 
ATOM     27  C   UNL     1       8.198   0.207  20.450  0.00  0.00    +0.000 C 
ENDBRANCH  22  23
ENDBRANCH  15  22
ENDBRANCH   1  15
TORSDOF 7
ENDMDL
MODEL 8
REMARK VINA RESULT:      -6.1      2.311      3.760
REMARK  Name = 
REMARK  7 active torsions:
REMARK  status: ('A' for Active; 'I' for Inactive)
REMARK    1  A    between atoms: C_4  and  N_5
REMARK    2  A    between atoms: N_5  and  C_6
REMARK    3  A    between atoms: N_5  and  C_20
REMARK    4  A    between atoms: C_6  and  C_7
REMARK    5  A    between atoms: C_9  and  C_10
REMARK    6  A    between atoms: C_10  and  N_11
REMARK    7  A    between atoms: C_20  and  C_21
REMARK                            x       y       z     vdW  Elec       q    Type
REMARK                         _______ _______ _______ _____ _____    ______ ____
ROOT
ATOM      1  C   UNL     1       8.291  -1.980  23.841  0.00  0.00    +0.000 C 
ENDROOT
BRANCH   1   2
ATOM      2  C   UNL     1       9.772  -1.628  23.845  0.00  0.00    +0.000 C 
ATOM      3  C   UNL     1       9.885  -0.517  22.655  0.00  0.00    +0.000 C 
ATOM      4  C   UNL     1       9.763   0.849  22.689  0.00  0.00    +0.000 C 
ATOM      5  C   UNL     1      10.508   1.686  23.732  0.00  0.00    +0.000 C 
ATOM      6  C   UNL     1      10.845   0.581  24.712  0.00  0.00    +0.000 C 
ATOM      7  C   UNL     1       9.936  -0.535  25.026  0.00  0.00    +0.000 C 
BRANCH   4   8
ATOM      8  C   UNL     1       8.737   1.607  21.892  0.00  0.00    +0.000 C 
BRANCH   8   9
ATOM      9  N   UNL     1       7.485   0.857  21.976  0.00  0.00    +0.000 NA
ATOM     10  C   UNL     1       6.688   1.262  20.834  0.00  0.00    +0.000 C 
ATOM     11  C   UNL     1       5.897   2.510  21.241  0.00  0.00    +0.000 C 
ATOM     12  O   UNL     1       6.810   3.386  21.855  0.00  0.00    +0.000 OA
ATOM     13  C   UNL     1       7.041   2.911  23.155  0.00  0.00    +0.000 C 
ATOM     14  C   UNL     1       6.808   1.402  23.146  0.00  0.00    +0.000 C 
ENDBRANCH   8   9
ENDBRANCH   4   8
ENDBRANCH   1   2
BRANCH   1  15
ATOM     15  N   UNL     1       8.034  -3.010  24.833  0.00  0.00    +0.000 N 
BRANCH  15  19
ATOM     16  C   UNL     1       5.645  -5.983  22.807  0.00  0.00    +0.000 C 
ATOM     17  C   UNL     1       5.799  -5.274  24.267  0.00  0.00    +0.000 C 
ATOM     18  C   UNL     1       6.993  -5.184  25.019  0.00  0.00    +0.000 C 
ATOM     19  C   UNL     1       8.120  -4.335  24.424  0.00  0.00    +0.000 C 
ATOM     20  C   UNL     1       7.795  -4.511  22.960  0.00  0.00    +0.000 C 
ATOM     21  C   UNL     1       7.184  -5.728  22.375  0.00  0.00    +0.000 C 
ENDBRANCH  15  19
BRANCH  15  22
ATOM     22  C   UNL     1       7.369  -2.653  26.071  0.00  0.00    +0.000 C 
BRANCH  22  23
ATOM     23  C   UNL     1       6.440  -1.475  25.846  0.00  0.00    +0.000 C 
ATOM     24  C   UNL     1       5.009  -1.984  25.807  0.00  0.00    +0.000 C 
ATOM     25  C   UNL     1       4.091  -1.420  26.733  0.00  0.00    +0.000 C 
ATOM     26  S   UNL     1       4.985  -0.505  27.945  0.00  0.00    +0.000 S 
ATOM     27  C   UNL     1       6.543  -0.509  27.025  0.00  0.00    +0.000 C 
ENDBRANCH  22  23
ENDBRANCH  15  22
ENDBRANCH   1  15
TORSDOF 7
ENDMDL
MODEL 9
REMARK VINA RESULT:      -6.1      2.072      4.312
REMARK  Name = 
REMARK  7 active torsions:
REMARK  status: ('A' for Active; 'I' for Inactive)
REMARK    1  A    between atoms: C_4  and  N_5
REMARK    2  A    between atoms: N_5  and  C_6
REMARK    3  A    between atoms: N_5  and  C_20
REMARK    4  A    between atoms: C_6  and  C_7
REMARK    5  A    between atoms: C_9  and  C_10
REMARK    6  A    between atoms: C_10  and  N_11
REMARK    7  A    between atoms: C_20  and  C_21
REMARK                            x       y       z     vdW  Elec       q    Type
REMARK                         _______ _______ _______ _____ _____    ______ ____
ROOT
ATOM      1  C   UNL     1       6.697  -3.306  25.034  0.00  0.00    +0.000 C 
ENDROOT
BRANCH   1   2
ATOM      2  C   UNL     1       7.944  -3.023  25.861  0.00  0.00    +0.000 C 
ATOM      3  C   UNL     1       8.938  -2.303  24.785  0.00  0.00    +0.000 C 
ATOM      4  C   UNL     1       9.096  -0.981  24.455  0.00  0.00    +0.000 C 
ATOM      5  C   UNL     1       9.261   0.090  25.536  0.00  0.00    +0.000 C 
ATOM      6  C   UNL     1       8.747  -0.701  26.722  0.00  0.00    +0.000 C 
ATOM      7  C   UNL     1       7.620  -1.646  26.643  0.00  0.00    +0.000 C 
BRANCH   4   8
ATOM      8  C   UNL     1       8.888  -0.444  23.066  0.00  0.00    +0.000 C 
BRANCH   8   9
ATOM      9  N   UNL     1       7.447  -0.431  22.820  0.00  0.00    +0.000 NA
ATOM     10  C   UNL     1       7.228  -1.226  21.628  0.00  0.00    +0.000 C 
ATOM     11  C   UNL     1       7.381  -0.297  20.418  0.00  0.00    +0.000 C 
ATOM     12  O   UNL     1       8.568   0.430  20.614  0.00  0.00    +0.000 OA
ATOM     13  C   UNL     1       8.295   1.436  21.555  0.00  0.00    +0.000 C 
ATOM     14  C   UNL     1       7.152   0.945  22.440  0.00  0.00    +0.000 C 
ENDBRANCH   8   9
ENDBRANCH   4   8
ENDBRANCH   1   2
BRANCH   1  15
ATOM     15  N   UNL     1       6.167  -4.612  25.387  0.00  0.00    +0.000 N 
BRANCH  15  19
ATOM     16  C   UNL     1       5.956  -5.744  21.225  0.00  0.00    +0.000 C 
ATOM     17  C   UNL     1       5.009  -5.625  22.546  0.00  0.00    +0.000 C 
ATOM     18  C   UNL     1       5.273  -6.208  23.806  0.00  0.00    +0.000 C 
ATOM     19  C   UNL     1       6.495  -5.685  24.566  0.00  0.00    +0.000 C 
ATOM     20  C   UNL     1       7.342  -5.271  23.386  0.00  0.00    +0.000 C 
ATOM     21  C   UNL     1       7.326  -5.942  22.064  0.00  0.00    +0.000 C 
ENDBRANCH  15  19
BRANCH  15  22
ATOM     22  C   UNL     1       5.067  -4.701  26.327  0.00  0.00    +0.000 C 
BRANCH  22  23
ATOM     23  C   UNL     1       5.543  -5.309  27.634  0.00  0.00    +0.000 C 
ATOM     24  C   UNL     1       4.980  -4.492  28.783  0.00  0.00    +0.000 C 
ATOM     25  C   UNL     1       4.198  -5.178  29.750  0.00  0.00    +0.000 C 
ATOM     26  S   UNL     1       3.797  -6.780  29.134  0.00  0.00    +0.000 S 
ATOM     27  C   UNL     1       4.987  -6.725  27.772  0.00  0.00    +0.000 C 
ENDBRANCH  22  23
ENDBRANCH  15  22
ENDBRANCH   1  15
TORSDOF 7
ENDMDL
