MODEL 1
REMARK VINA RESULT:      -7.1      0.000      0.000
REMARK  Name = 
REMARK  4 active torsions:
REMARK  status: ('A' for Active; 'I' for Inactive)
REMARK    1  A    between atoms: C_6  and  C_7
REMARK    2  A    between atoms: C_7  and  N_8
REMARK    3  A    between atoms: N_8  and  C_9
REMARK    4  A    between atoms: C_18  and  S_19
REMARK                            x       y       z     vdW  Elec       q    Type
REMARK                         _______ _______ _______ _____ _____    ______ ____
ROOT
ATOM      1  C   UNL     1       7.385  -3.256  23.152  0.00  0.00    +0.000 C 
ATOM      2  C   UNL     1       7.307  -2.696  24.524  0.00  0.00    +0.000 C 
ATOM      3  C   UNL     1       6.445  -3.882  25.307  0.00  0.00    +0.000 C 
ATOM      4  C   UNL     1       7.013  -5.195  25.530  0.00  0.00    +0.000 C 
ATOM      5  C   UNL     1       7.992  -5.210  26.694  0.00  0.00    +0.000 C 
ATOM      6  C   UNL     1       8.618  -3.842  26.507  0.00  0.00    +0.000 C 
ATOM      7  C   UNL     1       8.687  -3.091  25.252  0.00  0.00    +0.000 C 
ATOM      8  C   UNL     1       5.104  -3.899  24.838  0.00  0.00    +0.000 C 
ATOM      9  C   UNL     1       4.938  -3.374  23.502  0.00  0.00    +0.000 C 
ATOM     10  C   UNL     1       6.082  -3.621  22.535  0.00  0.00    +0.000 C 
ENDROOT
BRANCH  10  11
ATOM     11  S   UNL     1       6.077  -5.368  22.124  0.00  0.00    +0.000 S 
ATOM     12  O   UNL     1       7.326  -5.909  22.568  0.00  0.00    +0.000 OA
ATOM     13  O   UNL     1       4.894  -5.930  22.718  0.00  0.00    +0.000 OA
ATOM     14  N   UNL     1       5.971  -5.528  20.491  0.00  0.00    +0.000 NA
ENDBRANCH  10  11
BRANCH   1  15
ATOM     15  N   UNL     1       8.421  -2.903  22.346  0.00  0.00    +0.000 NA
BRANCH  15  16
ATOM     16  C   UNL     1       8.475  -1.486  22.118  0.00  0.00    +0.000 C 
BRANCH  16  22
ATOM     17  C   UNL     1       6.388   1.680  23.432  0.00  0.00    +0.000 C 
ATOM     18  N   UNL     1       7.653   1.043  23.166  0.00  0.00    +0.000 NA
ATOM     19  C   UNL     1       8.507   1.286  24.302  0.00  0.00    +0.000 C 
ATOM     20  C   UNL     1       9.719   0.349  24.200  0.00  0.00    +0.000 C 
ATOM     21  N   UNL     1      10.049   0.233  22.769  0.00  0.00    +0.000 N 
ATOM     22  C   UNL     1       9.918  -1.008  22.211  0.00  0.00    +0.000 C 
ATOM     23  O   UNL     1      10.830  -1.803  22.282  0.00  0.00    +0.000 OA
ATOM     24  C   UNL     1       9.718   1.379  21.924  0.00  0.00    +0.000 C 
ATOM     25  C   UNL     1       8.234   1.673  22.020  0.00  0.00    +0.000 C 
ENDBRANCH  16  22
ENDBRANCH  15  16
ENDBRANCH   1  15
TORSDOF 4
ENDMDL
MODEL 2
REMARK VINA RESULT:      -7.0      2.718      5.882
REMARK  Name = 
REMARK  4 active torsions:
REMARK  status: ('A' for Active; 'I' for Inactive)
REMARK    1  A    between atoms: C_6  and  C_7
REMARK    2  A    between atoms: C_7  and  N_8
REMARK    3  A    between atoms: N_8  and  C_9
REMARK    4  A    between atoms: C_18  and  S_19
REMARK                            x       y       z     vdW  Elec       q    Type
REMARK                         _______ _______ _______ _____ _____    ______ ____
ROOT
ATOM      1  C   UNL     1       7.532  -0.531  23.184  0.00  0.00    +0.000 C 
ATOM      2  C   UNL     1       8.773  -0.264  23.954  0.00  0.00    +0.000 C 
ATOM      3  C   UNL     1       9.703   0.501  22.808  0.00  0.00    +0.000 C 
ATOM      4  C   UNL     1       9.347   1.814  22.312  0.00  0.00    +0.000 C 
ATOM      5  C   UNL     1       9.725   2.921  23.283  0.00  0.00    +0.000 C 
ATOM      6  C   UNL     1       9.439   2.209  24.591  0.00  0.00    +0.000 C 
ATOM      7  C   UNL     1       8.510   1.093  24.778  0.00  0.00    +0.000 C 
ATOM      8  C   UNL     1      10.086  -0.421  21.797  0.00  0.00    +0.000 C 
ATOM      9  C   UNL     1       9.189  -1.544  21.651  0.00  0.00    +0.000 C 
ATOM     10  C   UNL     1       7.718  -1.268  21.906  0.00  0.00    +0.000 C 
ENDROOT
BRANCH  10  11
ATOM     11  S   UNL     1       7.107  -0.275  20.542  0.00  0.00    +0.000 S 
ATOM     12  O   UNL     1       6.625   0.953  21.099  0.00  0.00    +0.000 OA
ATOM     13  O   UNL     1       8.185  -0.164  19.596  0.00  0.00    +0.000 OA
ATOM     14  N   UNL     1       5.859  -1.070  19.825  0.00  0.00    +0.000 NA
ENDBRANCH  10  11
BRANCH   1  15
ATOM     15  N   UNL     1       6.350  -0.644  23.845  0.00  0.00    +0.000 NA
BRANCH  15  16
ATOM     16  C   UNL     1       5.956  -2.012  24.028  0.00  0.00    +0.000 C 
BRANCH  16  22
ATOM     17  C   UNL     1       7.126  -5.209  21.901  0.00  0.00    +0.000 C 
ATOM     18  N   UNL     1       6.987  -4.537  23.169  0.00  0.00    +0.000 NA
ATOM     19  C   UNL     1       8.220  -4.716  23.892  0.00  0.00    +0.000 C 
ATOM     20  C   UNL     1       8.228  -3.741  25.077  0.00  0.00    +0.000 C 
ATOM     21  N   UNL     1       6.841  -3.656  25.568  0.00  0.00    +0.000 N 
ATOM     22  C   UNL     1       6.231  -2.437  25.464  0.00  0.00    +0.000 C 
ATOM     23  O   UNL     1       6.380  -1.609  26.337  0.00  0.00    +0.000 OA
ATOM     24  C   UNL     1       6.003  -4.837  25.374  0.00  0.00    +0.000 C 
ATOM     25  C   UNL     1       5.937  -5.179  23.899  0.00  0.00    +0.000 C 
ENDBRANCH  16  22
ENDBRANCH  15  16
ENDBRANCH   1  15
TORSDOF 4
ENDMDL
MODEL 3
REMARK VINA RESULT:      -6.9      2.723      6.294
REMARK  Name = 
REMARK  4 active torsions:
REMARK  status: ('A' for Active; 'I' for Inactive)
REMARK    1  A    between atoms: C_6  and  C_7
REMARK    2  A    between atoms: C_7  and  N_8
REMARK    3  A    between atoms: N_8  and  C_9
REMARK    4  A    between atoms: C_18  and  S_19
REMARK                            x       y       z     vdW  Elec       q    Type
REMARK                         _______ _______ _______ _____ _____    ______ ____
ROOT
ATOM      1  C   UNL     1       8.414  -0.787  23.549  0.00  0.00    +0.000 C 
ATOM      2  C   UNL     1       7.040  -0.701  22.996  0.00  0.00    +0.000 C 
ATOM      3  C   UNL     1       7.074   0.800  22.284  0.00  0.00    +0.000 C 
ATOM      4  C   UNL     1       7.901   1.060  21.124  0.00  0.00    +0.000 C 
ATOM      5  C   UNL     1       7.284   0.523  19.843  0.00  0.00    +0.000 C 
ATOM      6  C   UNL     1       6.651  -0.744  20.386  0.00  0.00    +0.000 C 
ATOM      7  C   UNL     1       7.074  -1.472  21.583  0.00  0.00    +0.000 C 
ATOM      8  C   UNL     1       7.134   1.811  23.281  0.00  0.00    +0.000 C 
ATOM      9  C   UNL     1       7.712   1.374  24.531  0.00  0.00    +0.000 C 
ATOM     10  C   UNL     1       8.819   0.338  24.434  0.00  0.00    +0.000 C 
ENDROOT
BRANCH  10  11
ATOM     11  S   UNL     1      10.266   1.152  23.753  0.00  0.00    +0.000 S 
ATOM     12  O   UNL     1      11.370   0.830  24.606  0.00  0.00    +0.000 OA
ATOM     13  O   UNL     1      10.375   0.725  22.384  0.00  0.00    +0.000 OA
ATOM     14  N   UNL     1      10.022   2.777  23.778  0.00  0.00    +0.000 NA
ENDBRANCH  10  11
BRANCH   1  15
ATOM     15  N   UNL     1       8.984  -2.007  23.731  0.00  0.00    +0.000 NA
BRANCH  15  16
ATOM     16  C   UNL     1       8.457  -2.689  24.880  0.00  0.00    +0.000 C 
BRANCH  16  22
ATOM     17  C   UNL     1       4.489  -3.192  24.551  0.00  0.00    +0.000 C 
ATOM     18  N   UNL     1       5.816  -3.751  24.609  0.00  0.00    +0.000 NA
ATOM     19  C   UNL     1       5.909  -4.757  23.582  0.00  0.00    +0.000 C 
ATOM     20  C   UNL     1       7.389  -5.120  23.398  0.00  0.00    +0.000 C 
ATOM     21  N   UNL     1       8.011  -5.063  24.732  0.00  0.00    +0.000 N 
ATOM     22  C   UNL     1       8.983  -4.118  24.912  0.00  0.00    +0.000 C 
ATOM     23  O   UNL     1      10.130  -4.363  24.606  0.00  0.00    +0.000 OA
ATOM     24  C   UNL     1       7.145  -5.351  25.873  0.00  0.00    +0.000 C 
ATOM     25  C   UNL     1       5.975  -4.386  25.882  0.00  0.00    +0.000 C 
ENDBRANCH  16  22
ENDBRANCH  15  16
ENDBRANCH   1  15
TORSDOF 4
ENDMDL
MODEL 4
REMARK VINA RESULT:      -6.9      2.299      3.361
REMARK  Name = 
REMARK  4 active torsions:
REMARK  status: ('A' for Active; 'I' for Inactive)
REMARK    1  A    between atoms: C_6  and  C_7
REMARK    2  A    between atoms: C_7  and  N_8
REMARK    3  A    between atoms: N_8  and  C_9
REMARK    4  A    between atoms: C_18  and  S_19
REMARK                            x       y       z     vdW  Elec       q    Type
REMARK                         _______ _______ _______ _____ _____    ______ ____
ROOT
ATOM      1  C   UNL     1       7.426  -3.090  23.906  0.00  0.00    +0.000 C 
ATOM      2  C   UNL     1       7.812  -4.480  23.556  0.00  0.00    +0.000 C 
ATOM      3  C   UNL     1       6.980  -5.344  24.707  0.00  0.00    +0.000 C 
ATOM      4  C   UNL     1       5.533  -5.402  24.697  0.00  0.00    +0.000 C 
ATOM      5  C   UNL     1       5.002  -6.376  23.658  0.00  0.00    +0.000 C 
ATOM      6  C   UNL     1       6.024  -6.147  22.561  0.00  0.00    +0.000 C 
ATOM      7  C   UNL     1       6.825  -4.936  22.369  0.00  0.00    +0.000 C 
ATOM      8  C   UNL     1       7.546  -5.115  25.991  0.00  0.00    +0.000 C 
ATOM      9  C   UNL     1       8.243  -3.855  26.113  0.00  0.00    +0.000 C 
ATOM     10  C   UNL     1       7.676  -2.693  25.318  0.00  0.00    +0.000 C 
ENDROOT
BRANCH  10  11
ATOM     11  S   UNL     1       6.132  -2.207  26.091  0.00  0.00    +0.000 S 
ATOM     12  O   UNL     1       5.109  -2.320  25.096  0.00  0.00    +0.000 OA
ATOM     13  O   UNL     1       5.976  -3.031  27.259  0.00  0.00    +0.000 OA
ATOM     14  N   UNL     1       6.248  -0.637  26.567  0.00  0.00    +0.000 NA
ENDBRANCH  10  11
BRANCH   1  15
ATOM     15  N   UNL     1       7.432  -2.134  22.941  0.00  0.00    +0.000 NA
BRANCH  15  16
ATOM     16  C   UNL     1       8.411  -1.114  23.191  0.00  0.00    +0.000 C 
BRANCH  16  22
ATOM     17  C   UNL     1       6.328   2.248  22.509  0.00  0.00    +0.000 C 
ATOM     18  N   UNL     1       7.419   1.368  22.175  0.00  0.00    +0.000 NA
ATOM     19  C   UNL     1       8.584   2.187  21.953  0.00  0.00    +0.000 C 
ATOM     20  C   UNL     1       9.817   1.273  21.934  0.00  0.00    +0.000 C 
ATOM     21  N   UNL     1       9.404   0.012  21.292  0.00  0.00    +0.000 N 
ATOM     22  C   UNL     1       9.443  -1.111  22.071  0.00  0.00    +0.000 C 
ATOM     23  O   UNL     1      10.476  -1.736  22.179  0.00  0.00    +0.000 OA
ATOM     24  C   UNL     1       8.327   0.100  20.307  0.00  0.00    +0.000 C 
ATOM     25  C   UNL     1       7.094   0.702  20.951  0.00  0.00    +0.000 C 
ENDBRANCH  16  22
ENDBRANCH  15  16
ENDBRANCH   1  15
TORSDOF 4
ENDMDL
MODEL 5
REMARK VINA RESULT:      -6.8      2.437      3.402
REMARK  Name = 
REMARK  4 active torsions:
REMARK  status: ('A' for Active; 'I' for Inactive)
REMARK    1  A    between atoms: C_6  and  C_7
REMARK    2  A    between atoms: C_7  and  N_8
REMARK    3  A    between atoms: N_8  and  C_9
REMARK    4  A    between atoms: C_18  and  S_19
REMARK                            x       y       z     vdW  Elec       q    Type
REMARK                         _______ _______ _______ _____ _____    ______ ____
ROOT
ATOM      1  C   UNL     1       6.043  -3.239  23.635  0.00  0.00    +0.000 C 
ATOM      2  C   UNL     1       4.810  -3.948  23.210  0.00  0.00    +0.000 C 
ATOM      3  C   UNL     1       5.230  -5.528  23.509  0.00  0.00    +0.000 C 
ATOM      4  C   UNL     1       5.424  -6.008  24.861  0.00  0.00    +0.000 C 
ATOM      5  C   UNL     1       4.107  -6.278  25.572  0.00  0.00    +0.000 C 
ATOM      6  C   UNL     1       3.280  -5.145  24.996  0.00  0.00    +0.000 C 
ATOM      7  C   UNL     1       3.799  -3.885  24.461  0.00  0.00    +0.000 C 
ATOM      8  C   UNL     1       6.232  -5.947  22.591  0.00  0.00    +0.000 C 
ATOM      9  C   UNL     1       7.033  -4.869  22.059  0.00  0.00    +0.000 C 
ATOM     10  C   UNL     1       7.302  -3.704  22.994  0.00  0.00    +0.000 C 
ENDROOT
BRANCH  10  11
ATOM     11  S   UNL     1       8.446  -4.273  24.255  0.00  0.00    +0.000 S 
ATOM     12  O   UNL     1       7.808  -4.076  25.522  0.00  0.00    +0.000 OA
ATOM     13  O   UNL     1       8.790  -5.629  23.920  0.00  0.00    +0.000 OA
ATOM     14  N   UNL     1       9.808  -3.354  24.188  0.00  0.00    +0.000 NA
ENDBRANCH  10  11
BRANCH   1  15
ATOM     15  N   UNL     1       5.957  -1.952  24.063  0.00  0.00    +0.000 NA
BRANCH  15  16
ATOM     16  C   UNL     1       6.737  -1.056  23.256  0.00  0.00    +0.000 C 
BRANCH  16  22
ATOM     17  C   UNL     1       7.673   0.194  19.559  0.00  0.00    +0.000 C 
ATOM     18  N   UNL     1       7.888   0.241  20.983  0.00  0.00    +0.000 NA
ATOM     19  C   UNL     1       8.021   1.627  21.356  0.00  0.00    +0.000 C 
ATOM     20  C   UNL     1       7.909   1.725  22.883  0.00  0.00    +0.000 C 
ATOM     21  N   UNL     1       8.560   0.525  23.437  0.00  0.00    +0.000 N 
ATOM     22  C   UNL     1       7.758  -0.339  24.129  0.00  0.00    +0.000 C 
ATOM     23  O   UNL     1       7.545  -0.155  25.308  0.00  0.00    +0.000 OA
ATOM     24  C   UNL     1       9.640  -0.060  22.645  0.00  0.00    +0.000 C 
ATOM     25  C   UNL     1       9.123  -0.425  21.267  0.00  0.00    +0.000 C 
ENDBRANCH  16  22
ENDBRANCH  15  16
ENDBRANCH   1  15
TORSDOF 4
ENDMDL
MODEL 6
REMARK VINA RESULT:      -6.8      2.631      6.202
REMARK  Name = 
REMARK  4 active torsions:
REMARK  status: ('A' for Active; 'I' for Inactive)
REMARK    1  A    between atoms: C_6  and  C_7
REMARK    2  A    between atoms: C_7  and  N_8
REMARK    3  A    between atoms: N_8  and  C_9
REMARK    4  A    between atoms: C_18  and  S_19
REMARK                            x       y       z     vdW  Elec       q    Type
REMARK                         _______ _______ _______ _____ _____    ______ ____
ROOT
ATOM      1  C   UNL     1       7.293  -0.390  22.629  0.00  0.00    +0.000 C 
ATOM      2  C   UNL     1       8.176   0.383  23.537  0.00  0.00    +0.000 C 
ATOM      3  C   UNL     1       8.646   1.629  22.544  0.00  0.00    +0.000 C 
ATOM      4  C   UNL     1       7.697   2.627  22.097  0.00  0.00    +0.000 C 
ATOM      5  C   UNL     1       7.399   3.663  23.169  0.00  0.00    +0.000 C 
ATOM      6  C   UNL     1       7.444   2.769  24.394  0.00  0.00    +0.000 C 
ATOM      7  C   UNL     1       7.209   1.324  24.414  0.00  0.00    +0.000 C 
ATOM      8  C   UNL     1       9.504   1.140  21.522  0.00  0.00    +0.000 C 
ATOM      9  C   UNL     1       9.318  -0.259  21.214  0.00  0.00    +0.000 C 
ATOM     10  C   UNL     1       7.902  -0.793  21.333  0.00  0.00    +0.000 C 
ENDROOT
BRANCH  10  11
ATOM     11  S   UNL     1       6.947  -0.105  19.979  0.00  0.00    +0.000 S 
ATOM     12  O   UNL     1       6.295   1.069  20.476  0.00  0.00    +0.000 OA
ATOM     13  O   UNL     1       7.861   0.091  18.885  0.00  0.00    +0.000 OA
ATOM     14  N   UNL     1       5.809  -1.201  19.522  0.00  0.00    +0.000 NA
ENDBRANCH  10  11
BRANCH   1  15
ATOM     15  N   UNL     1       6.300  -1.154  23.157  0.00  0.00    +0.000 NA
BRANCH  15  16
ATOM     16  C   UNL     1       6.778  -2.427  23.619  0.00  0.00    +0.000 C 
BRANCH  16  22
ATOM     17  C   UNL     1       8.625  -4.413  26.577  0.00  0.00    +0.000 C 
ATOM     18  N   UNL     1       7.775  -4.417  25.413  0.00  0.00    +0.000 NA
ATOM     19  C   UNL     1       6.654  -5.276  25.698  0.00  0.00    +0.000 C 
ATOM     20  C   UNL     1       5.579  -5.033  24.629  0.00  0.00    +0.000 C 
ATOM     21  N   UNL     1       6.288  -4.782  23.362  0.00  0.00    +0.000 N 
ATOM     22  C   UNL     1       6.130  -3.542  22.809  0.00  0.00    +0.000 C 
ATOM     23  O   UNL     1       5.180  -3.314  22.093  0.00  0.00    +0.000 OA
ATOM     24  C   UNL     1       7.594  -5.419  23.203  0.00  0.00    +0.000 C 
ATOM     25  C   UNL     1       8.514  -4.983  24.326  0.00  0.00    +0.000 C 
ENDBRANCH  16  22
ENDBRANCH  15  16
ENDBRANCH   1  15
TORSDOF 4
ENDMDL
MODEL 7
REMARK VINA RESULT:      -6.7      2.895      6.249
REMARK  Name = 
REMARK  4 active torsions:
REMARK  status: ('A' for Active; 'I' for Inactive)
REMARK    1  A    between atoms: C_6  and  C_7
REMARK    2  A    between atoms: C_7  and  N_8
REMARK    3  A    between atoms: N_8  and  C_9
REMARK    4  A    between atoms: C_18  and  S_19
REMARK                            x       y       z     vdW  Elec       q    Type
REMARK                         _______ _______ _______ _____ _____    ______ ____
ROOT
ATOM      1  C   UNL     1       8.787   0.247  23.768  0.00  0.00    +0.000 C 
ATOM      2  C   UNL     1       9.691   0.924  22.805  0.00  0.00    +0.000 C 
ATOM      3  C   UNL     1       8.841   2.317  22.492  0.00  0.00    +0.000 C 
ATOM      4  C   UNL     1       8.652   3.324  23.515  0.00  0.00    +0.000 C 
ATOM      5  C   UNL     1       9.889   4.185  23.712  0.00  0.00    +0.000 C 
ATOM      6  C   UNL     1      10.959   3.132  23.498  0.00  0.00    +0.000 C 
ATOM      7  C   UNL     1      10.798   1.689  23.688  0.00  0.00    +0.000 C 
ATOM      8  C   UNL     1       7.668   2.014  21.747  0.00  0.00    +0.000 C 
ATOM      9  C   UNL     1       7.186   0.665  21.928  0.00  0.00    +0.000 C 
ATOM     10  C   UNL     1       7.386   0.057  23.305  0.00  0.00    +0.000 C 
ENDROOT
BRANCH  10  11
ATOM     11  S   UNL     1       6.262   0.884  24.433  0.00  0.00    +0.000 S 
ATOM     12  O   UNL     1       7.058   1.466  25.470  0.00  0.00    +0.000 OA
ATOM     13  O   UNL     1       5.480   1.797  23.643  0.00  0.00    +0.000 OA
ATOM     14  N   UNL     1       5.253  -0.236  25.092  0.00  0.00    +0.000 NA
ENDBRANCH  10  11
BRANCH   1  15
ATOM     15  N   UNL     1       9.308  -0.627  24.669  0.00  0.00    +0.000 NA
BRANCH  15  16
ATOM     16  C   UNL     1       8.627  -1.891  24.659  0.00  0.00    +0.000 C 
BRANCH  16  22
ATOM     17  C   UNL     1       5.702  -3.926  26.507  0.00  0.00    +0.000 C 
ATOM     18  N   UNL     1       6.936  -3.915  25.763  0.00  0.00    +0.000 NA
ATOM     19  C   UNL     1       6.838  -4.932  24.746  0.00  0.00    +0.000 C 
ATOM     20  C   UNL     1       7.976  -4.716  23.740  0.00  0.00    +0.000 C 
ATOM     21  N   UNL     1       9.143  -4.251  24.509  0.00  0.00    +0.000 N 
ATOM     22  C   UNL     1       9.592  -2.989  24.234  0.00  0.00    +0.000 C 
ATOM     23  O   UNL     1      10.372  -2.809  23.323  0.00  0.00    +0.000 OA
ATOM     24  C   UNL     1       9.236  -4.700  25.897  0.00  0.00    +0.000 C 
ATOM     25  C   UNL     1       7.996  -4.270  26.657  0.00  0.00    +0.000 C 
ENDBRANCH  16  22
ENDBRANCH  15  16
ENDBRANCH   1  15
TORSDOF 4
ENDMDL
MODEL 8
REMARK VINA RESULT:      -6.6      2.431      3.366
REMARK  Name = 
REMARK  4 active torsions:
REMARK  status: ('A' for Active; 'I' for Inactive)
REMARK    1  A    between atoms: C_6  and  C_7
REMARK    2  A    between atoms: C_7  and  N_8
REMARK    3  A    between atoms: N_8  and  C_9
REMARK    4  A    between atoms: C_18  and  S_19
REMARK                            x       y       z     vdW  Elec       q    Type
REMARK                         _______ _______ _______ _____ _____    ______ ____
ROOT
ATOM      1  C   UNL     1       6.276  -3.309  23.389  0.00  0.00    +0.000 C 
ATOM      2  C   UNL     1       5.012  -3.991  23.015  0.00  0.00    +0.000 C 
ATOM      3  C   UNL     1       5.301  -5.530  23.573  0.00  0.00    +0.000 C 
ATOM      4  C   UNL     1       5.404  -5.804  24.991  0.00  0.00    +0.000 C 
ATOM      5  C   UNL     1       4.044  -5.870  25.667  0.00  0.00    +0.000 C 
ATOM      6  C   UNL     1       3.327  -4.787  24.883  0.00  0.00    +0.000 C 
ATOM      7  C   UNL     1       3.960  -3.665  24.188  0.00  0.00    +0.000 C 
ATOM      8  C   UNL     1       6.304  -6.154  22.784  0.00  0.00    +0.000 C 
ATOM      9  C   UNL     1       7.204  -5.229  22.133  0.00  0.00    +0.000 C 
ATOM     10  C   UNL     1       7.522  -3.953  22.892  0.00  0.00    +0.000 C 
ENDROOT
BRANCH  10  11
ATOM     11  S   UNL     1       8.569  -4.393  24.281  0.00  0.00    +0.000 S 
ATOM     12  O   UNL     1       7.834  -4.095  25.473  0.00  0.00    +0.000 OA
ATOM     13  O   UNL     1       8.948  -5.768  24.095  0.00  0.00    +0.000 OA
ATOM     14  N   UNL     1       9.925  -3.464  24.237  0.00  0.00    +0.000 NA
ENDBRANCH  10  11
BRANCH   1  15
ATOM     15  N   UNL     1       6.270  -1.968  23.609  0.00  0.00    +0.000 NA
BRANCH  15  16
ATOM     16  C   UNL     1       7.372  -1.306  22.971  0.00  0.00    +0.000 C 
BRANCH  16  22
ATOM     17  C   UNL     1       9.951   1.377  24.474  0.00  0.00    +0.000 C 
ATOM     18  N   UNL     1       9.059   0.958  23.422  0.00  0.00    +0.000 NA
ATOM     19  C   UNL     1       9.725   1.199  22.167  0.00  0.00    +0.000 C 
ATOM     20  C   UNL     1       8.955   0.459  21.065  0.00  0.00    +0.000 C 
ATOM     21  N   UNL     1       7.526   0.542  21.415  0.00  0.00    +0.000 N 
ATOM     22  C   UNL     1       6.895  -0.640  21.686  0.00  0.00    +0.000 C 
ATOM     23  O   UNL     1       6.431  -1.301  20.782  0.00  0.00    +0.000 OA
ATOM     24  C   UNL     1       7.105   1.712  22.184  0.00  0.00    +0.000 C 
ATOM     25  C   UNL     1       7.889   1.780  23.479  0.00  0.00    +0.000 C 
ENDBRANCH  16  22
ENDBRANCH  15  16
ENDBRANCH   1  15
TORSDOF 4
ENDMDL
MODEL 9
REMARK VINA RESULT:      -6.5      2.774      6.210
REMARK  Name = 
REMARK  4 active torsions:
REMARK  status: ('A' for Active; 'I' for Inactive)
REMARK    1  A    between atoms: C_6  and  C_7
REMARK    2  A    between atoms: C_7  and  N_8
REMARK    3  A    between atoms: N_8  and  C_9
REMARK    4  A    between atoms: C_18  and  S_19
REMARK                            x       y       z     vdW  Elec       q    Type
REMARK                         _______ _______ _______ _____ _____    ______ ____
ROOT
ATOM      1  C   UNL     1       7.379  -0.389  23.349  0.00  0.00    +0.000 C 
ATOM      2  C   UNL     1       7.566   0.763  22.432  0.00  0.00    +0.000 C 
ATOM      3  C   UNL     1       8.014   1.955  23.500  0.00  0.00    +0.000 C 
ATOM      4  C   UNL     1       9.281   1.895  24.199  0.00  0.00    +0.000 C 
ATOM      5  C   UNL     1      10.446   2.318  23.319  0.00  0.00    +0.000 C 
ATOM      6  C   UNL     1       9.978   1.741  21.996  0.00  0.00    +0.000 C 
ATOM      7  C   UNL     1       9.050   0.621  21.826  0.00  0.00    +0.000 C 
ATOM      8  C   UNL     1       6.911   2.312  24.322  0.00  0.00    +0.000 C 
ATOM      9  C   UNL     1       5.924   1.267  24.472  0.00  0.00    +0.000 C 
ATOM     10  C   UNL     1       6.448  -0.157  24.485  0.00  0.00    +0.000 C 
ENDROOT
BRANCH  10  11
ATOM     11  S   UNL     1       7.316  -0.402  26.036  0.00  0.00    +0.000 S 
ATOM     12  O   UNL     1       8.687  -0.665  25.715  0.00  0.00    +0.000 OA
ATOM     13  O   UNL     1       7.065   0.763  26.840  0.00  0.00    +0.000 OA
ATOM     14  N   UNL     1       6.680  -1.713  26.799  0.00  0.00    +0.000 NA
ENDBRANCH  10  11
BRANCH   1  15
ATOM     15  N   UNL     1       7.538  -1.652  22.873  0.00  0.00    +0.000 NA
BRANCH  15  16
ATOM     16  C   UNL     1       6.348  -2.442  23.017  0.00  0.00    +0.000 C 
BRANCH  16  22
ATOM     17  C   UNL     1       6.885  -5.258  25.825  0.00  0.00    +0.000 C 
ATOM     18  N   UNL     1       6.584  -4.897  24.462  0.00  0.00    +0.000 NA
ATOM     19  C   UNL     1       5.470  -5.705  24.035  0.00  0.00    +0.000 C 
ATOM     20  C   UNL     1       4.919  -5.112  22.731  0.00  0.00    +0.000 C 
ATOM     21  N   UNL     1       6.075  -4.607  21.970  0.00  0.00    +0.000 N 
ATOM     22  C   UNL     1       6.120  -3.258  21.751  0.00  0.00    +0.000 C 
ATOM     23  O   UNL     1       5.539  -2.780  20.802  0.00  0.00    +0.000 OA
ATOM     24  C   UNL     1       7.351  -5.288  22.186  0.00  0.00    +0.000 C 
ATOM     25  C   UNL     1       7.719  -5.227  23.655  0.00  0.00    +0.000 C 
ENDBRANCH  16  22
ENDBRANCH  15  16
ENDBRANCH   1  15
TORSDOF 4
ENDMDL
