MODEL 1
REMARK VINA RESULT:      -5.7      0.000      0.000
REMARK  Name = 
REMARK  4 active torsions:
REMARK  status: ('A' for Active; 'I' for Inactive)
REMARK    1  A    between atoms: C_4  and  O_5
REMARK    2  A    between atoms: O_5  and  C_6
REMARK    3  A    between atoms: N_8  and  C_9
REMARK    4  A    between atoms: C_9  and  C_10
REMARK                            x       y       z     vdW  Elec       q    Type
REMARK                         _______ _______ _______ _____ _____    ______ ____
ROOT
ATOM      1  C   UNL     1       8.507   2.549  22.847  0.00  0.00    +0.000 C 
ATOM      2  C   UNL     1      10.028   2.049  23.419  0.00  0.00    +0.000 C 
ATOM      3  N   UNL     1       9.245   1.241  24.461  0.00  0.00    +0.000 NA
ATOM      4  C   UNL     1       7.862   1.397  23.833  0.00  0.00    +0.000 C 
ENDROOT
BRANCH   1   5
ATOM      5  O   UNL     1       8.495   2.079  21.592  0.00  0.00    +0.000 OA
BRANCH   5   9
ATOM      6  C   UNL     1       6.053   0.565  18.223  0.00  0.00    +0.000 C 
ATOM      7  C   UNL     1       7.449   0.194  18.916  0.00  0.00    +0.000 C 
ATOM      8  C   UNL     1       7.854   0.123  20.219  0.00  0.00    +0.000 C 
ATOM      9  C   UNL     1       7.501   1.218  21.217  0.00  0.00    +0.000 C 
ATOM     10  C   UNL     1       6.312   1.793  20.539  0.00  0.00    +0.000 C 
ATOM     11  C   UNL     1       5.448   1.333  19.479  0.00  0.00    +0.000 C 
ENDBRANCH   5   9
ENDBRANCH   1   5
BRANCH   3  12
ATOM     12  C   UNL     1       9.625  -0.035  24.580  0.00  0.00    +0.000 C 
BRANCH  12  13
ATOM     13  C   UNL     1       8.860  -1.137  23.905  0.00  0.00    +0.000 C 
ATOM     14  N   UNL     1       8.394  -2.110  24.878  0.00  0.00    +0.000 NA
ATOM     15  C   UNL     1       9.053  -3.180  24.862  0.00  0.00    +0.000 C 
ATOM     16  N   UNL     1      10.078  -3.131  23.939  0.00  0.00    +0.000 NA
ATOM     17  C   UNL     1       9.932  -1.938  23.036  0.00  0.00    +0.000 C 
ENDBRANCH  12  13
ENDBRANCH   3  12
TORSDOF 4
ENDMDL
MODEL 2
REMARK VINA RESULT:      -5.5      2.996      4.778
REMARK  Name = 
REMARK  4 active torsions:
REMARK  status: ('A' for Active; 'I' for Inactive)
REMARK    1  A    between atoms: C_4  and  O_5
REMARK    2  A    between atoms: O_5  and  C_6
REMARK    3  A    between atoms: N_8  and  C_9
REMARK    4  A    between atoms: C_9  and  C_10
REMARK                            x       y       z     vdW  Elec       q    Type
REMARK                         _______ _______ _______ _____ _____    ______ ____
ROOT
ATOM      1  C   UNL     1       7.705  -0.885  21.758  0.00  0.00    +0.000 C 
ATOM      2  C   UNL     1       6.590  -2.168  21.728  0.00  0.00    +0.000 C 
ATOM      3  N   UNL     1       7.756  -3.044  22.202  0.00  0.00    +0.000 NA
ATOM      4  C   UNL     1       8.726  -1.914  22.542  0.00  0.00    +0.000 C 
ENDROOT
BRANCH   1   5
ATOM      5  O   UNL     1       7.173  -0.053  22.665  0.00  0.00    +0.000 OA
BRANCH   5   9
ATOM      6  C   UNL     1      10.652   2.580  23.414  0.00  0.00    +0.000 C 
ATOM      7  C   UNL     1      10.002   1.829  22.157  0.00  0.00    +0.000 C 
ATOM      8  C   UNL     1       8.713   1.650  21.743  0.00  0.00    +0.000 C 
ATOM      9  C   UNL     1       7.618   1.239  22.719  0.00  0.00    +0.000 C 
ATOM     10  C   UNL     1       8.236   1.700  23.987  0.00  0.00    +0.000 C 
ATOM     11  C   UNL     1       9.329   2.590  24.299  0.00  0.00    +0.000 C 
ENDBRANCH   5   9
ENDBRANCH   1   5
BRANCH   3  12
ATOM     12  C   UNL     1       7.478  -3.828  23.248  0.00  0.00    +0.000 C 
BRANCH  12  13
ATOM     13  C   UNL     1       7.217  -5.296  23.068  0.00  0.00    +0.000 C 
ATOM     14  N   UNL     1       7.242  -5.652  21.660  0.00  0.00    +0.000 NA
ATOM     15  C   UNL     1       6.098  -5.857  21.181  0.00  0.00    +0.000 C 
ATOM     16  N   UNL     1       5.109  -5.650  22.122  0.00  0.00    +0.000 NA
ATOM     17  C   UNL     1       5.697  -5.520  23.499  0.00  0.00    +0.000 C 
ENDBRANCH  12  13
ENDBRANCH   3  12
TORSDOF 4
ENDMDL
MODEL 3
REMARK VINA RESULT:      -5.5      2.570      4.069
REMARK  Name = 
REMARK  4 active torsions:
REMARK  status: ('A' for Active; 'I' for Inactive)
REMARK    1  A    between atoms: C_4  and  O_5
REMARK    2  A    between atoms: O_5  and  C_6
REMARK    3  A    between atoms: N_8  and  C_9
REMARK    4  A    between atoms: C_9  and  C_10
REMARK                            x       y       z     vdW  Elec       q    Type
REMARK                         _______ _______ _______ _____ _____    ______ ____
ROOT
ATOM      1  C   UNL     1       7.449  -0.965  21.848  0.00  0.00    +0.000 C 
ATOM      2  C   UNL     1       6.501  -2.302  22.297  0.00  0.00    +0.000 C 
ATOM      3  N   UNL     1       7.826  -3.070  22.381  0.00  0.00    +0.000 NA
ATOM      4  C   UNL     1       8.759  -1.865  22.282  0.00  0.00    +0.000 C 
ENDROOT
BRANCH   1   5
ATOM      5  O   UNL     1       7.203  -0.086  22.829  0.00  0.00    +0.000 OA
BRANCH   5   9
ATOM      6  C   UNL     1      10.590   2.740  23.217  0.00  0.00    +0.000 C 
ATOM      7  C   UNL     1       9.999   1.769  22.088  0.00  0.00    +0.000 C 
ATOM      8  C   UNL     1       8.729   1.483  21.675  0.00  0.00    +0.000 C 
ATOM      9  C   UNL     1       7.614   1.210  22.676  0.00  0.00    +0.000 C 
ATOM     10  C   UNL     1       8.178   1.897  23.864  0.00  0.00    +0.000 C 
ATOM     11  C   UNL     1       9.239   2.859  24.051  0.00  0.00    +0.000 C 
ENDBRANCH   5   9
ENDBRANCH   1   5
BRANCH   3  12
ATOM     12  C   UNL     1       7.996  -3.773  23.506  0.00  0.00    +0.000 C 
BRANCH  12  13
ATOM     13  C   UNL     1       9.106  -3.446  24.462  0.00  0.00    +0.000 C 
ATOM     14  N   UNL     1       9.917  -4.621  24.728  0.00  0.00    +0.000 NA
ATOM     15  C   UNL     1       9.706  -5.123  25.861  0.00  0.00    +0.000 C 
ATOM     16  N   UNL     1       8.722  -4.436  26.544  0.00  0.00    +0.000 NA
ATOM     17  C   UNL     1       8.397  -3.139  25.859  0.00  0.00    +0.000 C 
ENDBRANCH  12  13
ENDBRANCH   3  12
TORSDOF 4
ENDMDL
MODEL 4
REMARK VINA RESULT:      -5.5      2.945      5.700
REMARK  Name = 
REMARK  4 active torsions:
REMARK  status: ('A' for Active; 'I' for Inactive)
REMARK    1  A    between atoms: C_4  and  O_5
REMARK    2  A    between atoms: O_5  and  C_6
REMARK    3  A    between atoms: N_8  and  C_9
REMARK    4  A    between atoms: C_9  and  C_10
REMARK                            x       y       z     vdW  Elec       q    Type
REMARK                         _______ _______ _______ _____ _____    ______ ____
ROOT
ATOM      1  C   UNL     1       9.342   0.371  23.101  0.00  0.00    +0.000 C 
ATOM      2  C   UNL     1       9.403  -0.465  21.623  0.00  0.00    +0.000 C 
ATOM      3  N   UNL     1       7.932  -0.811  21.886  0.00  0.00    +0.000 NA
ATOM      4  C   UNL     1       7.709   0.151  23.051  0.00  0.00    +0.000 C 
ENDROOT
BRANCH   1   5
ATOM      5  O   UNL     1       9.604   1.634  22.737  0.00  0.00    +0.000 OA
BRANCH   5   9
ATOM      6  C   UNL     1      10.441   5.859  23.764  0.00  0.00    +0.000 C 
ATOM      7  C   UNL     1       9.261   4.805  24.017  0.00  0.00    +0.000 C 
ATOM      8  C   UNL     1       9.250   3.479  24.347  0.00  0.00    +0.000 C 
ATOM      9  C   UNL     1      10.167   2.482  23.651  0.00  0.00    +0.000 C 
ATOM     10  C   UNL     1      11.218   3.413  23.168  0.00  0.00    +0.000 C 
ATOM     11  C   UNL     1      11.573   4.773  23.495  0.00  0.00    +0.000 C 
ENDBRANCH   5   9
ENDBRANCH   1   5
BRANCH   3  12
ATOM     12  C   UNL     1       7.111  -0.585  20.856  0.00  0.00    +0.000 C 
BRANCH  12  13
ATOM     13  C   UNL     1       7.207   0.681  20.053  0.00  0.00    +0.000 C 
ATOM     14  N   UNL     1       5.917   1.344  19.984  0.00  0.00    +0.000 NA
ATOM     15  C   UNL     1       5.355   1.220  18.868  0.00  0.00    +0.000 C 
ATOM     16  N   UNL     1       6.106   0.446  18.005  0.00  0.00    +0.000 NA
ATOM     17  C   UNL     1       7.487   0.219  18.551  0.00  0.00    +0.000 C 
ENDBRANCH  12  13
ENDBRANCH   3  12
TORSDOF 4
ENDMDL
MODEL 5
REMARK VINA RESULT:      -5.5      3.236      5.125
REMARK  Name = 
REMARK  4 active torsions:
REMARK  status: ('A' for Active; 'I' for Inactive)
REMARK    1  A    between atoms: C_4  and  O_5
REMARK    2  A    between atoms: O_5  and  C_6
REMARK    3  A    between atoms: N_8  and  C_9
REMARK    4  A    between atoms: C_9  and  C_10
REMARK                            x       y       z     vdW  Elec       q    Type
REMARK                         _______ _______ _______ _____ _____    ______ ____
ROOT
ATOM      1  C   UNL     1       8.502  -1.483  23.761  0.00  0.00    +0.000 C 
ATOM      2  C   UNL     1       8.072  -2.622  24.947  0.00  0.00    +0.000 C 
ATOM      3  N   UNL     1       7.400  -3.392  23.803  0.00  0.00    +0.000 NA
ATOM      4  C   UNL     1       7.995  -2.589  22.649  0.00  0.00    +0.000 C 
ENDROOT
BRANCH   1   5
ATOM      5  O   UNL     1       9.842  -1.512  23.797  0.00  0.00    +0.000 OA
BRANCH   5   9
ATOM      6  C   UNL     1       9.630   2.868  23.189  0.00  0.00    +0.000 C 
ATOM      7  C   UNL     1       9.942   1.869  24.401  0.00  0.00    +0.000 C 
ATOM      8  C   UNL     1      10.666   0.714  24.495  0.00  0.00    +0.000 C 
ATOM      9  C   UNL     1      10.538  -0.387  23.450  0.00  0.00    +0.000 C 
ATOM     10  C   UNL     1      10.025   0.415  22.312  0.00  0.00    +0.000 C 
ATOM     11  C   UNL     1       9.972   1.830  22.032  0.00  0.00    +0.000 C 
ENDBRANCH   5   9
ENDBRANCH   1   5
BRANCH   3  12
ATOM     12  C   UNL     1       7.705  -4.692  23.749  0.00  0.00    +0.000 C 
BRANCH  12  13
ATOM     13  C   UNL     1       6.700  -5.704  23.278  0.00  0.00    +0.000 C 
ATOM     14  N   UNL     1       7.015  -6.151  21.932  0.00  0.00    +0.000 NA
ATOM     15  C   UNL     1       6.253  -5.665  21.058  0.00  0.00    +0.000 C 
ATOM     16  N   UNL     1       5.333  -4.798  21.612  0.00  0.00    +0.000 NA
ATOM     17  C   UNL     1       5.329  -4.905  23.112  0.00  0.00    +0.000 C 
ENDBRANCH  12  13
ENDBRANCH   3  12
TORSDOF 4
ENDMDL
MODEL 6
REMARK VINA RESULT:      -5.5      1.656      2.736
REMARK  Name = 
REMARK  4 active torsions:
REMARK  status: ('A' for Active; 'I' for Inactive)
REMARK    1  A    between atoms: C_4  and  O_5
REMARK    2  A    between atoms: O_5  and  C_6
REMARK    3  A    between atoms: N_8  and  C_9
REMARK    4  A    between atoms: C_9  and  C_10
REMARK                            x       y       z     vdW  Elec       q    Type
REMARK                         _______ _______ _______ _____ _____    ______ ____
ROOT
ATOM      1  C   UNL     1       9.229  -0.306  22.404  0.00  0.00    +0.000 C 
ATOM      2  C   UNL     1      10.312  -1.601  22.600  0.00  0.00    +0.000 C 
ATOM      3  N   UNL     1       9.569  -1.877  23.913  0.00  0.00    +0.000 NA
ATOM      4  C   UNL     1       8.387  -0.940  23.671  0.00  0.00    +0.000 C 
ENDROOT
BRANCH   1   5
ATOM      5  O   UNL     1       8.586  -0.628  21.272  0.00  0.00    +0.000 OA
BRANCH   5   9
ATOM      6  C   UNL     1       5.281   1.394  19.130  0.00  0.00    +0.000 C 
ATOM      7  C   UNL     1       6.034   1.551  20.535  0.00  0.00    +0.000 C 
ATOM      8  C   UNL     1       7.348   1.482  20.902  0.00  0.00    +0.000 C 
ATOM      9  C   UNL     1       8.253   0.366  20.395  0.00  0.00    +0.000 C 
ATOM     10  C   UNL     1       7.505  -0.018  19.172  0.00  0.00    +0.000 C 
ATOM     11  C   UNL     1       6.461   0.613  18.400  0.00  0.00    +0.000 C 
ENDBRANCH   5   9
ENDBRANCH   1   5
BRANCH   3  12
ATOM     12  C   UNL     1       9.201  -3.149  24.092  0.00  0.00    +0.000 C 
BRANCH  12  13
ATOM     13  C   UNL     1       8.013  -3.499  24.941  0.00  0.00    +0.000 C 
ATOM     14  N   UNL     1       8.386  -3.567  26.343  0.00  0.00    +0.000 NA
ATOM     15  C   UNL     1       8.466  -4.743  26.778  0.00  0.00    +0.000 C 
ATOM     16  N   UNL     1       8.211  -5.669  25.786  0.00  0.00    +0.000 NA
ATOM     17  C   UNL     1       7.641  -5.005  24.564  0.00  0.00    +0.000 C 
ENDBRANCH  12  13
ENDBRANCH   3  12
TORSDOF 4
ENDMDL
MODEL 7
REMARK VINA RESULT:      -5.5      3.389      6.911
REMARK  Name = 
REMARK  4 active torsions:
REMARK  status: ('A' for Active; 'I' for Inactive)
REMARK    1  A    between atoms: C_4  and  O_5
REMARK    2  A    between atoms: O_5  and  C_6
REMARK    3  A    between atoms: N_8  and  C_9
REMARK    4  A    between atoms: C_9  and  C_10
REMARK                            x       y       z     vdW  Elec       q    Type
REMARK                         _______ _______ _______ _____ _____    ______ ____
ROOT
ATOM      1  C   UNL     1       8.035  -2.568  23.243  0.00  0.00    +0.000 C 
ATOM      2  C   UNL     1       6.559  -1.766  22.985  0.00  0.00    +0.000 C 
ATOM      3  N   UNL     1       7.352  -0.844  22.051  0.00  0.00    +0.000 NA
ATOM      4  C   UNL     1       8.631  -1.677  21.992  0.00  0.00    +0.000 C 
ENDROOT
BRANCH   1   5
ATOM      5  O   UNL     1       7.781  -3.805  22.791  0.00  0.00    +0.000 OA
BRANCH   5   9
ATOM      6  C   UNL     1       7.460  -5.131  27.004  0.00  0.00    +0.000 C 
ATOM      7  C   UNL     1       6.487  -5.015  25.736  0.00  0.00    +0.000 C 
ATOM      8  C   UNL     1       6.647  -5.296  24.408  0.00  0.00    +0.000 C 
ATOM      9  C   UNL     1       7.897  -4.861  23.653  0.00  0.00    +0.000 C 
ATOM     10  C   UNL     1       8.834  -4.717  24.794  0.00  0.00    +0.000 C 
ATOM     11  C   UNL     1       8.813  -5.165  26.166  0.00  0.00    +0.000 C 
ENDBRANCH   5   9
ENDBRANCH   1   5
BRANCH   3  12
ATOM     12  C   UNL     1       6.796  -0.651  20.851  0.00  0.00    +0.000 C 
BRANCH  12  13
ATOM     13  C   UNL     1       7.054   0.607  20.072  0.00  0.00    +0.000 C 
ATOM     14  N   UNL     1       5.818   1.340  19.858  0.00  0.00    +0.000 NA
ATOM     15  C   UNL     1       5.384   1.246  18.683  0.00  0.00    +0.000 C 
ATOM     16  N   UNL     1       6.187   0.432  17.909  0.00  0.00    +0.000 NA
ATOM     17  C   UNL     1       7.481   0.130  18.610  0.00  0.00    +0.000 C 
ENDBRANCH  12  13
ENDBRANCH   3  12
TORSDOF 4
ENDMDL
MODEL 8
REMARK VINA RESULT:      -5.4      3.107      4.839
REMARK  Name = 
REMARK  4 active torsions:
REMARK  status: ('A' for Active; 'I' for Inactive)
REMARK    1  A    between atoms: C_4  and  O_5
REMARK    2  A    between atoms: O_5  and  C_6
REMARK    3  A    between atoms: N_8  and  C_9
REMARK    4  A    between atoms: C_9  and  C_10
REMARK                            x       y       z     vdW  Elec       q    Type
REMARK                         _______ _______ _______ _____ _____    ______ ____
ROOT
ATOM      1  C   UNL     1       6.077  -2.867  21.861  0.00  0.00    +0.000 C 
ATOM      2  C   UNL     1       5.177  -3.368  23.213  0.00  0.00    +0.000 C 
ATOM      3  N   UNL     1       5.838  -4.736  23.005  0.00  0.00    +0.000 NA
ATOM      4  C   UNL     1       6.891  -4.294  21.991  0.00  0.00    +0.000 C 
ENDROOT
BRANCH   1   5
ATOM      5  O   UNL     1       6.852  -1.897  22.367  0.00  0.00    +0.000 OA
BRANCH   5   9
ATOM      6  C   UNL     1       9.821   1.372  22.033  0.00  0.00    +0.000 C 
ATOM      7  C   UNL     1       9.847  -0.226  22.152  0.00  0.00    +0.000 C 
ATOM      8  C   UNL     1       9.098  -1.216  21.583  0.00  0.00    +0.000 C 
ATOM      9  C   UNL     1       7.580  -1.118  21.510  0.00  0.00    +0.000 C 
ATOM     10  C   UNL     1       7.426   0.354  21.620  0.00  0.00    +0.000 C 
ATOM     11  C   UNL     1       8.333   1.467  21.473  0.00  0.00    +0.000 C 
ENDBRANCH   5   9
ENDBRANCH   1   5
BRANCH   3  12
ATOM     12  C   UNL     1       6.368  -5.275  24.107  0.00  0.00    +0.000 C 
BRANCH  12  13
ATOM     13  C   UNL     1       6.519  -4.470  25.366  0.00  0.00    +0.000 C 
ATOM     14  N   UNL     1       7.917  -4.160  25.612  0.00  0.00    +0.000 NA
ATOM     15  C   UNL     1       8.422  -4.847  26.535  0.00  0.00    +0.000 C 
ATOM     16  N   UNL     1       7.513  -5.749  27.051  0.00  0.00    +0.000 NA
ATOM     17  C   UNL     1       6.124  -5.455  26.558  0.00  0.00    +0.000 C 
ENDBRANCH  12  13
ENDBRANCH   3  12
TORSDOF 4
ENDMDL
MODEL 9
REMARK VINA RESULT:      -5.2      3.415      5.391
REMARK  Name = 
REMARK  4 active torsions:
REMARK  status: ('A' for Active; 'I' for Inactive)
REMARK    1  A    between atoms: C_4  and  O_5
REMARK    2  A    between atoms: O_5  and  C_6
REMARK    3  A    between atoms: N_8  and  C_9
REMARK    4  A    between atoms: C_9  and  C_10
REMARK                            x       y       z     vdW  Elec       q    Type
REMARK                         _______ _______ _______ _____ _____    ______ ____
ROOT
ATOM      1  C   UNL     1       9.262  -2.767  24.735  0.00  0.00    +0.000 C 
ATOM      2  C   UNL     1       9.458  -4.442  24.946  0.00  0.00    +0.000 C 
ATOM      3  N   UNL     1       8.420  -4.308  26.067  0.00  0.00    +0.000 NA
ATOM      4  C   UNL     1       7.967  -2.885  25.747  0.00  0.00    +0.000 C 
ENDROOT
BRANCH   1   5
ATOM      5  O   UNL     1       8.802  -2.680  23.478  0.00  0.00    +0.000 OA
BRANCH   5   9
ATOM      6  C   UNL     1       9.261   1.436  21.912  0.00  0.00    +0.000 C 
ATOM      7  C   UNL     1       9.904   0.550  23.082  0.00  0.00    +0.000 C 
ATOM      8  C   UNL     1      10.315  -0.751  23.148  0.00  0.00    +0.000 C 
ATOM      9  C   UNL     1       9.462  -1.880  22.586  0.00  0.00    +0.000 C 
ATOM     10  C   UNL     1       8.643  -1.109  21.619  0.00  0.00    +0.000 C 
ATOM     11  C   UNL     1       8.763   0.205  21.033  0.00  0.00    +0.000 C 
ENDBRANCH   5   9
ENDBRANCH   1   5
BRANCH   3  12
ATOM     12  C   UNL     1       7.424  -5.198  26.016  0.00  0.00    +0.000 C 
BRANCH  12  13
ATOM     13  C   UNL     1       6.192  -5.031  26.858  0.00  0.00    +0.000 C 
ATOM     14  N   UNL     1       6.516  -5.139  28.270  0.00  0.00    +0.000 NA
ATOM     15  C   UNL     1       6.159  -6.231  28.778  0.00  0.00    +0.000 C 
ATOM     16  N   UNL     1       5.578  -7.061  27.839  0.00  0.00    +0.000 NA
ATOM     17  C   UNL     1       5.291  -6.315  26.566  0.00  0.00    +0.000 C 
ENDBRANCH  12  13
ENDBRANCH   3  12
TORSDOF 4
ENDMDL
