MODEL 1
REMARK VINA RESULT:      -6.8      0.000      0.000
REMARK  Name = 
REMARK  4 active torsions:
REMARK  status: ('A' for Active; 'I' for Inactive)
REMARK    1  A    between atoms: C_7  and  C_9
REMARK    2  A    between atoms: C_9  and  N_10
REMARK    3  A    between atoms: N_10  and  C_11
REMARK    4  A    between atoms: C_11  and  C_12
REMARK                            x       y       z     vdW  Elec       q    Type
REMARK                         _______ _______ _______ _____ _____    ______ ____
ROOT
ATOM      1  C   UNL     1      10.604  -0.206  23.476  0.00  0.00    +0.000 C 
ENDROOT
BRANCH   1   8
ATOM      2  C   UNL     1       5.891  -0.147  18.211  0.00  0.00    +0.000 C 
ATOM      3  C   UNL     1       6.938   0.795  18.798  0.00  0.00    +0.000 C 
ATOM      4  C   UNL     1       7.775  -0.196  19.781  0.00  0.00    +0.000 C 
ATOM      5  C   UNL     1       8.220  -0.159  21.042  0.00  0.00    +0.000 A 
ATOM      6  C   UNL     1       7.209   0.421  22.159  0.00  0.00    +0.000 A 
ATOM      7  C   UNL     1       8.160   0.933  23.073  0.00  0.00    +0.000 A 
ATOM      8  C   UNL     1       9.590   0.680  22.724  0.00  0.00    +0.000 A 
ATOM      9  N   UNL     1       9.514   0.287  21.371  0.00  0.00    +0.000 NA
ATOM     10  C   UNL     1       6.609   1.434  21.375  0.00  0.00    +0.000 C 
ATOM     11  C   UNL     1       6.276   1.548  20.070  0.00  0.00    +0.000 C 
ENDBRANCH   1   8
BRANCH   1  12
ATOM     12  N   UNL     1       9.791  -1.134  24.270  0.00  0.00    +0.000 NA
BRANCH  12  13
ATOM     13  C   UNL     1       9.909  -2.436  23.721  0.00  0.00    +0.000 C 
BRANCH  13  14
ATOM     14  C   UNL     1       8.598  -3.174  23.586  0.00  0.00    +0.000 C 
ATOM     15  N   UNL     1       8.530  -4.385  24.184  0.00  0.00    +0.000 N 
ATOM     16  C   UNL     1       7.295  -5.170  24.053  0.00  0.00    +0.000 C 
ATOM     17  C   UNL     1       6.770  -5.430  25.472  0.00  0.00    +0.000 C 
ATOM     18  N   UNL     1       7.092  -4.301  26.293  0.00  0.00    +0.000 NA
ATOM     19  C   UNL     1       6.339  -4.393  27.512  0.00  0.00    +0.000 C 
ATOM     20  C   UNL     1       8.481  -4.323  26.612  0.00  0.00    +0.000 C 
ATOM     21  C   UNL     1       9.328  -4.608  25.387  0.00  0.00    +0.000 C 
ATOM     22  O   UNL     1       7.818  -2.888  22.685  0.00  0.00    +0.000 OA
ENDBRANCH  13  14
ENDBRANCH  12  13
ENDBRANCH   1  12
TORSDOF 4
ENDMDL
MODEL 2
REMARK VINA RESULT:      -6.7      1.578      2.121
REMARK  Name = 
REMARK  4 active torsions:
REMARK  status: ('A' for Active; 'I' for Inactive)
REMARK    1  A    between atoms: C_7  and  C_9
REMARK    2  A    between atoms: C_9  and  N_10
REMARK    3  A    between atoms: N_10  and  C_11
REMARK    4  A    between atoms: C_11  and  C_12
REMARK                            x       y       z     vdW  Elec       q    Type
REMARK                         _______ _______ _______ _____ _____    ______ ____
ROOT
ATOM      1  C   UNL     1      10.369   1.871  23.573  0.00  0.00    +0.000 C 
ENDROOT
BRANCH   1   8
ATOM      2  C   UNL     1       6.074  -0.790  18.632  0.00  0.00    +0.000 C 
ATOM      3  C   UNL     1       6.920   0.464  18.834  0.00  0.00    +0.000 C 
ATOM      4  C   UNL     1       7.831   0.056  20.119  0.00  0.00    +0.000 C 
ATOM      5  C   UNL     1       8.177   0.625  21.280  0.00  0.00    +0.000 A 
ATOM      6  C   UNL     1       7.015   1.392  22.095  0.00  0.00    +0.000 A 
ATOM      7  C   UNL     1       7.811   2.355  22.761  0.00  0.00    +0.000 A 
ATOM      8  C   UNL     1       9.283   2.238  22.539  0.00  0.00    +0.000 A 
ATOM      9  N   UNL     1       9.362   1.372  21.428  0.00  0.00    +0.000 NA
ATOM     10  C   UNL     1       6.321   1.932  20.988  0.00  0.00    +0.000 C 
ATOM     11  C   UNL     1       6.064   1.505  19.732  0.00  0.00    +0.000 C 
ENDBRANCH   1   8
BRANCH   1  12
ATOM     12  N   UNL     1       9.635   1.525  24.796  0.00  0.00    +0.000 NA
BRANCH  12  13
ATOM     13  C   UNL     1       9.734   0.127  25.012  0.00  0.00    +0.000 C 
BRANCH  13  14
ATOM     14  C   UNL     1       8.418  -0.609  24.920  0.00  0.00    +0.000 C 
ATOM     15  N   UNL     1       8.357  -1.612  24.013  0.00  0.00    +0.000 N 
ATOM     16  C   UNL     1       7.090  -2.337  23.846  0.00  0.00    +0.000 C 
ATOM     17  C   UNL     1       7.374  -3.817  24.140  0.00  0.00    +0.000 C 
ATOM     18  N   UNL     1       8.386  -3.897  25.151  0.00  0.00    +0.000 NA
ATOM     19  C   UNL     1       8.426  -5.243  25.652  0.00  0.00    +0.000 C 
ATOM     20  C   UNL     1       9.656  -3.584  24.583  0.00  0.00    +0.000 C 
ATOM     21  C   UNL     1       9.583  -2.346  23.710  0.00  0.00    +0.000 C 
ATOM     22  O   UNL     1       7.388  -0.088  25.330  0.00  0.00    +0.000 OA
ENDBRANCH  13  14
ENDBRANCH  12  13
ENDBRANCH   1  12
TORSDOF 4
ENDMDL
MODEL 3
REMARK VINA RESULT:      -6.6      2.044      3.550
REMARK  Name = 
REMARK  4 active torsions:
REMARK  status: ('A' for Active; 'I' for Inactive)
REMARK    1  A    between atoms: C_7  and  C_9
REMARK    2  A    between atoms: C_9  and  N_10
REMARK    3  A    between atoms: N_10  and  C_11
REMARK    4  A    between atoms: C_11  and  C_12
REMARK                            x       y       z     vdW  Elec       q    Type
REMARK                         _______ _______ _______ _____ _____    ______ ____
ROOT
ATOM      1  C   UNL     1       9.094  -3.960  24.912  0.00  0.00    +0.000 C 
ENDROOT
BRANCH   1   8
ATOM      2  C   UNL     1       7.033   0.864  20.177  0.00  0.00    +0.000 C 
ATOM      3  C   UNL     1       8.247  -0.028  20.423  0.00  0.00    +0.000 C 
ATOM      4  C   UNL     1       7.692  -1.051  21.561  0.00  0.00    +0.000 C 
ATOM      5  C   UNL     1       8.129  -1.524  22.733  0.00  0.00    +0.000 A 
ATOM      6  C   UNL     1       8.821  -0.467  23.738  0.00  0.00    +0.000 A 
ATOM      7  C   UNL     1       9.696  -1.347  24.417  0.00  0.00    +0.000 A 
ATOM      8  C   UNL     1       9.583  -2.787  24.037  0.00  0.00    +0.000 A 
ATOM      9  N   UNL     1       8.839  -2.735  22.839  0.00  0.00    +0.000 NA
ATOM     10  C   UNL     1       9.485   0.320  22.769  0.00  0.00    +0.000 C 
ATOM     11  C   UNL     1       9.198   0.710  21.507  0.00  0.00    +0.000 C 
ENDBRANCH   1   8
BRANCH   1  12
ATOM     12  N   UNL     1       8.787  -3.365  26.218  0.00  0.00    +0.000 NA
BRANCH  12  13
ATOM     13  C   UNL     1       7.407  -3.544  26.493  0.00  0.00    +0.000 C 
BRANCH  13  14
ATOM     14  C   UNL     1       6.890  -4.931  26.191  0.00  0.00    +0.000 C 
ATOM     15  N   UNL     1       5.678  -4.999  25.592  0.00  0.00    +0.000 N 
ATOM     16  C   UNL     1       5.102  -6.321  25.312  0.00  0.00    +0.000 C 
ATOM     17  C   UNL     1       4.865  -6.400  23.797  0.00  0.00    +0.000 C 
ATOM     18  N   UNL     1       5.892  -5.654  23.133  0.00  0.00    +0.000 NA
ATOM     19  C   UNL     1       5.865  -5.983  21.736  0.00  0.00    +0.000 C 
ATOM     20  C   UNL     1       5.640  -4.259  23.279  0.00  0.00    +0.000 C 
ATOM     21  C   UNL     1       5.281  -3.905  24.709  0.00  0.00    +0.000 C 
ATOM     22  O   UNL     1       7.333  -5.900  26.794  0.00  0.00    +0.000 OA
ENDBRANCH  13  14
ENDBRANCH  12  13
ENDBRANCH   1  12
TORSDOF 4
ENDMDL
MODEL 4
REMARK VINA RESULT:      -6.6      2.550      4.202
REMARK  Name = 
REMARK  4 active torsions:
REMARK  status: ('A' for Active; 'I' for Inactive)
REMARK    1  A    between atoms: C_7  and  C_9
REMARK    2  A    between atoms: C_9  and  N_10
REMARK    3  A    between atoms: N_10  and  C_11
REMARK    4  A    between atoms: C_11  and  C_12
REMARK                            x       y       z     vdW  Elec       q    Type
REMARK                         _______ _______ _______ _____ _____    ______ ____
ROOT
ATOM      1  C   UNL     1       9.103  -3.474  24.568  0.00  0.00    +0.000 C 
ENDROOT
BRANCH   1   8
ATOM      2  C   UNL     1      11.225   3.154  23.338  0.00  0.00    +0.000 C 
ATOM      3  C   UNL     1       9.905   2.399  23.472  0.00  0.00    +0.000 C 
ATOM      4  C   UNL     1      10.390   0.973  24.089  0.00  0.00    +0.000 C 
ATOM      5  C   UNL     1      10.164  -0.320  23.831  0.00  0.00    +0.000 A 
ATOM      6  C   UNL     1      10.155  -0.768  22.281  0.00  0.00    +0.000 A 
ATOM      7  C   UNL     1       9.264  -1.864  22.373  0.00  0.00    +0.000 A 
ATOM      8  C   UNL     1       8.798  -2.200  23.751  0.00  0.00    +0.000 A 
ATOM      9  N   UNL     1       9.159  -1.054  24.489  0.00  0.00    +0.000 NA
ATOM     10  C   UNL     1       9.540   0.388  21.746  0.00  0.00    +0.000 C 
ATOM     11  C   UNL     1       9.580   1.706  22.045  0.00  0.00    +0.000 C 
ENDBRANCH   1   8
BRANCH   1  12
ATOM     12  N   UNL     1       8.770  -3.130  25.955  0.00  0.00    +0.000 NA
BRANCH  12  13
ATOM     13  C   UNL     1       7.388  -3.367  26.169  0.00  0.00    +0.000 C 
BRANCH  13  14
ATOM     14  C   UNL     1       6.941  -4.771  25.839  0.00  0.00    +0.000 C 
ATOM     15  N   UNL     1       5.756  -4.884  25.196  0.00  0.00    +0.000 N 
ATOM     16  C   UNL     1       5.246  -6.227  24.885  0.00  0.00    +0.000 C 
ATOM     17  C   UNL     1       5.067  -6.302  23.363  0.00  0.00    +0.000 C 
ATOM     18  N   UNL     1       6.085  -5.508  22.742  0.00  0.00    +0.000 NA
ATOM     19  C   UNL     1       6.122  -5.825  21.342  0.00  0.00    +0.000 C 
ATOM     20  C   UNL     1       5.769  -4.126  22.888  0.00  0.00    +0.000 C 
ATOM     21  C   UNL     1       5.344  -3.800  24.307  0.00  0.00    +0.000 C 
ATOM     22  O   UNL     1       7.403  -5.726  26.451  0.00  0.00    +0.000 OA
ENDBRANCH  13  14
ENDBRANCH  12  13
ENDBRANCH   1  12
TORSDOF 4
ENDMDL
MODEL 5
REMARK VINA RESULT:      -6.4      2.292      3.681
REMARK  Name = 
REMARK  4 active torsions:
REMARK  status: ('A' for Active; 'I' for Inactive)
REMARK    1  A    between atoms: C_7  and  C_9
REMARK    2  A    between atoms: C_9  and  N_10
REMARK    3  A    between atoms: N_10  and  C_11
REMARK    4  A    between atoms: C_11  and  C_12
REMARK                            x       y       z     vdW  Elec       q    Type
REMARK                         _______ _______ _______ _____ _____    ______ ____
ROOT
ATOM      1  C   UNL     1      10.428  -1.696  22.526  0.00  0.00    +0.000 C 
ENDROOT
BRANCH   1   8
ATOM      2  C   UNL     1       9.843   5.211  23.902  0.00  0.00    +0.000 C 
ATOM      3  C   UNL     1       9.076   3.929  24.216  0.00  0.00    +0.000 C 
ATOM      4  C   UNL     1      10.137   2.779  23.770  0.00  0.00    +0.000 C 
ATOM      5  C   UNL     1      10.099   1.656  23.044  0.00  0.00    +0.000 A 
ATOM      6  C   UNL     1       9.267   1.704  21.663  0.00  0.00    +0.000 A 
ATOM      7  C   UNL     1       8.881   0.344  21.589  0.00  0.00    +0.000 A 
ATOM      8  C   UNL     1       9.420  -0.537  22.668  0.00  0.00    +0.000 A 
ATOM      9  N   UNL     1       9.882   0.392  23.625  0.00  0.00    +0.000 NA
ATOM     10  C   UNL     1       8.215   2.544  22.096  0.00  0.00    +0.000 C 
ATOM     11  C   UNL     1       8.128   3.591  22.947  0.00  0.00    +0.000 C 
ENDBRANCH   1   8
BRANCH   1  12
ATOM     12  N   UNL     1      10.063  -2.655  23.576  0.00  0.00    +0.000 NA
BRANCH  12  13
ATOM     13  C   UNL     1       8.664  -2.882  23.524  0.00  0.00    +0.000 C 
BRANCH  13  14
ATOM     14  C   UNL     1       8.224  -4.185  24.150  0.00  0.00    +0.000 C 
ATOM     15  N   UNL     1       7.085  -4.142  24.879  0.00  0.00    +0.000 N 
ATOM     16  C   UNL     1       6.628  -5.367  25.548  0.00  0.00    +0.000 C 
ATOM     17  C   UNL     1       5.222  -5.678  25.015  0.00  0.00    +0.000 C 
ATOM     18  N   UNL     1       5.150  -5.263  23.645  0.00  0.00    +0.000 NA
ATOM     19  C   UNL     1       3.970  -5.833  23.058  0.00  0.00    +0.000 C 
ATOM     20  C   UNL     1       5.054  -3.843  23.580  0.00  0.00    +0.000 C 
ATOM     21  C   UNL     1       6.057  -3.175  24.500  0.00  0.00    +0.000 C 
ATOM     22  O   UNL     1       9.030  -5.091  24.322  0.00  0.00    +0.000 OA
ENDBRANCH  13  14
ENDBRANCH  12  13
ENDBRANCH   1  12
TORSDOF 4
ENDMDL
MODEL 6
REMARK VINA RESULT:      -6.3      2.024      3.862
REMARK  Name = 
REMARK  4 active torsions:
REMARK  status: ('A' for Active; 'I' for Inactive)
REMARK    1  A    between atoms: C_7  and  C_9
REMARK    2  A    between atoms: C_9  and  N_10
REMARK    3  A    between atoms: N_10  and  C_11
REMARK    4  A    between atoms: C_11  and  C_12
REMARK                            x       y       z     vdW  Elec       q    Type
REMARK                         _______ _______ _______ _____ _____    ______ ____
ROOT
ATOM      1  C   UNL     1       6.111  -2.660  21.607  0.00  0.00    +0.000 C 
ENDROOT
BRANCH   1   8
ATOM      2  C   UNL     1      11.430   0.889  24.616  0.00  0.00    +0.000 C 
ATOM      3  C   UNL     1       9.976   1.148  24.232  0.00  0.00    +0.000 C 
ATOM      4  C   UNL     1       9.440  -0.351  23.900  0.00  0.00    +0.000 C 
ATOM      5  C   UNL     1       8.741  -0.934  22.919  0.00  0.00    +0.000 A 
ATOM      6  C   UNL     1       9.116  -0.518  21.405  0.00  0.00    +0.000 A 
ATOM      7  C   UNL     1       7.854  -0.724  20.800  0.00  0.00    +0.000 A 
ATOM      8  C   UNL     1       6.794  -1.279  21.694  0.00  0.00    +0.000 A 
ATOM      9  N   UNL     1       7.343  -1.091  22.980  0.00  0.00    +0.000 NA
ATOM     10  C   UNL     1       9.390   0.849  21.639  0.00  0.00    +0.000 C 
ATOM     11  C   UNL     1       9.937   1.544  22.662  0.00  0.00    +0.000 C 
ENDBRANCH   1   8
BRANCH   1  12
ATOM     12  N   UNL     1       7.156  -3.629  21.957  0.00  0.00    +0.000 NA
BRANCH  12  13
ATOM     13  C   UNL     1       6.589  -4.645  22.768  0.00  0.00    +0.000 C 
BRANCH  13  14
ATOM     14  C   UNL     1       7.432  -5.029  23.961  0.00  0.00    +0.000 C 
ATOM     15  N   UNL     1       7.114  -4.434  25.133  0.00  0.00    +0.000 N 
ATOM     16  C   UNL     1       7.925  -4.735  26.321  0.00  0.00    +0.000 C 
ATOM     17  C   UNL     1       6.978  -5.314  27.382  0.00  0.00    +0.000 C 
ATOM     18  N   UNL     1       5.953  -6.065  26.719  0.00  0.00    +0.000 NA
ATOM     19  C   UNL     1       5.265  -6.860  27.697  0.00  0.00    +0.000 C 
ATOM     20  C   UNL     1       5.019  -5.172  26.117  0.00  0.00    +0.000 C 
ATOM     21  C   UNL     1       5.721  -4.059  25.364  0.00  0.00    +0.000 C 
ATOM     22  O   UNL     1       8.545  -5.515  23.800  0.00  0.00    +0.000 OA
ENDBRANCH  13  14
ENDBRANCH  12  13
ENDBRANCH   1  12
TORSDOF 4
ENDMDL
MODEL 7
REMARK VINA RESULT:      -6.3      2.530      3.803
REMARK  Name = 
REMARK  4 active torsions:
REMARK  status: ('A' for Active; 'I' for Inactive)
REMARK    1  A    between atoms: C_7  and  C_9
REMARK    2  A    between atoms: C_9  and  N_10
REMARK    3  A    between atoms: N_10  and  C_11
REMARK    4  A    between atoms: C_11  and  C_12
REMARK                            x       y       z     vdW  Elec       q    Type
REMARK                         _______ _______ _______ _____ _____    ______ ____
ROOT
ATOM      1  C   UNL     1       8.556  -2.889  25.037  0.00  0.00    +0.000 C 
ENDROOT
BRANCH   1   8
ATOM      2  C   UNL     1      11.247   3.435  23.391  0.00  0.00    +0.000 C 
ATOM      3  C   UNL     1       9.894   2.733  23.324  0.00  0.00    +0.000 C 
ATOM      4  C   UNL     1      10.151   1.409  24.234  0.00  0.00    +0.000 C 
ATOM      5  C   UNL     1       9.921   0.096  24.120  0.00  0.00    +0.000 A 
ATOM      6  C   UNL     1      10.238  -0.582  22.690  0.00  0.00    +0.000 A 
ATOM      7  C   UNL     1       9.293  -1.635  22.731  0.00  0.00    +0.000 A 
ATOM      8  C   UNL     1       8.510  -1.750  23.997  0.00  0.00    +0.000 A 
ATOM      9  N   UNL     1       8.756  -0.511  24.627  0.00  0.00    +0.000 NA
ATOM     10  C   UNL     1       9.822   0.490  21.868  0.00  0.00    +0.000 C 
ATOM     11  C   UNL     1       9.862   1.837  21.975  0.00  0.00    +0.000 C 
ENDBRANCH   1   8
BRANCH   1  12
ATOM     12  N   UNL     1       9.317  -3.967  24.394  0.00  0.00    +0.000 NA
BRANCH  12  13
ATOM     13  C   UNL     1       8.517  -5.138  24.361  0.00  0.00    +0.000 C 
BRANCH  13  14
ATOM     14  C   UNL     1       7.246  -4.999  23.557  0.00  0.00    +0.000 C 
ATOM     15  N   UNL     1       6.141  -5.574  24.085  0.00  0.00    +0.000 N 
ATOM     16  C   UNL     1       4.883  -5.510  23.328  0.00  0.00    +0.000 C 
ATOM     17  C   UNL     1       3.854  -4.802  24.221  0.00  0.00    +0.000 C 
ATOM     18  N   UNL     1       4.534  -3.821  25.014  0.00  0.00    +0.000 NA
ATOM     19  C   UNL     1       3.555  -2.950  25.602  0.00  0.00    +0.000 C 
ATOM     20  C   UNL     1       5.257  -4.467  26.058  0.00  0.00    +0.000 C 
ATOM     21  C   UNL     1       6.033  -5.662  25.539  0.00  0.00    +0.000 C 
ATOM     22  O   UNL     1       7.297  -4.748  22.359  0.00  0.00    +0.000 OA
ENDBRANCH  13  14
ENDBRANCH  12  13
ENDBRANCH   1  12
TORSDOF 4
ENDMDL
MODEL 8
REMARK VINA RESULT:      -6.2      2.197      6.405
REMARK  Name = 
REMARK  4 active torsions:
REMARK  status: ('A' for Active; 'I' for Inactive)
REMARK    1  A    between atoms: C_7  and  C_9
REMARK    2  A    between atoms: C_9  and  N_10
REMARK    3  A    between atoms: N_10  and  C_11
REMARK    4  A    between atoms: C_11  and  C_12
REMARK                            x       y       z     vdW  Elec       q    Type
REMARK                         _______ _______ _______ _____ _____    ______ ____
ROOT
ATOM      1  C   UNL     1       8.400  -2.010  24.473  0.00  0.00    +0.000 C 
ENDROOT
BRANCH   1   8
ATOM      2  C   UNL     1       3.732  -7.267  25.188  0.00  0.00    +0.000 C 
ATOM      3  C   UNL     1       4.731  -6.781  24.142  0.00  0.00    +0.000 C 
ATOM      4  C   UNL     1       5.603  -5.695  24.984  0.00  0.00    +0.000 C 
ATOM      5  C   UNL     1       6.036  -4.444  24.793  0.00  0.00    +0.000 A 
ATOM      6  C   UNL     1       4.991  -3.399  24.144  0.00  0.00    +0.000 A 
ATOM      7  C   UNL     1       5.911  -2.541  23.495  0.00  0.00    +0.000 A 
ATOM      8  C   UNL     1       7.353  -2.856  23.719  0.00  0.00    +0.000 A 
ATOM      9  N   UNL     1       7.306  -4.160  24.256  0.00  0.00    +0.000 NA
ATOM     10  C   UNL     1       4.353  -4.288  23.249  0.00  0.00    +0.000 C 
ATOM     11  C   UNL     1       4.025  -5.599  23.289  0.00  0.00    +0.000 C 
ENDBRANCH   1   8
BRANCH   1  12
ATOM     12  N   UNL     1       9.700  -2.564  24.077  0.00  0.00    +0.000 NA
BRANCH  12  13
ATOM     13  C   UNL     1      10.163  -1.874  22.927  0.00  0.00    +0.000 C 
BRANCH  13  14
ATOM     14  C   UNL     1      10.243  -0.375  23.093  0.00  0.00    +0.000 C 
ATOM     15  N   UNL     1       9.834   0.366  22.037  0.00  0.00    +0.000 N 
ATOM     16  C   UNL     1       9.928   1.830  22.123  0.00  0.00    +0.000 C 
ATOM     17  C   UNL     1       8.511   2.386  21.925  0.00  0.00    +0.000 C 
ATOM     18  N   UNL     1       7.573   1.463  22.492  0.00  0.00    +0.000 NA
ATOM     19  C   UNL     1       6.298   2.114  22.598  0.00  0.00    +0.000 C 
ATOM     20  C   UNL     1       7.439   0.332  21.634  0.00  0.00    +0.000 C 
ATOM     21  C   UNL     1       8.790  -0.179  21.173  0.00  0.00    +0.000 C 
ATOM     22  O   UNL     1      10.984   0.114  23.938  0.00  0.00    +0.000 OA
ENDBRANCH  13  14
ENDBRANCH  12  13
ENDBRANCH   1  12
TORSDOF 4
ENDMDL
MODEL 9
REMARK VINA RESULT:      -6.0      2.234      6.472
REMARK  Name = 
REMARK  4 active torsions:
REMARK  status: ('A' for Active; 'I' for Inactive)
REMARK    1  A    between atoms: C_7  and  C_9
REMARK    2  A    between atoms: C_9  and  N_10
REMARK    3  A    between atoms: N_10  and  C_11
REMARK    4  A    between atoms: C_11  and  C_12
REMARK                            x       y       z     vdW  Elec       q    Type
REMARK                         _______ _______ _______ _____ _____    ______ ____
ROOT
ATOM      1  C   UNL     1      10.272  -1.992  22.997  0.00  0.00    +0.000 C 
ENDROOT
BRANCH   1   8
ATOM      2  C   UNL     1       4.796  -6.406  23.682  0.00  0.00    +0.000 C 
ATOM      3  C   UNL     1       5.250  -5.073  24.269  0.00  0.00    +0.000 C 
ATOM      4  C   UNL     1       6.467  -4.659  23.272  0.00  0.00    +0.000 C 
ATOM      5  C   UNL     1       7.722  -4.215  23.408  0.00  0.00    +0.000 A 
ATOM      6  C   UNL     1       8.627  -4.917  24.546  0.00  0.00    +0.000 A 
ATOM      7  C   UNL     1       9.482  -3.830  24.849  0.00  0.00    +0.000 A 
ATOM      8  C   UNL     1       9.289  -2.607  24.015  0.00  0.00    +0.000 A 
ATOM      9  N   UNL     1       8.042  -2.844  23.400  0.00  0.00    +0.000 NA
ATOM     10  C   UNL     1       7.616  -5.101  25.517  0.00  0.00    +0.000 C 
ATOM     11  C   UNL     1       6.295  -5.384  25.467  0.00  0.00    +0.000 C 
ENDBRANCH   1   8
BRANCH   1  12
ATOM     12  N   UNL     1       9.431  -1.481  21.909  0.00  0.00    +0.000 NA
BRANCH  12  13
ATOM     13  C   UNL     1       9.720  -0.106  21.710  0.00  0.00    +0.000 C 
BRANCH  13  14
ATOM     14  C   UNL     1       8.501   0.784  21.666  0.00  0.00    +0.000 C 
ATOM     15  N   UNL     1       7.998   1.167  22.862  0.00  0.00    +0.000 N 
ATOM     16  C   UNL     1       6.787   1.999  22.885  0.00  0.00    +0.000 C 
ATOM     17  C   UNL     1       7.144   3.298  23.622  0.00  0.00    +0.000 C 
ATOM     18  N   UNL     1       8.511   3.622  23.343  0.00  0.00    +0.000 NA
ATOM     19  C   UNL     1       8.753   4.976  23.756  0.00  0.00    +0.000 C 
ATOM     20  C   UNL     1       9.369   2.758  24.083  0.00  0.00    +0.000 C 
ATOM     21  C   UNL     1       8.920   1.313  23.986  0.00  0.00    +0.000 C 
ATOM     22  O   UNL     1       7.798   0.820  20.663  0.00  0.00    +0.000 OA
ENDBRANCH  13  14
ENDBRANCH  12  13
ENDBRANCH   1  12
TORSDOF 4
ENDMDL
