MODEL 1
REMARK VINA RESULT:      -6.0      0.000      0.000
REMARK  14 active torsions:
REMARK  status: ('A' for Active; 'I' for Inactive)
REMARK    1  A    between atoms: N_1  and  CA_2 
REMARK    2  A    between atoms: CA_2  and  C_3 
REMARK    3  A    between atoms: CA_2  and  CB_6 
REMARK       I    between atoms: C_3  and  N_11 
REMARK    4  A    between atoms: CB_6  and  CG_7 
REMARK    5  A    between atoms: N_11  and  CA_12 
REMARK    6  A    between atoms: CA_12  and  C_13 
REMARK    7  A    between atoms: CA_12  and  CB_15 
REMARK       I    between atoms: C_13  and  N_23 
REMARK    8  A    between atoms: CB_15  and  CG_16 
REMARK    9  A    between atoms: CG_16  and  CD_17 
REMARK       I    between atoms: CD_17  and  NE2_19 
REMARK   10  A    between atoms: N_23  and  CA_24 
REMARK   11  A    between atoms: CA_24  and  C_25 
REMARK   12  A    between atoms: CA_24  and  CB_27 
REMARK   13  A    between atoms: C_25  and  OXT_31 
REMARK   14  A    between atoms: CB_27  and  OG_28 
ROOT
ATOM      1  N   LEU A   1       9.888  -5.795  25.469  1.00  0.00     0.092 N 
ATOM      2  H   LEU A   1       9.886  -6.818  25.475  1.00  0.00     0.313 HD
ATOM      3  HN  LEU A   1      10.357  -5.524  24.607  1.00  0.00     0.313 HD
ENDROOT
BRANCH   1   4
ATOM      4  CA  LEU A   1       8.484  -5.331  25.439  1.00  0.00     0.309 C 
BRANCH   4   5
ATOM      5  C   LEU A   1       8.236  -4.718  24.042  1.00  0.00     0.251 C 
ATOM      6  O   LEU A   1       7.833  -5.372  23.083  1.00  0.00    -0.271 OA
ATOM      7  N   GLN A   2       8.427  -3.355  23.990  1.00  0.00    -0.346 N 
ATOM      8  H   GLN A   2       8.945  -2.923  24.747  1.00  0.00     0.163 HD
BRANCH   7   9
ATOM      9  CA  GLN A   2       8.352  -2.619  22.736  1.00  0.00     0.177 C 
BRANCH   9  10
ATOM     10  C   GLN A   2       9.542  -1.636  22.693  1.00  0.00     0.241 C 
ATOM     11  O   GLN A   2      10.714  -1.998  22.600  1.00  0.00    -0.271 OA
ATOM     12  N   SER A   3       9.199  -0.312  22.835  1.00  0.00    -0.343 N 
ATOM     13  H   SER A   3       8.226  -0.048  22.965  1.00  0.00     0.163 HD
BRANCH  12  14
ATOM     14  CA  SER A   3      10.195   0.735  23.053  1.00  0.00     0.206 C 
BRANCH  14  15
ATOM     15  C   SER A   3       9.912   1.365  24.424  1.00  0.00     0.165 C 
ATOM     16  O   SER A   3       9.294   2.415  24.563  1.00  0.00    -0.648 OA
BRANCH  15  17
ATOM     17  OXT SER A   3      10.349   0.639  25.478  1.00  0.00    -0.775 OA
ATOM     18  HO  SER A   3       9.846   0.852  26.305  1.00  0.00     0.167 HD
ENDBRANCH  15  17
ENDBRANCH  14  15
BRANCH  14  19
ATOM     19  CB  SER A   3      10.177   1.796  21.952  1.00  0.00     0.200 C 
BRANCH  19  20
ATOM     20  OG  SER A   3       8.819   2.069  21.573  1.00  0.00    -0.398 OA
ATOM     21  HG  SER A   3       8.863   2.787  20.910  1.00  0.00     0.209 HD
ENDBRANCH  19  20
ENDBRANCH  14  19
ENDBRANCH  12  14
ENDBRANCH   9  10
BRANCH   9  22
ATOM     22  CB  GLN A   2       7.012  -1.877  22.660  1.00  0.00     0.044 C 
BRANCH  22  23
ATOM     23  CG  GLN A   2       6.273  -2.095  21.340  1.00  0.00     0.105 C 
BRANCH  23  24
ATOM     24  CD  GLN A   2       6.462  -0.934  20.390  1.00  0.00     0.215 C 
ATOM     25  OE1 GLN A   2       7.403  -0.151  20.422  1.00  0.00    -0.274 OA
ATOM     26  NE2 GLN A   2       5.479  -0.819  19.451  1.00  0.00    -0.370 N 
ATOM     27 1HE2 GLN A   2       5.577  -0.087  18.758  1.00  0.00     0.159 HD
ATOM     28 2HE2 GLN A   2       4.765  -1.522  19.314  1.00  0.00     0.159 HD
ENDBRANCH  23  24
ENDBRANCH  22  23
ENDBRANCH   9  22
ENDBRANCH   7   9
ENDBRANCH   4   5
BRANCH   4  29
ATOM     29  CB  LEU A   1       8.242  -4.326  26.577  1.00  0.00     0.049 C 
BRANCH  29  30
ATOM     30  CG  LEU A   1       6.831  -4.327  27.211  1.00  0.00    -0.020 C 
ATOM     31  CD1 LEU A   1       6.115  -5.669  27.059  1.00  0.00     0.009 C 
ATOM     32  CD2 LEU A   1       5.936  -3.192  26.717  1.00  0.00     0.009 C 
ENDBRANCH  29  30
ENDBRANCH   4  29
ENDBRANCH   1   4
TORSDOF 14
ENDMDL
MODEL 2
REMARK VINA RESULT:      -5.9      2.764      5.914
REMARK  14 active torsions:
REMARK  status: ('A' for Active; 'I' for Inactive)
REMARK    1  A    between atoms: N_1  and  CA_2 
REMARK    2  A    between atoms: CA_2  and  C_3 
REMARK    3  A    between atoms: CA_2  and  CB_6 
REMARK       I    between atoms: C_3  and  N_11 
REMARK    4  A    between atoms: CB_6  and  CG_7 
REMARK    5  A    between atoms: N_11  and  CA_12 
REMARK    6  A    between atoms: CA_12  and  C_13 
REMARK    7  A    between atoms: CA_12  and  CB_15 
REMARK       I    between atoms: C_13  and  N_23 
REMARK    8  A    between atoms: CB_15  and  CG_16 
REMARK    9  A    between atoms: CG_16  and  CD_17 
REMARK       I    between atoms: CD_17  and  NE2_19 
REMARK   10  A    between atoms: N_23  and  CA_24 
REMARK   11  A    between atoms: CA_24  and  C_25 
REMARK   12  A    between atoms: CA_24  and  CB_27 
REMARK   13  A    between atoms: C_25  and  OXT_31 
REMARK   14  A    between atoms: CB_27  and  OG_28 
ROOT
ATOM      1  N   LEU A   1       9.460   0.026  25.680  1.00  0.00     0.092 N 
ATOM      2  H   LEU A   1       9.692  -0.968  25.756  1.00  0.00     0.313 HD
ATOM      3  HN  LEU A   1      10.256   0.528  26.066  1.00  0.00     0.313 HD
ENDROOT
BRANCH   1   4
ATOM      4  CA  LEU A   1       9.312   0.355  24.244  1.00  0.00     0.309 C 
BRANCH   4   5
ATOM      5  C   LEU A   1       9.116  -0.979  23.490  1.00  0.00     0.251 C 
ATOM      6  O   LEU A   1      10.016  -1.801  23.331  1.00  0.00    -0.271 OA
ATOM      7  N   GLN A   2       7.819  -1.204  23.083  1.00  0.00    -0.346 N 
ATOM      8  H   GLN A   2       7.187  -0.412  23.066  1.00  0.00     0.163 HD
BRANCH   7   9
ATOM      9  CA  GLN A   2       7.463  -2.351  22.260  1.00  0.00     0.177 C 
BRANCH   9  10
ATOM     10  C   GLN A   2       6.394  -1.891  21.245  1.00  0.00     0.241 C 
ATOM     11  O   GLN A   2       5.546  -2.644  20.770  1.00  0.00    -0.271 OA
ATOM     12  N   SER A   3       6.501  -0.577  20.855  1.00  0.00    -0.343 N 
ATOM     13  H   SER A   3       7.248   0.006  21.224  1.00  0.00     0.163 HD
BRANCH  12  14
ATOM     14  CA  SER A   3       5.736  -0.029  19.737  1.00  0.00     0.206 C 
BRANCH  14  15
ATOM     15  C   SER A   3       6.510  -0.338  18.449  1.00  0.00     0.165 C 
ATOM     16  O   SER A   3       6.038  -0.992  17.524  1.00  0.00    -0.648 OA
BRANCH  15  17
ATOM     17  OXT SER A   3       7.742   0.218  18.385  1.00  0.00    -0.775 OA
ATOM     18  HO  SER A   3       8.308  -0.219  17.699  1.00  0.00     0.167 HD
ENDBRANCH  15  17
ENDBRANCH  14  15
BRANCH  14  19
ATOM     19  CB  SER A   3       5.492   1.474  19.879  1.00  0.00     0.200 C 
BRANCH  19  20
ATOM     20  OG  SER A   3       4.996   1.998  18.638  1.00  0.00    -0.398 OA
ATOM     21  HG  SER A   3       4.107   2.357  18.831  1.00  0.00     0.209 HD
ENDBRANCH  19  20
ENDBRANCH  14  19
ENDBRANCH  12  14
ENDBRANCH   9  10
BRANCH   9  22
ATOM     22  CB  GLN A   2       6.934  -3.476  23.158  1.00  0.00     0.044 C 
BRANCH  22  23
ATOM     23  CG  GLN A   2       7.456  -4.859  22.768  1.00  0.00     0.105 C 
BRANCH  23  24
ATOM     24  CD  GLN A   2       6.364  -5.734  22.195  1.00  0.00     0.215 C 
ATOM     25  OE1 GLN A   2       5.649  -6.479  22.852  1.00  0.00    -0.274 OA
ATOM     26  NE2 GLN A   2       6.217  -5.625  20.844  1.00  0.00    -0.370 N 
ATOM     27 1HE2 GLN A   2       5.470  -6.153  20.410  1.00  0.00     0.159 HD
ATOM     28 2HE2 GLN A   2       6.697  -4.926  20.293  1.00  0.00     0.159 HD
ENDBRANCH  23  24
ENDBRANCH  22  23
ENDBRANCH   9  22
ENDBRANCH   7   9
ENDBRANCH   4   5
BRANCH   4  29
ATOM     29  CB  LEU A   1      10.545   1.135  23.758  1.00  0.00     0.049 C 
BRANCH  29  30
ATOM     30  CG  LEU A   1      10.272   2.380  22.882  1.00  0.00    -0.020 C 
ATOM     31  CD1 LEU A   1      11.112   3.589  23.293  1.00  0.00     0.009 C 
ATOM     32  CD2 LEU A   1       8.796   2.764  22.804  1.00  0.00     0.009 C 
ENDBRANCH  29  30
ENDBRANCH   4  29
ENDBRANCH   1   4
TORSDOF 14
ENDMDL
MODEL 3
REMARK VINA RESULT:      -5.8      2.430      6.548
REMARK  14 active torsions:
REMARK  status: ('A' for Active; 'I' for Inactive)
REMARK    1  A    between atoms: N_1  and  CA_2 
REMARK    2  A    between atoms: CA_2  and  C_3 
REMARK    3  A    between atoms: CA_2  and  CB_6 
REMARK       I    between atoms: C_3  and  N_11 
REMARK    4  A    between atoms: CB_6  and  CG_7 
REMARK    5  A    between atoms: N_11  and  CA_12 
REMARK    6  A    between atoms: CA_12  and  C_13 
REMARK    7  A    between atoms: CA_12  and  CB_15 
REMARK       I    between atoms: C_13  and  N_23 
REMARK    8  A    between atoms: CB_15  and  CG_16 
REMARK    9  A    between atoms: CG_16  and  CD_17 
REMARK       I    between atoms: CD_17  and  NE2_19 
REMARK   10  A    between atoms: N_23  and  CA_24 
REMARK   11  A    between atoms: CA_24  and  C_25 
REMARK   12  A    between atoms: CA_24  and  CB_27 
REMARK   13  A    between atoms: C_25  and  OXT_31 
REMARK   14  A    between atoms: CB_27  and  OG_28 
ROOT
ATOM      1  N   LEU A   1      11.064   0.955  24.586  1.00  0.00     0.092 N 
ATOM      2  H   LEU A   1      11.937   1.455  24.775  1.00  0.00     0.313 HD
ATOM      3  HN  LEU A   1      10.800   0.513  25.464  1.00  0.00     0.313 HD
ENDROOT
BRANCH   1   4
ATOM      4  CA  LEU A   1      10.037   1.948  24.199  1.00  0.00     0.309 C 
BRANCH   4   5
ATOM      5  C   LEU A   1       8.840   1.162  23.619  1.00  0.00     0.251 C 
ATOM      6  O   LEU A   1       7.764   1.048  24.203  1.00  0.00    -0.271 OA
ATOM      7  N   GLN A   2       9.057   0.673  22.350  1.00  0.00    -0.346 N 
ATOM      8  H   GLN A   2      10.014   0.629  22.020  1.00  0.00     0.163 HD
BRANCH   7   9
ATOM      9  CA  GLN A   2       8.087  -0.188  21.686  1.00  0.00     0.177 C 
BRANCH   9  10
ATOM     10  C   GLN A   2       8.454  -1.653  22.014  1.00  0.00     0.241 C 
ATOM     11  O   GLN A   2       9.606  -2.081  21.991  1.00  0.00    -0.271 OA
ATOM     12  N   SER A   3       7.378  -2.469  22.272  1.00  0.00    -0.343 N 
ATOM     13  H   SER A   3       6.433  -2.097  22.230  1.00  0.00     0.163 HD
BRANCH  12  14
ATOM     14  CA  SER A   3       7.506  -3.922  22.370  1.00  0.00     0.206 C 
BRANCH  14  15
ATOM     15  C   SER A   3       6.291  -4.542  21.668  1.00  0.00     0.165 C 
ATOM     16  O   SER A   3       6.333  -5.620  21.083  1.00  0.00    -0.648 OA
BRANCH  15  17
ATOM     17  OXT SER A   3       5.146  -3.832  21.792  1.00  0.00    -0.775 OA
ATOM     18  HO  SER A   3       4.508  -4.269  22.412  1.00  0.00     0.167 HD
ENDBRANCH  15  17
ENDBRANCH  14  15
BRANCH  14  19
ATOM     19  CB  SER A   3       7.603  -4.403  23.818  1.00  0.00     0.200 C 
BRANCH  19  20
ATOM     20  OG  SER A   3       6.311  -4.314  24.439  1.00  0.00    -0.398 OA
ATOM     21  HG  SER A   3       6.091  -5.220  24.737  1.00  0.00     0.209 HD
ENDBRANCH  19  20
ENDBRANCH  14  19
ENDBRANCH  12  14
ENDBRANCH   9  10
BRANCH   9  22
ATOM     22  CB  GLN A   2       8.126   0.073  20.176  1.00  0.00     0.044 C 
BRANCH  22  23
ATOM     23  CG  GLN A   2       6.782   0.525  19.605  1.00  0.00     0.105 C 
BRANCH  23  24
ATOM     24  CD  GLN A   2       5.965  -0.640  19.093  1.00  0.00     0.215 C 
ATOM     25  OE1 GLN A   2       5.680  -1.634  19.748  1.00  0.00    -0.274 OA
ATOM     26  NE2 GLN A   2       5.542  -0.498  17.804  1.00  0.00    -0.370 N 
ATOM     27 1HE2 GLN A   2       4.952  -1.226  17.423  1.00  0.00     0.159 HD
ATOM     28 2HE2 GLN A   2       5.646   0.363  17.284  1.00  0.00     0.159 HD
ENDBRANCH  23  24
ENDBRANCH  22  23
ENDBRANCH   9  22
ENDBRANCH   7   9
ENDBRANCH   4   5
BRANCH   4  29
ATOM     29  CB  LEU A   1      10.631   2.949  23.194  1.00  0.00     0.049 C 
BRANCH  29  30
ATOM     30  CG  LEU A   1      11.147   4.286  23.775  1.00  0.00    -0.020 C 
ATOM     31  CD1 LEU A   1      10.077   5.379  23.784  1.00  0.00     0.009 C 
ATOM     32  CD2 LEU A   1      12.419   4.797  23.101  1.00  0.00     0.009 C 
ENDBRANCH  29  30
ENDBRANCH   4  29
ENDBRANCH   1   4
TORSDOF 14
ENDMDL
MODEL 4
REMARK VINA RESULT:      -5.7      2.170      4.419
REMARK  14 active torsions:
REMARK  status: ('A' for Active; 'I' for Inactive)
REMARK    1  A    between atoms: N_1  and  CA_2 
REMARK    2  A    between atoms: CA_2  and  C_3 
REMARK    3  A    between atoms: CA_2  and  CB_6 
REMARK       I    between atoms: C_3  and  N_11 
REMARK    4  A    between atoms: CB_6  and  CG_7 
REMARK    5  A    between atoms: N_11  and  CA_12 
REMARK    6  A    between atoms: CA_12  and  C_13 
REMARK    7  A    between atoms: CA_12  and  CB_15 
REMARK       I    between atoms: C_13  and  N_23 
REMARK    8  A    between atoms: CB_15  and  CG_16 
REMARK    9  A    between atoms: CG_16  and  CD_17 
REMARK       I    between atoms: CD_17  and  NE2_19 
REMARK   10  A    between atoms: N_23  and  CA_24 
REMARK   11  A    between atoms: CA_24  and  C_25 
REMARK   12  A    between atoms: CA_24  and  CB_27 
REMARK   13  A    between atoms: C_25  and  OXT_31 
REMARK   14  A    between atoms: CB_27  and  OG_28 
ROOT
ATOM      1  N   LEU A   1       6.896  -5.493  22.617  1.00  0.00     0.092 N 
ATOM      2  H   LEU A   1       7.619  -6.215  22.555  1.00  0.00     0.313 HD
ATOM      3  HN  LEU A   1       6.007  -5.984  22.556  1.00  0.00     0.313 HD
ENDROOT
BRANCH   1   4
ATOM      4  CA  LEU A   1       7.014  -4.835  23.937  1.00  0.00     0.309 C 
BRANCH   4   5
ATOM      5  C   LEU A   1       6.955  -3.311  23.693  1.00  0.00     0.251 C 
ATOM      6  O   LEU A   1       6.278  -2.545  24.376  1.00  0.00    -0.271 OA
ATOM      7  N   GLN A   2       7.797  -2.874  22.694  1.00  0.00    -0.346 N 
ATOM      8  H   GLN A   2       8.163  -3.566  22.051  1.00  0.00     0.163 HD
BRANCH   7   9
ATOM      9  CA  GLN A   2       7.796  -1.488  22.244  1.00  0.00     0.177 C 
BRANCH   9  10
ATOM     10  C   GLN A   2       6.655  -1.326  21.215  1.00  0.00     0.241 C 
ATOM     11  O   GLN A   2       6.021  -2.275  20.756  1.00  0.00    -0.271 OA
ATOM     12  N   SER A   3       6.442  -0.035  20.793  1.00  0.00    -0.343 N 
ATOM     13  H   SER A   3       7.021   0.720  21.150  1.00  0.00     0.163 HD
BRANCH  12  14
ATOM     14  CA  SER A   3       5.576   0.283  19.660  1.00  0.00     0.206 C 
BRANCH  14  15
ATOM     15  C   SER A   3       6.355  -0.034  18.377  1.00  0.00     0.165 C 
ATOM     16  O   SER A   3       7.282   0.658  17.969  1.00  0.00    -0.648 OA
BRANCH  15  17
ATOM     17  OXT SER A   3       5.977  -1.175  17.756  1.00  0.00    -0.775 OA
ATOM     18  HO  SER A   3       5.279  -1.658  18.267  1.00  0.00     0.167 HD
ENDBRANCH  15  17
ENDBRANCH  14  15
BRANCH  14  19
ATOM     19  CB  SER A   3       5.115   1.742  19.671  1.00  0.00     0.200 C 
BRANCH  19  20
ATOM     20  OG  SER A   3       4.726   2.131  18.345  1.00  0.00    -0.398 OA
ATOM     21  HG  SER A   3       3.756   2.009  18.301  1.00  0.00     0.209 HD
ENDBRANCH  19  20
ENDBRANCH  14  19
ENDBRANCH  12  14
ENDBRANCH   9  10
BRANCH   9  22
ATOM     22  CB  GLN A   2       9.159  -1.154  21.625  1.00  0.00     0.044 C 
BRANCH  22  23
ATOM     23  CG  GLN A   2       9.940  -0.103  22.414  1.00  0.00     0.105 C 
BRANCH  23  24
ATOM     24  CD  GLN A   2       9.359   1.282  22.239  1.00  0.00     0.215 C 
ATOM     25  OE1 GLN A   2       8.285   1.652  22.697  1.00  0.00    -0.274 OA
ATOM     26  NE2 GLN A   2      10.147   2.128  21.516  1.00  0.00    -0.370 N 
ATOM     27 1HE2 GLN A   2       9.830   3.083  21.405  1.00  0.00     0.159 HD
ATOM     28 2HE2 GLN A   2      11.092   1.897  21.239  1.00  0.00     0.159 HD
ENDBRANCH  23  24
ENDBRANCH  22  23
ENDBRANCH   9  22
ENDBRANCH   7   9
ENDBRANCH   4   5
BRANCH   4  29
ATOM     29  CB  LEU A   1       8.317  -5.274  24.626  1.00  0.00     0.049 C 
BRANCH  29  30
ATOM     30  CG  LEU A   1       8.372  -5.116  26.163  1.00  0.00    -0.020 C 
ATOM     31  CD1 LEU A   1       7.046  -5.461  26.842  1.00  0.00     0.009 C 
ATOM     32  CD2 LEU A   1       8.859  -3.743  26.621  1.00  0.00     0.009 C 
ENDBRANCH  29  30
ENDBRANCH   4  29
ENDBRANCH   1   4
TORSDOF 14
ENDMDL
MODEL 5
REMARK VINA RESULT:      -5.7      2.204      6.080
REMARK  14 active torsions:
REMARK  status: ('A' for Active; 'I' for Inactive)
REMARK    1  A    between atoms: N_1  and  CA_2 
REMARK    2  A    between atoms: CA_2  and  C_3 
REMARK    3  A    between atoms: CA_2  and  CB_6 
REMARK       I    between atoms: C_3  and  N_11 
REMARK    4  A    between atoms: CB_6  and  CG_7 
REMARK    5  A    between atoms: N_11  and  CA_12 
REMARK    6  A    between atoms: CA_12  and  C_13 
REMARK    7  A    between atoms: CA_12  and  CB_15 
REMARK       I    between atoms: C_13  and  N_23 
REMARK    8  A    between atoms: CB_15  and  CG_16 
REMARK    9  A    between atoms: CG_16  and  CD_17 
REMARK       I    between atoms: CD_17  and  NE2_19 
REMARK   10  A    between atoms: N_23  and  CA_24 
REMARK   11  A    between atoms: CA_24  and  C_25 
REMARK   12  A    between atoms: CA_24  and  CB_27 
REMARK   13  A    between atoms: C_25  and  OXT_31 
REMARK   14  A    between atoms: CB_27  and  OG_28 
ROOT
ATOM      1  N   LEU A   1       9.681  -0.119  25.695  1.00  0.00     0.092 N 
ATOM      2  H   LEU A   1       9.428   0.623  26.353  1.00  0.00     0.313 HD
ATOM      3  HN  LEU A   1       9.093  -0.915  25.935  1.00  0.00     0.313 HD
ENDROOT
BRANCH   1   4
ATOM      4  CA  LEU A   1       9.355   0.347  24.329  1.00  0.00     0.309 C 
BRANCH   4   5
ATOM      5  C   LEU A   1       9.220  -0.910  23.440  1.00  0.00     0.251 C 
ATOM      6  O   LEU A   1      10.186  -1.509  22.970  1.00  0.00    -0.271 OA
ATOM      7  N   GLN A   2       7.924  -1.351  23.292  1.00  0.00    -0.346 N 
ATOM      8  H   GLN A   2       7.178  -0.708  23.532  1.00  0.00     0.163 HD
BRANCH   7   9
ATOM      9  CA  GLN A   2       7.587  -2.453  22.401  1.00  0.00     0.177 C 
BRANCH   9  10
ATOM     10  C   GLN A   2       6.484  -1.960  21.438  1.00  0.00     0.241 C 
ATOM     11  O   GLN A   2       5.552  -2.669  21.061  1.00  0.00    -0.271 OA
ATOM     12  N   SER A   3       6.656  -0.677  20.975  1.00  0.00    -0.343 N 
ATOM     13  H   SER A   3       7.467  -0.136  21.263  1.00  0.00     0.163 HD
BRANCH  12  14
ATOM     14  CA  SER A   3       5.854  -0.125  19.886  1.00  0.00     0.206 C 
BRANCH  14  15
ATOM     15  C   SER A   3       6.570  -0.456  18.569  1.00  0.00     0.165 C 
ATOM     16  O   SER A   3       6.142  -1.276  17.762  1.00  0.00    -0.648 OA
BRANCH  15  17
ATOM     17  OXT SER A   3       7.686   0.271  18.337  1.00  0.00    -0.775 OA
ATOM     18  HO  SER A   3       8.242  -0.128  17.620  1.00  0.00     0.167 HD
ENDBRANCH  15  17
ENDBRANCH  14  15
BRANCH  14  19
ATOM     19  CB  SER A   3       5.640   1.383  20.026  1.00  0.00     0.200 C 
BRANCH  19  20
ATOM     20  OG  SER A   3       5.001   1.887  18.843  1.00  0.00    -0.398 OA
ATOM     21  HG  SER A   3       5.718   2.055  18.198  1.00  0.00     0.209 HD
ENDBRANCH  19  20
ENDBRANCH  14  19
ENDBRANCH  12  14
ENDBRANCH   9  10
BRANCH   9  22
ATOM     22  CB  GLN A   2       7.111  -3.651  23.230  1.00  0.00     0.044 C 
BRANCH  22  23
ATOM     23  CG  GLN A   2       8.254  -4.532  23.733  1.00  0.00     0.105 C 
BRANCH  23  24
ATOM     24  CD  GLN A   2       8.545  -4.297  25.199  1.00  0.00     0.215 C 
ATOM     25  OE1 GLN A   2       8.598  -3.197  25.732  1.00  0.00    -0.274 OA
ATOM     26  NE2 GLN A   2       8.742  -5.440  25.916  1.00  0.00    -0.370 N 
ATOM     27 1HE2 GLN A   2       8.895  -5.347  26.912  1.00  0.00     0.159 HD
ATOM     28 2HE2 GLN A   2       8.575  -6.363  25.537  1.00  0.00     0.159 HD
ENDBRANCH  23  24
ENDBRANCH  22  23
ENDBRANCH   9  22
ENDBRANCH   7   9
ENDBRANCH   4   5
BRANCH   4  29
ATOM     29  CB  LEU A   1      10.447   1.308  23.831  1.00  0.00     0.049 C 
BRANCH  29  30
ATOM     30  CG  LEU A   1      10.092   2.814  23.828  1.00  0.00    -0.020 C 
ATOM     31  CD1 LEU A   1       8.811   3.118  23.052  1.00  0.00     0.009 C 
ATOM     32  CD2 LEU A   1      11.230   3.711  23.344  1.00  0.00     0.009 C 
ENDBRANCH  29  30
ENDBRANCH   4  29
ENDBRANCH   1   4
TORSDOF 14
ENDMDL
MODEL 6
REMARK VINA RESULT:      -5.6      2.291      4.255
REMARK  14 active torsions:
REMARK  status: ('A' for Active; 'I' for Inactive)
REMARK    1  A    between atoms: N_1  and  CA_2 
REMARK    2  A    between atoms: CA_2  and  C_3 
REMARK    3  A    between atoms: CA_2  and  CB_6 
REMARK       I    between atoms: C_3  and  N_11 
REMARK    4  A    between atoms: CB_6  and  CG_7 
REMARK    5  A    between atoms: N_11  and  CA_12 
REMARK    6  A    between atoms: CA_12  and  C_13 
REMARK    7  A    between atoms: CA_12  and  CB_15 
REMARK       I    between atoms: C_13  and  N_23 
REMARK    8  A    between atoms: CB_15  and  CG_16 
REMARK    9  A    between atoms: CG_16  and  CD_17 
REMARK       I    between atoms: CD_17  and  NE2_19 
REMARK   10  A    between atoms: N_23  and  CA_24 
REMARK   11  A    between atoms: CA_24  and  C_25 
REMARK   12  A    between atoms: CA_24  and  CB_27 
REMARK   13  A    between atoms: C_25  and  OXT_31 
REMARK   14  A    between atoms: CB_27  and  OG_28 
ROOT
ATOM      1  N   LEU A   1       7.366  -6.077  22.193  1.00  0.00     0.092 N 
ATOM      2  H   LEU A   1       8.124  -5.923  21.523  1.00  0.00     0.313 HD
ATOM      3  HN  LEU A   1       7.729  -5.780  23.097  1.00  0.00     0.313 HD
ENDROOT
BRANCH   1   4
ATOM      4  CA  LEU A   1       6.226  -5.216  21.807  1.00  0.00     0.309 C 
BRANCH   4   5
ATOM      5  C   LEU A   1       6.517  -3.802  22.357  1.00  0.00     0.251 C 
ATOM      6  O   LEU A   1       5.709  -2.877  22.298  1.00  0.00    -0.271 OA
ATOM      7  N   GLN A   2       7.731  -3.692  22.998  1.00  0.00    -0.346 N 
ATOM      8  H   GLN A   2       8.417  -4.420  22.834  1.00  0.00     0.163 HD
BRANCH   7   9
ATOM      9  CA  GLN A   2       8.228  -2.412  23.482  1.00  0.00     0.177 C 
BRANCH   9  10
ATOM     10  C   GLN A   2       8.783  -1.632  22.269  1.00  0.00     0.241 C 
ATOM     11  O   GLN A   2       9.926  -1.777  21.839  1.00  0.00    -0.271 OA
ATOM     12  N   SER A   3       7.917  -0.705  21.738  1.00  0.00    -0.343 N 
ATOM     13  H   SER A   3       6.998  -0.570  22.150  1.00  0.00     0.163 HD
BRANCH  12  14
ATOM     14  CA  SER A   3       8.341   0.283  20.748  1.00  0.00     0.206 C 
BRANCH  14  15
ATOM     15  C   SER A   3       8.640   1.589  21.496  1.00  0.00     0.165 C 
ATOM     16  O   SER A   3       7.789   2.207  22.129  1.00  0.00    -0.648 OA
BRANCH  15  17
ATOM     17  OXT SER A   3       9.934   1.981  21.452  1.00  0.00    -0.775 OA
ATOM     18  HO  SER A   3      10.080   2.693  20.778  1.00  0.00     0.167 HD
ENDBRANCH  15  17
ENDBRANCH  14  15
BRANCH  14  19
ATOM     19  CB  SER A   3       7.290   0.506  19.660  1.00  0.00     0.200 C 
BRANCH  19  20
ATOM     20  OG  SER A   3       7.752  -0.063  18.425  1.00  0.00    -0.398 OA
ATOM     21  HG  SER A   3       8.727  -0.093  18.488  1.00  0.00     0.209 HD
ENDBRANCH  19  20
ENDBRANCH  14  19
ENDBRANCH  12  14
ENDBRANCH   9  10
BRANCH   9  22
ATOM     22  CB  GLN A   2       9.316  -2.653  24.535  1.00  0.00     0.044 C 
BRANCH  22  23
ATOM     23  CG  GLN A   2       8.803  -3.375  25.781  1.00  0.00     0.105 C 
BRANCH  23  24
ATOM     24  CD  GLN A   2       8.882  -4.878  25.635  1.00  0.00     0.215 C 
ATOM     25  OE1 GLN A   2       7.933  -5.605  25.371  1.00  0.00    -0.274 OA
ATOM     26  NE2 GLN A   2      10.134  -5.388  25.815  1.00  0.00    -0.370 N 
ATOM     27 1HE2 GLN A   2      10.257  -6.384  25.684  1.00  0.00     0.159 HD
ATOM     28 2HE2 GLN A   2      10.957  -4.807  25.901  1.00  0.00     0.159 HD
ENDBRANCH  23  24
ENDBRANCH  22  23
ENDBRANCH   9  22
ENDBRANCH   7   9
ENDBRANCH   4   5
BRANCH   4  29
ATOM     29  CB  LEU A   1       4.916  -5.807  22.356  1.00  0.00     0.049 C 
BRANCH  29  30
ATOM     30  CG  LEU A   1       4.662  -5.632  23.871  1.00  0.00    -0.020 C 
ATOM     31  CD1 LEU A   1       4.604  -6.964  24.620  1.00  0.00     0.009 C 
ATOM     32  CD2 LEU A   1       3.428  -4.791  24.193  1.00  0.00     0.009 C 
ENDBRANCH  29  30
ENDBRANCH   4  29
ENDBRANCH   1   4
TORSDOF 14
ENDMDL
MODEL 7
REMARK VINA RESULT:      -5.6      2.473      6.782
REMARK  14 active torsions:
REMARK  status: ('A' for Active; 'I' for Inactive)
REMARK    1  A    between atoms: N_1  and  CA_2 
REMARK    2  A    between atoms: CA_2  and  C_3 
REMARK    3  A    between atoms: CA_2  and  CB_6 
REMARK       I    between atoms: C_3  and  N_11 
REMARK    4  A    between atoms: CB_6  and  CG_7 
REMARK    5  A    between atoms: N_11  and  CA_12 
REMARK    6  A    between atoms: CA_12  and  C_13 
REMARK    7  A    between atoms: CA_12  and  CB_15 
REMARK       I    between atoms: C_13  and  N_23 
REMARK    8  A    between atoms: CB_15  and  CG_16 
REMARK    9  A    between atoms: CG_16  and  CD_17 
REMARK       I    between atoms: CD_17  and  NE2_19 
REMARK   10  A    between atoms: N_23  and  CA_24 
REMARK   11  A    between atoms: CA_24  and  C_25 
REMARK   12  A    between atoms: CA_24  and  CB_27 
REMARK   13  A    between atoms: C_25  and  OXT_31 
REMARK   14  A    between atoms: CB_27  and  OG_28 
ROOT
ATOM      1  N   LEU A   1       6.501  -1.290  21.583  1.00  0.00     0.092 N 
ATOM      2  H   LEU A   1       6.194  -1.165  20.615  1.00  0.00     0.313 HD
ATOM      3  HN  LEU A   1       6.562  -2.296  21.729  1.00  0.00     0.313 HD
ENDROOT
BRANCH   1   4
ATOM      4  CA  LEU A   1       7.845  -0.685  21.722  1.00  0.00     0.309 C 
BRANCH   4   5
ATOM      5  C   LEU A   1       8.738  -1.721  22.441  1.00  0.00     0.251 C 
ATOM      6  O   LEU A   1       9.875  -2.003  22.068  1.00  0.00    -0.271 OA
ATOM      7  N   GLN A   2       8.178  -2.239  23.588  1.00  0.00    -0.346 N 
ATOM      8  H   GLN A   2       7.181  -2.119  23.720  1.00  0.00     0.163 HD
BRANCH   7   9
ATOM      9  CA  GLN A   2       8.821  -3.310  24.337  1.00  0.00     0.177 C 
BRANCH   9  10
ATOM     10  C   GLN A   2       8.187  -4.646  23.889  1.00  0.00     0.241 C 
ATOM     11  O   GLN A   2       8.823  -5.693  23.784  1.00  0.00    -0.271 OA
ATOM     12  N   SER A   3       6.857  -4.564  23.549  1.00  0.00    -0.343 N 
ATOM     13  H   SER A   3       6.373  -3.671  23.594  1.00  0.00     0.163 HD
BRANCH  12  14
ATOM     14  CA  SER A   3       6.152  -5.658  22.885  1.00  0.00     0.206 C 
BRANCH  14  15
ATOM     15  C   SER A   3       6.008  -5.285  21.403  1.00  0.00     0.165 C 
ATOM     16  O   SER A   3       6.173  -6.090  20.492  1.00  0.00    -0.648 OA
BRANCH  15  17
ATOM     17  OXT SER A   3       5.627  -4.007  21.179  1.00  0.00    -0.775 OA
ATOM     18  HO  SER A   3       6.145  -3.593  20.442  1.00  0.00     0.167 HD
ENDBRANCH  15  17
ENDBRANCH  14  15
BRANCH  14  19
ATOM     19  CB  SER A   3       4.785  -5.936  23.512  1.00  0.00     0.200 C 
BRANCH  19  20
ATOM     20  OG  SER A   3       3.818  -6.157  22.474  1.00  0.00    -0.398 OA
ATOM     21  HG  SER A   3       3.180  -6.806  22.832  1.00  0.00     0.209 HD
ENDBRANCH  19  20
ENDBRANCH  14  19
ENDBRANCH  12  14
ENDBRANCH   9  10
BRANCH   9  22
ATOM     22  CB  GLN A   2       8.621  -3.072  25.838  1.00  0.00     0.044 C 
BRANCH  22  23
ATOM     23  CG  GLN A   2       7.834  -1.799  26.150  1.00  0.00     0.105 C 
BRANCH  23  24
ATOM     24  CD  GLN A   2       8.747  -0.627  26.434  1.00  0.00     0.215 C 
ATOM     25  OE1 GLN A   2       9.623  -0.226  25.680  1.00  0.00    -0.274 OA
ATOM     26  NE2 GLN A   2       8.510  -0.016  27.630  1.00  0.00    -0.370 N 
ATOM     27 1HE2 GLN A   2       9.060   0.804  27.854  1.00  0.00     0.159 HD
ATOM     28 2HE2 GLN A   2       7.713  -0.237  28.212  1.00  0.00     0.159 HD
ENDBRANCH  23  24
ENDBRANCH  22  23
ENDBRANCH   9  22
ENDBRANCH   7   9
ENDBRANCH   4   5
BRANCH   4  29
ATOM     29  CB  LEU A   1       7.743   0.643  22.491  1.00  0.00     0.049 C 
BRANCH  29  30
ATOM     30  CG  LEU A   1       8.478   1.856  21.873  1.00  0.00    -0.020 C 
ATOM     31  CD1 LEU A   1       9.997   1.768  22.025  1.00  0.00     0.009 C 
ATOM     32  CD2 LEU A   1       7.973   3.204  22.384  1.00  0.00     0.009 C 
ENDBRANCH  29  30
ENDBRANCH   4  29
ENDBRANCH   1   4
TORSDOF 14
ENDMDL
MODEL 8
REMARK VINA RESULT:      -5.6      2.199      6.308
REMARK  14 active torsions:
REMARK  status: ('A' for Active; 'I' for Inactive)
REMARK    1  A    between atoms: N_1  and  CA_2 
REMARK    2  A    between atoms: CA_2  and  C_3 
REMARK    3  A    between atoms: CA_2  and  CB_6 
REMARK       I    between atoms: C_3  and  N_11 
REMARK    4  A    between atoms: CB_6  and  CG_7 
REMARK    5  A    between atoms: N_11  and  CA_12 
REMARK    6  A    between atoms: CA_12  and  C_13 
REMARK    7  A    between atoms: CA_12  and  CB_15 
REMARK       I    between atoms: C_13  and  N_23 
REMARK    8  A    between atoms: CB_15  and  CG_16 
REMARK    9  A    between atoms: CG_16  and  CD_17 
REMARK       I    between atoms: CD_17  and  NE2_19 
REMARK   10  A    between atoms: N_23  and  CA_24 
REMARK   11  A    between atoms: CA_24  and  C_25 
REMARK   12  A    between atoms: CA_24  and  CB_27 
REMARK   13  A    between atoms: C_25  and  OXT_31 
REMARK   14  A    between atoms: CB_27  and  OG_28 
ROOT
ATOM      1  N   LEU A   1       6.441  -1.305  22.028  1.00  0.00     0.092 N 
ATOM      2  H   LEU A   1       5.636  -1.258  21.398  1.00  0.00     0.313 HD
ATOM      3  HN  LEU A   1       6.443  -2.249  22.408  1.00  0.00     0.313 HD
ENDROOT
BRANCH   1   4
ATOM      4  CA  LEU A   1       7.666  -1.089  21.226  1.00  0.00     0.309 C 
BRANCH   4   5
ATOM      5  C   LEU A   1       8.869  -1.238  22.184  1.00  0.00     0.251 C 
ATOM      6  O   LEU A   1       9.906  -1.823  21.876  1.00  0.00    -0.271 OA
ATOM      7  N   GLN A   2       8.709  -0.584  23.385  1.00  0.00    -0.346 N 
ATOM      8  H   GLN A   2       7.772  -0.302  23.647  1.00  0.00     0.163 HD
BRANCH   7   9
ATOM      9  CA  GLN A   2       9.687  -0.704  24.458  1.00  0.00     0.177 C 
BRANCH   9  10
ATOM     10  C   GLN A   2       8.978  -1.340  25.674  1.00  0.00     0.241 C 
ATOM     11  O   GLN A   2       8.979  -0.834  26.795  1.00  0.00    -0.271 OA
ATOM     12  N   SER A   3       8.395  -2.560  25.426  1.00  0.00    -0.343 N 
ATOM     13  H   SER A   3       8.459  -2.977  24.501  1.00  0.00     0.163 HD
BRANCH  12  14
ATOM     14  CA  SER A   3       7.886  -3.415  26.496  1.00  0.00     0.206 C 
BRANCH  14  15
ATOM     15  C   SER A   3       8.479  -4.816  26.290  1.00  0.00     0.165 C 
ATOM     16  O   SER A   3       9.177  -5.112  25.326  1.00  0.00    -0.648 OA
BRANCH  15  17
ATOM     17  OXT SER A   3       8.219  -5.690  27.290  1.00  0.00    -0.775 OA
ATOM     18  HO  SER A   3       7.424  -6.247  27.093  1.00  0.00     0.167 HD
ENDBRANCH  15  17
ENDBRANCH  14  15
BRANCH  14  19
ATOM     19  CB  SER A   3       6.358  -3.469  26.523  1.00  0.00     0.200 C 
BRANCH  19  20
ATOM     20  OG  SER A   3       5.905  -4.590  25.749  1.00  0.00    -0.398 OA
ATOM     21  HG  SER A   3       6.638  -5.238  25.756  1.00  0.00     0.209 HD
ENDBRANCH  19  20
ENDBRANCH  14  19
ENDBRANCH  12  14
ENDBRANCH   9  10
BRANCH   9  22
ATOM     22  CB  GLN A   2      10.244   0.684  24.798  1.00  0.00     0.044 C 
BRANCH  22  23
ATOM     23  CG  GLN A   2       9.489   1.823  24.113  1.00  0.00     0.105 C 
BRANCH  23  24
ATOM     24  CD  GLN A   2      10.374   2.596  23.161  1.00  0.00     0.215 C 
ATOM     25  OE1 GLN A   2      11.229   3.402  23.503  1.00  0.00    -0.274 OA
ATOM     26  NE2 GLN A   2      10.154   2.314  21.845  1.00  0.00    -0.370 N 
ATOM     27 1HE2 GLN A   2      10.749   2.768  21.164  1.00  0.00     0.159 HD
ATOM     28 2HE2 GLN A   2       9.553   1.561  21.538  1.00  0.00     0.159 HD
ENDBRANCH  23  24
ENDBRANCH  22  23
ENDBRANCH   9  22
ENDBRANCH   7   9
ENDBRANCH   4   5
BRANCH   4  29
ATOM     29  CB  LEU A   1       7.613   0.293  20.554  1.00  0.00     0.049 C 
BRANCH  29  30
ATOM     30  CG  LEU A   1       6.265   1.047  20.631  1.00  0.00    -0.020 C 
ATOM     31  CD1 LEU A   1       5.666   1.332  19.253  1.00  0.00     0.009 C 
ATOM     32  CD2 LEU A   1       6.326   2.330  21.457  1.00  0.00     0.009 C 
ENDBRANCH  29  30
ENDBRANCH   4  29
ENDBRANCH   1   4
TORSDOF 14
ENDMDL
MODEL 9
REMARK VINA RESULT:      -5.6      2.124      5.708
REMARK  14 active torsions:
REMARK  status: ('A' for Active; 'I' for Inactive)
REMARK    1  A    between atoms: N_1  and  CA_2 
REMARK    2  A    between atoms: CA_2  and  C_3 
REMARK    3  A    between atoms: CA_2  and  CB_6 
REMARK       I    between atoms: C_3  and  N_11 
REMARK    4  A    between atoms: CB_6  and  CG_7 
REMARK    5  A    between atoms: N_11  and  CA_12 
REMARK    6  A    between atoms: CA_12  and  C_13 
REMARK    7  A    between atoms: CA_12  and  CB_15 
REMARK       I    between atoms: C_13  and  N_23 
REMARK    8  A    between atoms: CB_15  and  CG_16 
REMARK    9  A    between atoms: CG_16  and  CD_17 
REMARK       I    between atoms: CD_17  and  NE2_19 
REMARK   10  A    between atoms: N_23  and  CA_24 
REMARK   11  A    between atoms: CA_24  and  C_25 
REMARK   12  A    between atoms: CA_24  and  CB_27 
REMARK   13  A    between atoms: C_25  and  OXT_31 
REMARK   14  A    between atoms: CB_27  and  OG_28 
ROOT
ATOM      1  N   LEU A   1       9.120  -0.228  26.496  1.00  0.00     0.092 N 
ATOM      2  H   LEU A   1       9.215  -1.213  26.233  1.00  0.00     0.313 HD
ATOM      3  HN  LEU A   1      10.022   0.045  26.881  1.00  0.00     0.313 HD
ENDROOT
BRANCH   1   4
ATOM      4  CA  LEU A   1       8.844   0.552  25.269  1.00  0.00     0.309 C 
BRANCH   4   5
ATOM      5  C   LEU A   1       7.689  -0.159  24.529  1.00  0.00     0.251 C 
ATOM      6  O   LEU A   1       6.503   0.079  24.746  1.00  0.00    -0.271 OA
ATOM      7  N   GLN A   2       8.109  -1.023  23.541  1.00  0.00    -0.346 N 
ATOM      8  H   GLN A   2       9.078  -1.318  23.554  1.00  0.00     0.163 HD
BRANCH   7   9
ATOM      9  CA  GLN A   2       7.171  -1.866  22.813  1.00  0.00     0.177 C 
BRANCH   9  10
ATOM     10  C   GLN A   2       7.503  -3.338  23.146  1.00  0.00     0.241 C 
ATOM     11  O   GLN A   2       7.306  -4.267  22.365  1.00  0.00    -0.271 OA
ATOM     12  N   SER A   3       7.979  -3.545  24.419  1.00  0.00    -0.343 N 
ATOM     13  H   SER A   3       8.079  -2.762  25.060  1.00  0.00     0.163 HD
BRANCH  12  14
ATOM     14  CA  SER A   3       8.124  -4.882  24.991  1.00  0.00     0.206 C 
BRANCH  14  15
ATOM     15  C   SER A   3       7.219  -4.957  26.228  1.00  0.00     0.165 C 
ATOM     16  O   SER A   3       6.814  -6.016  26.698  1.00  0.00    -0.648 OA
BRANCH  15  17
ATOM     17  OXT SER A   3       6.945  -3.762  26.800  1.00  0.00    -0.775 OA
ATOM     18  HO  SER A   3       6.951  -3.027  26.136  1.00  0.00     0.167 HD
ENDBRANCH  15  17
ENDBRANCH  14  15
BRANCH  14  19
ATOM     19  CB  SER A   3       9.573  -5.205  25.356  1.00  0.00     0.200 C 
BRANCH  19  20
ATOM     20  OG  SER A   3       9.771  -4.997  26.763  1.00  0.00    -0.398 OA
ATOM     21  HG  SER A   3      10.647  -5.377  26.973  1.00  0.00     0.209 HD
ENDBRANCH  19  20
ENDBRANCH  14  19
ENDBRANCH  12  14
ENDBRANCH   9  10
BRANCH   9  22
ATOM     22  CB  GLN A   2       7.299  -1.591  21.310  1.00  0.00     0.044 C 
BRANCH  22  23
ATOM     23  CG  GLN A   2       7.058  -0.128  20.940  1.00  0.00     0.105 C 
BRANCH  23  24
ATOM     24  CD  GLN A   2       6.684   0.032  19.483  1.00  0.00     0.215 C 
ATOM     25  OE1 GLN A   2       7.472   0.297  18.585  1.00  0.00    -0.274 OA
ATOM     26  NE2 GLN A   2       5.358  -0.157  19.227  1.00  0.00    -0.370 N 
ATOM     27 1HE2 GLN A   2       5.056  -0.108  18.262  1.00  0.00     0.159 HD
ATOM     28 2HE2 GLN A   2       4.708  -0.505  19.920  1.00  0.00     0.159 HD
ENDBRANCH  23  24
ENDBRANCH  22  23
ENDBRANCH   9  22
ENDBRANCH   7   9
ENDBRANCH   4   5
BRANCH   4  29
ATOM     29  CB  LEU A   1      10.120   0.653  24.417  1.00  0.00     0.049 C 
BRANCH  29  30
ATOM     30  CG  LEU A   1      10.292   1.945  23.584  1.00  0.00    -0.020 C 
ATOM     31  CD1 LEU A   1       9.423   3.097  24.090  1.00  0.00     0.009 C 
ATOM     32  CD2 LEU A   1      10.079   1.742  22.085  1.00  0.00     0.009 C 
ENDBRANCH  29  30
ENDBRANCH   4  29
ENDBRANCH   1   4
TORSDOF 14
ENDMDL
