REMARK  14 active torsions:
REMARK  status: ('A' for Active; 'I' for Inactive)
REMARK    1  A    between atoms: N_1  and  CA_2 
REMARK    2  A    between atoms: CA_2  and  C_3 
REMARK    3  A    between atoms: CA_2  and  CB_6 
REMARK       I    between atoms: C_3  and  N_11 
REMARK    4  A    between atoms: CB_6  and  CG_7 
REMARK    5  A    between atoms: N_11  and  CA_12 
REMARK    6  A    between atoms: CA_12  and  C_13 
REMARK    7  A    between atoms: CA_12  and  CB_15 
REMARK       I    between atoms: C_13  and  N_23 
REMARK    8  A    between atoms: CB_15  and  CG_16 
REMARK    9  A    between atoms: CG_16  and  CD_17 
REMARK       I    between atoms: CD_17  and  NE2_19 
REMARK   10  A    between atoms: N_23  and  CA_24 
REMARK   11  A    between atoms: CA_24  and  C_25 
REMARK   12  A    between atoms: CA_24  and  CB_27 
REMARK   13  A    between atoms: C_25  and  OXT_31 
REMARK   14  A    between atoms: CB_27  and  OG_28 
ROOT
ATOM      1  N   LEU A   1       2.026  -2.760 -14.507  1.00  0.00     0.092 N 
ATOM      2  H   LEU A   1       2.419  -3.263 -15.307  1.00  0.00     0.313 HD
ATOM      3  HN  LEU A   1       1.335  -2.120 -14.893  1.00  0.00     0.313 HD
ENDROOT
BRANCH   1   4
ATOM      4  CA  LEU A   1       1.357  -3.744 -13.627  1.00  0.00     0.309 C 
BRANCH   4   5
ATOM      5  C   LEU A   1       2.412  -4.808 -13.250  1.00  0.00     0.251 C 
ATOM      6  O   LEU A   1       2.662  -5.786 -13.952  1.00  0.00    -0.271 OA
ATOM      7  N   GLN A   2       3.109  -4.518 -12.098  1.00  0.00    -0.346 N 
ATOM      8  H   GLN A   2       2.720  -3.819 -11.476  1.00  0.00     0.163 HD
BRANCH   7   9
ATOM      9  CA  GLN A   2       4.063  -5.457 -11.524  1.00  0.00     0.177 C 
BRANCH   9  10
ATOM     10  C   GLN A   2       3.330  -6.265 -10.430  1.00  0.00     0.241 C 
ATOM     11  O   GLN A   2       2.354  -5.838  -9.816  1.00  0.00    -0.271 OA
ATOM     12  N   SER A   3       3.895  -7.485 -10.142  1.00  0.00    -0.343 N 
ATOM     13  H   SER A   3       4.735  -7.786 -10.629  1.00  0.00     0.163 HD
BRANCH  12  14
ATOM     14  CA  SER A   3       3.488  -8.281  -8.986  1.00  0.00     0.206 C 
BRANCH  14  15
ATOM     15  C   SER A   3       4.643  -9.234  -8.650  1.00  0.00     0.165 C 
ATOM     16  O   SER A   3       5.757  -9.140  -9.156  1.00  0.00    -0.648 OA
BRANCH  15  17
ATOM     17  OXT SER A   3       4.355 -10.157  -7.704  1.00  0.00    -0.775 OA
ATOM     18  HO  SER A   3       3.399 -10.131  -7.444  1.00  0.00     0.167 HD
ENDBRANCH  15  17
ENDBRANCH  14  15
BRANCH  14  19
ATOM     19  CB  SER A   3       2.196  -9.059  -9.240  1.00  0.00     0.200 C 
BRANCH  19  20
ATOM     20  OG  SER A   3       1.814  -9.756  -8.044  1.00  0.00    -0.398 OA
ATOM     21  HG  SER A   3       0.896 -10.061  -8.190  1.00  0.00     0.209 HD
ENDBRANCH  19  20
ENDBRANCH  14  19
ENDBRANCH  12  14
ENDBRANCH   9  10
BRANCH   9  22
ATOM     22  CB  GLN A   2       5.253  -4.683 -10.944  1.00  0.00     0.044 C 
BRANCH  22  23
ATOM     23  CG  GLN A   2       6.464  -5.567 -10.648  1.00  0.00     0.105 C 
BRANCH  23  24
ATOM     24  CD  GLN A   2       7.686  -4.750 -10.292  1.00  0.00     0.215 C 
ATOM     25  OE1 GLN A   2       7.694  -3.535 -10.142  1.00  0.00    -0.274 OA
ATOM     26  NE2 GLN A   2       8.821  -5.489 -10.133  1.00  0.00    -0.370 N 
ATOM     27 1HE2 GLN A   2       9.661  -5.001  -9.849  1.00  0.00     0.159 HD
ATOM     28 2HE2 GLN A   2       8.821  -6.500 -10.119  1.00  0.00     0.159 HD
ENDBRANCH  23  24
ENDBRANCH  22  23
ENDBRANCH   9  22
ENDBRANCH   7   9
ENDBRANCH   4   5
BRANCH   4  29
ATOM     29  CB  LEU A   1       0.140  -4.347 -14.348  1.00  0.00     0.049 C 
BRANCH  29  30
ATOM     30  CG  LEU A   1      -0.838  -5.172 -13.479  1.00  0.00    -0.020 C 
ATOM     31  CD1 LEU A   1      -1.353  -4.395 -12.267  1.00  0.00     0.009 C 
ATOM     32  CD2 LEU A   1      -0.278  -6.524 -13.041  1.00  0.00     0.009 C 
ENDBRANCH  29  30
ENDBRANCH   4  29
ENDBRANCH   1   4
TORSDOF 14
