MODEL 1
REMARK VINA RESULT:      -6.5      0.000      0.000
REMARK  14 active torsions:
REMARK  status: ('A' for Active; 'I' for Inactive)
REMARK    1  A    between atoms: N_1  and  CA_2 
REMARK    2  A    between atoms: CA_2  and  C_3 
REMARK    3  A    between atoms: CA_2  and  CB_6 
REMARK       I    between atoms: C_3  and  N_11 
REMARK    4  A    between atoms: CB_6  and  CG_7 
REMARK    5  A    between atoms: N_11  and  CA_12 
REMARK    6  A    between atoms: CA_12  and  C_13 
REMARK    7  A    between atoms: CA_12  and  CB_15 
REMARK       I    between atoms: C_13  and  N_23 
REMARK    8  A    between atoms: CB_15  and  CG_16 
REMARK    9  A    between atoms: CG_16  and  CD_17 
REMARK       I    between atoms: CD_17  and  NE2_19 
REMARK   10  A    between atoms: N_23  and  CA_24 
REMARK   11  A    between atoms: CA_24  and  C_25 
REMARK   12  A    between atoms: CA_24  and  CB_27 
REMARK   13  A    between atoms: C_25  and  OXT_31 
REMARK   14  A    between atoms: CB_27  and  OG_28 
ROOT
ATOM      1  N   LEU A   1       9.212  -5.179  25.164  1.00  0.00     0.092 N 
ATOM      2  H   LEU A   1       9.968  -4.491  25.124  1.00  0.00     0.313 HD
ATOM      3  HN  LEU A   1       8.801  -5.087  26.091  1.00  0.00     0.313 HD
ENDROOT
BRANCH   1   4
ATOM      4  CA  LEU A   1       8.208  -4.822  24.137  1.00  0.00     0.309 C 
BRANCH   4   5
ATOM      5  C   LEU A   1       8.303  -3.295  23.920  1.00  0.00     0.251 C 
ATOM      6  O   LEU A   1       8.663  -2.512  24.797  1.00  0.00    -0.271 OA
ATOM      7  N   GLN A   2       8.029  -2.898  22.630  1.00  0.00    -0.346 N 
ATOM      8  H   GLN A   2       7.551  -3.556  22.026  1.00  0.00     0.163 HD
BRANCH   7   9
ATOM      9  CA  GLN A   2       7.957  -1.490  22.262  1.00  0.00     0.177 C 
BRANCH   9  10
ATOM     10  C   GLN A   2       6.756  -1.312  21.307  1.00  0.00     0.241 C 
ATOM     11  O   GLN A   2       6.009  -2.234  20.984  1.00  0.00    -0.271 OA
ATOM     12  N   SER A   3       6.619  -0.047  20.786  1.00  0.00    -0.343 N 
ATOM     13  H   SER A   3       7.287   0.680  21.030  1.00  0.00     0.163 HD
BRANCH  12  14
ATOM     14  CA  SER A   3       5.695   0.252  19.694  1.00  0.00     0.206 C 
BRANCH  14  15
ATOM     15  C   SER A   3       6.430  -0.026  18.376  1.00  0.00     0.165 C 
ATOM     16  O   SER A   3       7.632   0.167  18.226  1.00  0.00    -0.648 OA
BRANCH  15  17
ATOM     17  OXT SER A   3       5.657  -0.557  17.401  1.00  0.00    -0.775 OA
ATOM     18  HO  SER A   3       6.012  -0.354  16.499  1.00  0.00     0.167 HD
ENDBRANCH  15  17
ENDBRANCH  14  15
BRANCH  14  19
ATOM     19  CB  SER A   3       5.186   1.693  19.741  1.00  0.00     0.200 C 
BRANCH  19  20
ATOM     20  OG  SER A   3       4.647   2.052  18.459  1.00  0.00    -0.398 OA
ATOM     21  HG  SER A   3       5.381   2.469  17.964  1.00  0.00     0.209 HD
ENDBRANCH  19  20
ENDBRANCH  14  19
ENDBRANCH  12  14
ENDBRANCH   9  10
BRANCH   9  22
ATOM     22  CB  GLN A   2       9.271  -1.072  21.591  1.00  0.00     0.044 C 
BRANCH  22  23
ATOM     23  CG  GLN A   2      10.122  -0.141  22.453  1.00  0.00     0.105 C 
BRANCH  23  24
ATOM     24  CD  GLN A   2       9.535   1.251  22.531  1.00  0.00     0.215 C 
ATOM     25  OE1 GLN A   2       8.689   1.607  23.341  1.00  0.00    -0.274 OA
ATOM     26  NE2 GLN A   2      10.039   2.119  21.607  1.00  0.00    -0.370 N 
ATOM     27 1HE2 GLN A   2       9.716   3.077  21.641  1.00  0.00     0.159 HD
ATOM     28 2HE2 GLN A   2      10.827   1.895  21.016  1.00  0.00     0.159 HD
ENDBRANCH  23  24
ENDBRANCH  22  23
ENDBRANCH   9  22
ENDBRANCH   7   9
ENDBRANCH   4   5
BRANCH   4  29
ATOM     29  CB  LEU A   1       6.810  -5.269  24.595  1.00  0.00     0.049 C 
BRANCH  29  30
ATOM     30  CG  LEU A   1       5.827  -5.707  23.483  1.00  0.00    -0.020 C 
ATOM     31  CD1 LEU A   1       6.539  -6.163  22.209  1.00  0.00     0.009 C 
ATOM     32  CD2 LEU A   1       4.770  -4.657  23.151  1.00  0.00     0.009 C 
ENDBRANCH  29  30
ENDBRANCH   4  29
ENDBRANCH   1   4
TORSDOF 14
ENDMDL
MODEL 2
REMARK VINA RESULT:      -6.4      1.781      4.714
REMARK  14 active torsions:
REMARK  status: ('A' for Active; 'I' for Inactive)
REMARK    1  A    between atoms: N_1  and  CA_2 
REMARK    2  A    between atoms: CA_2  and  C_3 
REMARK    3  A    between atoms: CA_2  and  CB_6 
REMARK       I    between atoms: C_3  and  N_11 
REMARK    4  A    between atoms: CB_6  and  CG_7 
REMARK    5  A    between atoms: N_11  and  CA_12 
REMARK    6  A    between atoms: CA_12  and  C_13 
REMARK    7  A    between atoms: CA_12  and  CB_15 
REMARK       I    between atoms: C_13  and  N_23 
REMARK    8  A    between atoms: CB_15  and  CG_16 
REMARK    9  A    between atoms: CG_16  and  CD_17 
REMARK       I    between atoms: CD_17  and  NE2_19 
REMARK   10  A    between atoms: N_23  and  CA_24 
REMARK   11  A    between atoms: CA_24  and  C_25 
REMARK   12  A    between atoms: CA_24  and  CB_27 
REMARK   13  A    between atoms: C_25  and  OXT_31 
REMARK   14  A    between atoms: CB_27  and  OG_28 
ROOT
ATOM      1  N   LEU A   1       9.272   1.660  21.232  1.00  0.00     0.092 N 
ATOM      2  H   LEU A   1       8.443   1.302  20.751  1.00  0.00     0.313 HD
ATOM      3  HN  LEU A   1       9.000   2.558  21.626  1.00  0.00     0.313 HD
ENDROOT
BRANCH   1   4
ATOM      4  CA  LEU A   1       9.615   0.720  22.322  1.00  0.00     0.309 C 
BRANCH   4   5
ATOM      5  C   LEU A   1       9.046  -0.661  21.928  1.00  0.00     0.251 C 
ATOM      6  O   LEU A   1       9.751  -1.601  21.566  1.00  0.00    -0.271 OA
ATOM      7  N   GLN A   2       7.684  -0.772  22.099  1.00  0.00    -0.346 N 
ATOM      8  H   GLN A   2       7.151   0.084  22.203  1.00  0.00     0.163 HD
BRANCH   7   9
ATOM      9  CA  GLN A   2       6.954  -1.959  21.675  1.00  0.00     0.177 C 
BRANCH   9  10
ATOM     10  C   GLN A   2       6.051  -1.558  20.487  1.00  0.00     0.241 C 
ATOM     11  O   GLN A   2       5.480  -2.376  19.768  1.00  0.00    -0.271 OA
ATOM     12  N   SER A   3       5.985  -0.206  20.247  1.00  0.00    -0.343 N 
ATOM     13  H   SER A   3       6.513   0.442  20.826  1.00  0.00     0.163 HD
BRANCH  12  14
ATOM     14  CA  SER A   3       5.379   0.344  19.036  1.00  0.00     0.206 C 
BRANCH  14  15
ATOM     15  C   SER A   3       6.517   0.750  18.091  1.00  0.00     0.165 C 
ATOM     16  O   SER A   3       6.334   1.377  17.052  1.00  0.00    -0.648 OA
BRANCH  15  17
ATOM     17  OXT SER A   3       7.755   0.412  18.522  1.00  0.00    -0.775 OA
ATOM     18  HO  SER A   3       8.457   0.703  17.886  1.00  0.00     0.167 HD
ENDBRANCH  15  17
ENDBRANCH  14  15
BRANCH  14  19
ATOM     19  CB  SER A   3       4.465   1.534  19.331  1.00  0.00     0.200 C 
BRANCH  19  20
ATOM     20  OG  SER A   3       4.978   2.264  20.456  1.00  0.00    -0.398 OA
ATOM     21  HG  SER A   3       5.931   2.399  20.280  1.00  0.00     0.209 HD
ENDBRANCH  19  20
ENDBRANCH  14  19
ENDBRANCH  12  14
ENDBRANCH   9  10
BRANCH   9  22
ATOM     22  CB  GLN A   2       6.126  -2.493  22.850  1.00  0.00     0.044 C 
BRANCH  22  23
ATOM     23  CG  GLN A   2       6.967  -2.829  24.081  1.00  0.00     0.105 C 
BRANCH  23  24
ATOM     24  CD  GLN A   2       7.974  -3.921  23.796  1.00  0.00     0.215 C 
ATOM     25  OE1 GLN A   2       9.178  -3.830  23.999  1.00  0.00    -0.274 OA
ATOM     26  NE2 GLN A   2       7.427  -5.062  23.288  1.00  0.00    -0.370 N 
ATOM     27 1HE2 GLN A   2       8.047  -5.844  23.121  1.00  0.00     0.159 HD
ATOM     28 2HE2 GLN A   2       6.429  -5.216  23.234  1.00  0.00     0.159 HD
ENDBRANCH  23  24
ENDBRANCH  22  23
ENDBRANCH   9  22
ENDBRANCH   7   9
ENDBRANCH   4   5
BRANCH   4  29
ATOM     29  CB  LEU A   1       9.047   1.236  23.654  1.00  0.00     0.049 C 
BRANCH  29  30
ATOM     30  CG  LEU A   1       9.814   0.832  24.935  1.00  0.00    -0.020 C 
ATOM     31  CD1 LEU A   1      11.309   0.623  24.688  1.00  0.00     0.009 C 
ATOM     32  CD2 LEU A   1       9.222  -0.382  25.648  1.00  0.00     0.009 C 
ENDBRANCH  29  30
ENDBRANCH   4  29
ENDBRANCH   1   4
TORSDOF 14
ENDMDL
MODEL 3
REMARK VINA RESULT:      -6.3      1.745      5.341
REMARK  14 active torsions:
REMARK  status: ('A' for Active; 'I' for Inactive)
REMARK    1  A    between atoms: N_1  and  CA_2 
REMARK    2  A    between atoms: CA_2  and  C_3 
REMARK    3  A    between atoms: CA_2  and  CB_6 
REMARK       I    between atoms: C_3  and  N_11 
REMARK    4  A    between atoms: CB_6  and  CG_7 
REMARK    5  A    between atoms: N_11  and  CA_12 
REMARK    6  A    between atoms: CA_12  and  C_13 
REMARK    7  A    between atoms: CA_12  and  CB_15 
REMARK       I    between atoms: C_13  and  N_23 
REMARK    8  A    between atoms: CB_15  and  CG_16 
REMARK    9  A    between atoms: CG_16  and  CD_17 
REMARK       I    between atoms: CD_17  and  NE2_19 
REMARK   10  A    between atoms: N_23  and  CA_24 
REMARK   11  A    between atoms: CA_24  and  C_25 
REMARK   12  A    between atoms: CA_24  and  CB_27 
REMARK   13  A    between atoms: C_25  and  OXT_31 
REMARK   14  A    between atoms: CB_27  and  OG_28 
ROOT
ATOM      1  N   LEU A   1       9.523   2.174  21.494  1.00  0.00     0.092 N 
ATOM      2  H   LEU A   1       9.976   3.065  21.274  1.00  0.00     0.313 HD
ATOM      3  HN  LEU A   1       9.531   1.636  20.630  1.00  0.00     0.313 HD
ENDROOT
BRANCH   1   4
ATOM      4  CA  LEU A   1      10.339   1.484  22.518  1.00  0.00     0.309 C 
BRANCH   4   5
ATOM      5  C   LEU A   1       9.861   0.015  22.566  1.00  0.00     0.251 C 
ATOM      6  O   LEU A   1      10.625  -0.937  22.710  1.00  0.00    -0.271 OA
ATOM      7  N   GLN A   2       8.492  -0.127  22.520  1.00  0.00    -0.346 N 
ATOM      8  H   GLN A   2       7.946   0.666  22.203  1.00  0.00     0.163 HD
BRANCH   7   9
ATOM      9  CA  GLN A   2       7.861  -1.438  22.440  1.00  0.00     0.177 C 
BRANCH   9  10
ATOM     10  C   GLN A   2       6.693  -1.339  21.433  1.00  0.00     0.241 C 
ATOM     11  O   GLN A   2       5.965  -2.288  21.149  1.00  0.00    -0.271 OA
ATOM     12  N   SER A   3       6.565  -0.114  20.821  1.00  0.00    -0.343 N 
ATOM     13  H   SER A   3       7.217   0.635  21.037  1.00  0.00     0.163 HD
BRANCH  12  14
ATOM     14  CA  SER A   3       5.678   0.099  19.680  1.00  0.00     0.206 C 
BRANCH  14  15
ATOM     15  C   SER A   3       6.480  -0.202  18.407  1.00  0.00     0.165 C 
ATOM     16  O   SER A   3       7.676   0.050  18.294  1.00  0.00    -0.648 OA
BRANCH  15  17
ATOM     17  OXT SER A   3       5.778  -0.823  17.432  1.00  0.00    -0.775 OA
ATOM     18  HO  SER A   3       4.835  -0.518  17.406  1.00  0.00     0.167 HD
ENDBRANCH  15  17
ENDBRANCH  14  15
BRANCH  14  19
ATOM     19  CB  SER A   3       5.108   1.518  19.642  1.00  0.00     0.200 C 
BRANCH  19  20
ATOM     20  OG  SER A   3       5.054   1.976  18.282  1.00  0.00    -0.398 OA
ATOM     21  HG  SER A   3       5.801   1.545  17.821  1.00  0.00     0.209 HD
ENDBRANCH  19  20
ENDBRANCH  14  19
ENDBRANCH  12  14
ENDBRANCH   9  10
BRANCH   9  22
ATOM     22  CB  GLN A   2       7.366  -1.850  23.832  1.00  0.00     0.044 C 
BRANCH  22  23
ATOM     23  CG  GLN A   2       8.152  -3.013  24.434  1.00  0.00     0.105 C 
BRANCH  23  24
ATOM     24  CD  GLN A   2       7.726  -4.343  23.853  1.00  0.00     0.215 C 
ATOM     25  OE1 GLN A   2       8.463  -5.310  23.707  1.00  0.00    -0.274 OA
ATOM     26  NE2 GLN A   2       6.410  -4.398  23.499  1.00  0.00    -0.370 N 
ATOM     27 1HE2 GLN A   2       6.057  -5.279  23.146  1.00  0.00     0.159 HD
ATOM     28 2HE2 GLN A   2       5.748  -3.669  23.727  1.00  0.00     0.159 HD
ENDBRANCH  23  24
ENDBRANCH  22  23
ENDBRANCH   9  22
ENDBRANCH   7   9
ENDBRANCH   4   5
BRANCH   4  29
ATOM     29  CB  LEU A   1      10.192   2.198  23.872  1.00  0.00     0.049 C 
BRANCH  29  30
ATOM     30  CG  LEU A   1       9.109   3.300  23.957  1.00  0.00    -0.020 C 
ATOM     31  CD1 LEU A   1       9.700   4.710  23.978  1.00  0.00     0.009 C 
ATOM     32  CD2 LEU A   1       8.138   3.116  25.122  1.00  0.00     0.009 C 
ENDBRANCH  29  30
ENDBRANCH   4  29
ENDBRANCH   1   4
TORSDOF 14
ENDMDL
MODEL 4
REMARK VINA RESULT:      -6.3      1.975      5.109
REMARK  14 active torsions:
REMARK  status: ('A' for Active; 'I' for Inactive)
REMARK    1  A    between atoms: N_1  and  CA_2 
REMARK    2  A    between atoms: CA_2  and  C_3 
REMARK    3  A    between atoms: CA_2  and  CB_6 
REMARK       I    between atoms: C_3  and  N_11 
REMARK    4  A    between atoms: CB_6  and  CG_7 
REMARK    5  A    between atoms: N_11  and  CA_12 
REMARK    6  A    between atoms: CA_12  and  C_13 
REMARK    7  A    between atoms: CA_12  and  CB_15 
REMARK       I    between atoms: C_13  and  N_23 
REMARK    8  A    between atoms: CB_15  and  CG_16 
REMARK    9  A    between atoms: CG_16  and  CD_17 
REMARK       I    between atoms: CD_17  and  NE2_19 
REMARK   10  A    between atoms: N_23  and  CA_24 
REMARK   11  A    between atoms: CA_24  and  C_25 
REMARK   12  A    between atoms: CA_24  and  CB_27 
REMARK   13  A    between atoms: C_25  and  OXT_31 
REMARK   14  A    between atoms: CB_27  and  OG_28 
ROOT
ATOM      1  N   LEU A   1       9.287  -0.374  25.984  1.00  0.00     0.092 N 
ATOM      2  H   LEU A   1      10.251  -0.642  26.200  1.00  0.00     0.313 HD
ATOM      3  HN  LEU A   1       9.088   0.437  26.566  1.00  0.00     0.313 HD
ENDROOT
BRANCH   1   4
ATOM      4  CA  LEU A   1       9.225   0.009  24.556  1.00  0.00     0.309 C 
BRANCH   4   5
ATOM      5  C   LEU A   1       9.005  -1.288  23.746  1.00  0.00     0.251 C 
ATOM      6  O   LEU A   1       9.825  -2.204  23.707  1.00  0.00    -0.271 OA
ATOM      7  N   GLN A   2       7.771  -1.365  23.141  1.00  0.00    -0.346 N 
ATOM      8  H   GLN A   2       7.238  -0.508  23.047  1.00  0.00     0.163 HD
BRANCH   7   9
ATOM      9  CA  GLN A   2       7.425  -2.459  22.244  1.00  0.00     0.177 C 
BRANCH   9  10
ATOM     10  C   GLN A   2       6.390  -1.927  21.227  1.00  0.00     0.241 C 
ATOM     11  O   GLN A   2       5.545  -2.640  20.690  1.00  0.00    -0.271 OA
ATOM     12  N   SER A   3       6.528  -0.596  20.912  1.00  0.00    -0.343 N 
ATOM     13  H   SER A   3       7.272  -0.046  21.332  1.00  0.00     0.163 HD
BRANCH  12  14
ATOM     14  CA  SER A   3       5.800   0.024  19.806  1.00  0.00     0.206 C 
BRANCH  14  15
ATOM     15  C   SER A   3       6.552  -0.313  18.511  1.00  0.00     0.165 C 
ATOM     16  O   SER A   3       7.628   0.195  18.210  1.00  0.00    -0.648 OA
BRANCH  15  17
ATOM     17  OXT SER A   3       5.963  -1.262  17.748  1.00  0.00    -0.775 OA
ATOM     18  HO  SER A   3       5.234  -1.725  18.235  1.00  0.00     0.167 HD
ENDBRANCH  15  17
ENDBRANCH  14  15
BRANCH  14  19
ATOM     19  CB  SER A   3       5.660   1.537  19.977  1.00  0.00     0.200 C 
BRANCH  19  20
ATOM     20  OG  SER A   3       4.671   2.032  19.061  1.00  0.00    -0.398 OA
ATOM     21  HG  SER A   3       5.008   1.833  18.164  1.00  0.00     0.209 HD
ENDBRANCH  19  20
ENDBRANCH  14  19
ENDBRANCH  12  14
ENDBRANCH   9  10
BRANCH   9  22
ATOM     22  CB  GLN A   2       6.857  -3.626  23.061  1.00  0.00     0.044 C 
BRANCH  22  23
ATOM     23  CG  GLN A   2       7.389  -4.989  22.620  1.00  0.00     0.105 C 
BRANCH  23  24
ATOM     24  CD  GLN A   2       6.343  -5.791  21.878  1.00  0.00     0.215 C 
ATOM     25  OE1 GLN A   2       6.223  -5.823  20.660  1.00  0.00    -0.274 OA
ATOM     26  NE2 GLN A   2       5.517  -6.512  22.689  1.00  0.00    -0.370 N 
ATOM     27 1HE2 GLN A   2       4.826  -7.104  22.245  1.00  0.00     0.159 HD
ATOM     28 2HE2 GLN A   2       5.672  -6.611  23.683  1.00  0.00     0.159 HD
ENDBRANCH  23  24
ENDBRANCH  22  23
ENDBRANCH   9  22
ENDBRANCH   7   9
ENDBRANCH   4   5
BRANCH   4  29
ATOM     29  CB  LEU A   1      10.514   0.745  24.156  1.00  0.00     0.049 C 
BRANCH  29  30
ATOM     30  CG  LEU A   1      10.348   1.980  23.240  1.00  0.00    -0.020 C 
ATOM     31  CD1 LEU A   1       9.557   3.108  23.903  1.00  0.00     0.009 C 
ATOM     32  CD2 LEU A   1       9.754   1.653  21.871  1.00  0.00     0.009 C 
ENDBRANCH  29  30
ENDBRANCH   4  29
ENDBRANCH   1   4
TORSDOF 14
ENDMDL
MODEL 5
REMARK VINA RESULT:      -6.3      1.647      4.963
REMARK  14 active torsions:
REMARK  status: ('A' for Active; 'I' for Inactive)
REMARK    1  A    between atoms: N_1  and  CA_2 
REMARK    2  A    between atoms: CA_2  and  C_3 
REMARK    3  A    between atoms: CA_2  and  CB_6 
REMARK       I    between atoms: C_3  and  N_11 
REMARK    4  A    between atoms: CB_6  and  CG_7 
REMARK    5  A    between atoms: N_11  and  CA_12 
REMARK    6  A    between atoms: CA_12  and  C_13 
REMARK    7  A    between atoms: CA_12  and  CB_15 
REMARK       I    between atoms: C_13  and  N_23 
REMARK    8  A    between atoms: CB_15  and  CG_16 
REMARK    9  A    between atoms: CG_16  and  CD_17 
REMARK       I    between atoms: CD_17  and  NE2_19 
REMARK   10  A    between atoms: N_23  and  CA_24 
REMARK   11  A    between atoms: CA_24  and  C_25 
REMARK   12  A    between atoms: CA_24  and  CB_27 
REMARK   13  A    between atoms: C_25  and  OXT_31 
REMARK   14  A    between atoms: CB_27  and  OG_28 
ROOT
ATOM      1  N   LEU A   1       9.785   1.781  21.592  1.00  0.00     0.092 N 
ATOM      2  H   LEU A   1       9.871   1.164  20.780  1.00  0.00     0.313 HD
ATOM      3  HN  LEU A   1       8.803   2.042  21.640  1.00  0.00     0.313 HD
ENDROOT
BRANCH   1   4
ATOM      4  CA  LEU A   1      10.154   1.008  22.799  1.00  0.00     0.309 C 
BRANCH   4   5
ATOM      5  C   LEU A   1       9.678  -0.445  22.572  1.00  0.00     0.251 C 
ATOM      6  O   LEU A   1      10.447  -1.401  22.498  1.00  0.00    -0.271 OA
ATOM      7  N   GLN A   2       8.308  -0.585  22.545  1.00  0.00    -0.346 N 
ATOM      8  H   GLN A   2       7.752   0.252  22.411  1.00  0.00     0.163 HD
BRANCH   7   9
ATOM      9  CA  GLN A   2       7.675  -1.858  22.230  1.00  0.00     0.177 C 
BRANCH   9  10
ATOM     10  C   GLN A   2       6.533  -1.581  21.227  1.00  0.00     0.241 C 
ATOM     11  O   GLN A   2       5.751  -2.447  20.839  1.00  0.00    -0.271 OA
ATOM     12  N   SER A   3       6.494  -0.295  20.742  1.00  0.00    -0.343 N 
ATOM     13  H   SER A   3       7.188   0.384  21.041  1.00  0.00     0.163 HD
BRANCH  12  14
ATOM     14  CA  SER A   3       5.641   0.091  19.620  1.00  0.00     0.206 C 
BRANCH  14  15
ATOM     15  C   SER A   3       6.425  -0.179  18.329  1.00  0.00     0.165 C 
ATOM     16  O   SER A   3       6.004  -0.899  17.428  1.00  0.00    -0.648 OA
BRANCH  15  17
ATOM     17  OXT SER A   3       7.599   0.486  18.232  1.00  0.00    -0.775 OA
ATOM     18  HO  SER A   3       8.006   0.644  19.121  1.00  0.00     0.167 HD
ENDBRANCH  15  17
ENDBRANCH  14  15
BRANCH  14  19
ATOM     19  CB  SER A   3       5.205   1.555  19.696  1.00  0.00     0.200 C 
BRANCH  19  20
ATOM     20  OG  SER A   3       4.890   2.030  18.378  1.00  0.00    -0.398 OA
ATOM     21  HG  SER A   3       5.393   2.860  18.262  1.00  0.00     0.209 HD
ENDBRANCH  19  20
ENDBRANCH  14  19
ENDBRANCH  12  14
ENDBRANCH   9  10
BRANCH   9  22
ATOM     22  CB  GLN A   2       7.144  -2.495  23.519  1.00  0.00     0.044 C 
BRANCH  22  23
ATOM     23  CG  GLN A   2       7.764  -3.860  23.820  1.00  0.00     0.105 C 
BRANCH  23  24
ATOM     24  CD  GLN A   2       8.959  -3.747  24.739  1.00  0.00     0.215 C 
ATOM     25  OE1 GLN A   2      10.007  -4.365  24.601  1.00  0.00    -0.274 OA
ATOM     26  NE2 GLN A   2       8.789  -2.867  25.767  1.00  0.00    -0.370 N 
ATOM     27 1HE2 GLN A   2       9.573  -2.715  26.388  1.00  0.00     0.159 HD
ATOM     28 2HE2 GLN A   2       7.993  -2.246  25.832  1.00  0.00     0.159 HD
ENDBRANCH  23  24
ENDBRANCH  22  23
ENDBRANCH   9  22
ENDBRANCH   7   9
ENDBRANCH   4   5
BRANCH   4  29
ATOM     29  CB  LEU A   1       9.521   1.650  24.044  1.00  0.00     0.049 C 
BRANCH  29  30
ATOM     30  CG  LEU A   1       8.544   2.823  23.795  1.00  0.00    -0.020 C 
ATOM     31  CD1 LEU A   1       8.871   4.055  24.640  1.00  0.00     0.009 C 
ATOM     32  CD2 LEU A   1       7.074   2.443  23.961  1.00  0.00     0.009 C 
ENDBRANCH  29  30
ENDBRANCH   4  29
ENDBRANCH   1   4
TORSDOF 14
ENDMDL
MODEL 6
REMARK VINA RESULT:      -6.3      1.769      4.909
REMARK  14 active torsions:
REMARK  status: ('A' for Active; 'I' for Inactive)
REMARK    1  A    between atoms: N_1  and  CA_2 
REMARK    2  A    between atoms: CA_2  and  C_3 
REMARK    3  A    between atoms: CA_2  and  CB_6 
REMARK       I    between atoms: C_3  and  N_11 
REMARK    4  A    between atoms: CB_6  and  CG_7 
REMARK    5  A    between atoms: N_11  and  CA_12 
REMARK    6  A    between atoms: CA_12  and  C_13 
REMARK    7  A    between atoms: CA_12  and  CB_15 
REMARK       I    between atoms: C_13  and  N_23 
REMARK    8  A    between atoms: CB_15  and  CG_16 
REMARK    9  A    between atoms: CG_16  and  CD_17 
REMARK       I    between atoms: CD_17  and  NE2_19 
REMARK   10  A    between atoms: N_23  and  CA_24 
REMARK   11  A    between atoms: CA_24  and  C_25 
REMARK   12  A    between atoms: CA_24  and  CB_27 
REMARK   13  A    between atoms: C_25  and  OXT_31 
REMARK   14  A    between atoms: CB_27  and  OG_28 
ROOT
ATOM      1  N   LEU A   1       8.789   0.090  26.027  1.00  0.00     0.092 N 
ATOM      2  H   LEU A   1       8.130   0.775  26.405  1.00  0.00     0.313 HD
ATOM      3  HN  LEU A   1       8.338  -0.817  26.131  1.00  0.00     0.313 HD
ENDROOT
BRANCH   1   4
ATOM      4  CA  LEU A   1       8.989   0.386  24.591  1.00  0.00     0.309 C 
BRANCH   4   5
ATOM      5  C   LEU A   1       8.865  -0.953  23.829  1.00  0.00     0.251 C 
ATOM      6  O   LEU A   1       9.742  -1.814  23.835  1.00  0.00    -0.271 OA
ATOM      7  N   GLN A   2       7.647  -1.132  23.212  1.00  0.00    -0.346 N 
ATOM      8  H   GLN A   2       7.062  -0.315  23.079  1.00  0.00     0.163 HD
BRANCH   7   9
ATOM      9  CA  GLN A   2       7.385  -2.279  22.354  1.00  0.00     0.177 C 
BRANCH   9  10
ATOM     10  C   GLN A   2       6.375  -1.838  21.271  1.00  0.00     0.241 C 
ATOM     11  O   GLN A   2       5.607  -2.617  20.708  1.00  0.00    -0.271 OA
ATOM     12  N   SER A   3       6.443  -0.508  20.930  1.00  0.00    -0.343 N 
ATOM     13  H   SER A   3       7.127   0.098  21.375  1.00  0.00     0.163 HD
BRANCH  12  14
ATOM     14  CA  SER A   3       5.739   0.039  19.773  1.00  0.00     0.206 C 
BRANCH  14  15
ATOM     15  C   SER A   3       6.543  -0.338  18.521  1.00  0.00     0.165 C 
ATOM     16  O   SER A   3       7.633   0.157  18.252  1.00  0.00    -0.648 OA
BRANCH  15  17
ATOM     17  OXT SER A   3       5.981  -1.306  17.761  1.00  0.00    -0.775 OA
ATOM     18  HO  SER A   3       5.166  -1.678  18.183  1.00  0.00     0.167 HD
ENDBRANCH  15  17
ENDBRANCH  14  15
BRANCH  14  19
ATOM     19  CB  SER A   3       5.553   1.554  19.866  1.00  0.00     0.200 C 
BRANCH  19  20
ATOM     20  OG  SER A   3       4.537   1.970  18.940  1.00  0.00    -0.398 OA
ATOM     21  HG  SER A   3       3.811   2.338  19.483  1.00  0.00     0.209 HD
ENDBRANCH  19  20
ENDBRANCH  14  19
ENDBRANCH  12  14
ENDBRANCH   9  10
BRANCH   9  22
ATOM     22  CB  GLN A   2       6.830  -3.431  23.200  1.00  0.00     0.044 C 
BRANCH  22  23
ATOM     23  CG  GLN A   2       7.702  -4.685  23.163  1.00  0.00     0.105 C 
BRANCH  23  24
ATOM     24  CD  GLN A   2       8.493  -4.861  24.440  1.00  0.00     0.215 C 
ATOM     25  OE1 GLN A   2       9.411  -5.657  24.589  1.00  0.00    -0.274 OA
ATOM     26  NE2 GLN A   2       8.107  -4.031  25.451  1.00  0.00    -0.370 N 
ATOM     27 1HE2 GLN A   2       8.631  -4.072  26.316  1.00  0.00     0.159 HD
ATOM     28 2HE2 GLN A   2       7.447  -3.276  25.321  1.00  0.00     0.159 HD
ENDBRANCH  23  24
ENDBRANCH  22  23
ENDBRANCH   9  22
ENDBRANCH   7   9
ENDBRANCH   4   5
BRANCH   4  29
ATOM     29  CB  LEU A   1      10.354   1.061  24.381  1.00  0.00     0.049 C 
BRANCH  29  30
ATOM     30  CG  LEU A   1      10.396   2.236  23.376  1.00  0.00    -0.020 C 
ATOM     31  CD1 LEU A   1       9.606   3.454  23.855  1.00  0.00     0.009 C 
ATOM     32  CD2 LEU A   1       9.965   1.849  21.963  1.00  0.00     0.009 C 
ENDBRANCH  29  30
ENDBRANCH   4  29
ENDBRANCH   1   4
TORSDOF 14
ENDMDL
MODEL 7
REMARK VINA RESULT:      -6.2      2.535      7.096
REMARK  14 active torsions:
REMARK  status: ('A' for Active; 'I' for Inactive)
REMARK    1  A    between atoms: N_1  and  CA_2 
REMARK    2  A    between atoms: CA_2  and  C_3 
REMARK    3  A    between atoms: CA_2  and  CB_6 
REMARK       I    between atoms: C_3  and  N_11 
REMARK    4  A    between atoms: CB_6  and  CG_7 
REMARK    5  A    between atoms: N_11  and  CA_12 
REMARK    6  A    between atoms: CA_12  and  C_13 
REMARK    7  A    between atoms: CA_12  and  CB_15 
REMARK       I    between atoms: C_13  and  N_23 
REMARK    8  A    between atoms: CB_15  and  CG_16 
REMARK    9  A    between atoms: CG_16  and  CD_17 
REMARK       I    between atoms: CD_17  and  NE2_19 
REMARK   10  A    between atoms: N_23  and  CA_24 
REMARK   11  A    between atoms: CA_24  and  C_25 
REMARK   12  A    between atoms: CA_24  and  CB_27 
REMARK   13  A    between atoms: C_25  and  OXT_31 
REMARK   14  A    between atoms: CB_27  and  OG_28 
ROOT
ATOM      1  N   LEU A   1       9.719  -0.657  21.108  1.00  0.00     0.092 N 
ATOM      2  H   LEU A   1      10.370  -0.564  20.323  1.00  0.00     0.313 HD
ATOM      3  HN  LEU A   1      10.226  -0.337  21.930  1.00  0.00     0.313 HD
ENDROOT
BRANCH   1   4
ATOM      4  CA  LEU A   1       8.564   0.234  20.856  1.00  0.00     0.309 C 
BRANCH   4   5
ATOM      5  C   LEU A   1       7.548  -0.006  21.996  1.00  0.00     0.251 C 
ATOM      6  O   LEU A   1       6.883   0.894  22.505  1.00  0.00    -0.271 OA
ATOM      7  N   GLN A   2       7.391  -1.332  22.332  1.00  0.00    -0.346 N 
ATOM      8  H   GLN A   2       8.103  -1.984  22.022  1.00  0.00     0.163 HD
BRANCH   7   9
ATOM      9  CA  GLN A   2       6.563  -1.743  23.457  1.00  0.00     0.177 C 
BRANCH   9  10
ATOM     10  C   GLN A   2       7.505  -2.163  24.608  1.00  0.00     0.241 C 
ATOM     11  O   GLN A   2       8.444  -1.472  24.996  1.00  0.00    -0.271 OA
ATOM     12  N   SER A   3       7.254  -3.411  25.129  1.00  0.00    -0.343 N 
ATOM     13  H   SER A   3       6.503  -3.981  24.748  1.00  0.00     0.163 HD
BRANCH  12  14
ATOM     14  CA  SER A   3       8.174  -4.071  26.052  1.00  0.00     0.206 C 
BRANCH  14  15
ATOM     15  C   SER A   3       9.057  -5.017  25.227  1.00  0.00     0.165 C 
ATOM     16  O   SER A   3       8.752  -5.410  24.105  1.00  0.00    -0.648 OA
BRANCH  15  17
ATOM     17  OXT SER A   3      10.233  -5.343  25.812  1.00  0.00    -0.775 OA
ATOM     18  HO  SER A   3      10.302  -6.317  25.981  1.00  0.00     0.167 HD
ENDBRANCH  15  17
ENDBRANCH  14  15
BRANCH  14  19
ATOM     19  CB  SER A   3       7.442  -4.834  27.157  1.00  0.00     0.200 C 
BRANCH  19  20
ATOM     20  OG  SER A   3       8.014  -6.144  27.294  1.00  0.00    -0.398 OA
ATOM     21  HG  SER A   3       8.635  -6.092  28.048  1.00  0.00     0.209 HD
ENDBRANCH  19  20
ENDBRANCH  14  19
ENDBRANCH  12  14
ENDBRANCH   9  10
BRANCH   9  22
ATOM     22  CB  GLN A   2       5.657  -2.903  23.026  1.00  0.00     0.044 C 
BRANCH  22  23
ATOM     23  CG  GLN A   2       6.111  -3.576  21.731  1.00  0.00     0.105 C 
BRANCH  23  24
ATOM     24  CD  GLN A   2       5.976  -5.081  21.800  1.00  0.00     0.215 C 
ATOM     25  OE1 GLN A   2       4.933  -5.679  22.030  1.00  0.00    -0.274 OA
ATOM     26  NE2 GLN A   2       7.140  -5.754  21.571  1.00  0.00    -0.370 N 
ATOM     27 1HE2 GLN A   2       7.101  -6.765  21.559  1.00  0.00     0.159 HD
ATOM     28 2HE2 GLN A   2       7.984  -5.299  21.250  1.00  0.00     0.159 HD
ENDBRANCH  23  24
ENDBRANCH  22  23
ENDBRANCH   9  22
ENDBRANCH   7   9
ENDBRANCH   4   5
BRANCH   4  29
ATOM     29  CB  LEU A   1       7.974  -0.055  19.466  1.00  0.00     0.049 C 
BRANCH  29  30
ATOM     30  CG  LEU A   1       6.457   0.197  19.295  1.00  0.00    -0.020 C 
ATOM     31  CD1 LEU A   1       5.653  -1.097  19.166  1.00  0.00     0.009 C 
ATOM     32  CD2 LEU A   1       6.120   1.145  18.146  1.00  0.00     0.009 C 
ENDBRANCH  29  30
ENDBRANCH   4  29
ENDBRANCH   1   4
TORSDOF 14
ENDMDL
MODEL 8
REMARK VINA RESULT:      -6.2      2.823      6.376
REMARK  14 active torsions:
REMARK  status: ('A' for Active; 'I' for Inactive)
REMARK    1  A    between atoms: N_1  and  CA_2 
REMARK    2  A    between atoms: CA_2  and  C_3 
REMARK    3  A    between atoms: CA_2  and  CB_6 
REMARK       I    between atoms: C_3  and  N_11 
REMARK    4  A    between atoms: CB_6  and  CG_7 
REMARK    5  A    between atoms: N_11  and  CA_12 
REMARK    6  A    between atoms: CA_12  and  C_13 
REMARK    7  A    between atoms: CA_12  and  CB_15 
REMARK       I    between atoms: C_13  and  N_23 
REMARK    8  A    between atoms: CB_15  and  CG_16 
REMARK    9  A    between atoms: CG_16  and  CD_17 
REMARK       I    between atoms: CD_17  and  NE2_19 
REMARK   10  A    between atoms: N_23  and  CA_24 
REMARK   11  A    between atoms: CA_24  and  C_25 
REMARK   12  A    between atoms: CA_24  and  CB_27 
REMARK   13  A    between atoms: C_25  and  OXT_31 
REMARK   14  A    between atoms: CB_27  and  OG_28 
ROOT
ATOM      1  N   LEU A   1       6.281  -1.305  21.720  1.00  0.00     0.092 N 
ATOM      2  H   LEU A   1       5.379  -1.125  21.272  1.00  0.00     0.313 HD
ATOM      3  HN  LEU A   1       6.414  -2.313  21.683  1.00  0.00     0.313 HD
ENDROOT
BRANCH   1   4
ATOM      4  CA  LEU A   1       7.333  -0.634  20.924  1.00  0.00     0.309 C 
BRANCH   4   5
ATOM      5  C   LEU A   1       8.596  -0.558  21.811  1.00  0.00     0.251 C 
ATOM      6  O   LEU A   1       9.736  -0.499  21.354  1.00  0.00    -0.271 OA
ATOM      7  N   GLN A   2       8.326  -0.477  23.159  1.00  0.00    -0.346 N 
ATOM      8  H   GLN A   2       7.395  -0.731  23.469  1.00  0.00     0.163 HD
BRANCH   7   9
ATOM      9  CA  GLN A   2       9.388  -0.511  24.155  1.00  0.00     0.177 C 
BRANCH   9  10
ATOM     10  C   GLN A   2       8.962  -1.499  25.265  1.00  0.00     0.241 C 
ATOM     11  O   GLN A   2       8.941  -1.204  26.458  1.00  0.00    -0.271 OA
ATOM     12  N   SER A   3       8.668  -2.767  24.822  1.00  0.00    -0.343 N 
ATOM     13  H   SER A   3       8.749  -2.994  23.835  1.00  0.00     0.163 HD
BRANCH  12  14
ATOM     14  CA  SER A   3       8.477  -3.889  25.739  1.00  0.00     0.206 C 
BRANCH  14  15
ATOM     15  C   SER A   3       9.116  -5.127  25.095  1.00  0.00     0.165 C 
ATOM     16  O   SER A   3       8.838  -5.512  23.963  1.00  0.00    -0.648 OA
BRANCH  15  17
ATOM     17  OXT SER A   3      10.058  -5.734  25.853  1.00  0.00    -0.775 OA
ATOM     18  HO  SER A   3      10.825  -5.134  26.035  1.00  0.00     0.167 HD
ENDBRANCH  15  17
ENDBRANCH  14  15
BRANCH  14  19
ATOM     19  CB  SER A   3       7.001  -4.139  26.054  1.00  0.00     0.200 C 
BRANCH  19  20
ATOM     20  OG  SER A   3       6.768  -5.551  26.163  1.00  0.00    -0.398 OA
ATOM     21  HG  SER A   3       7.083  -5.944  25.325  1.00  0.00     0.209 HD
ENDBRANCH  19  20
ENDBRANCH  14  19
ENDBRANCH  12  14
ENDBRANCH   9  10
BRANCH   9  22
ATOM     22  CB  GLN A   2       9.606   0.899  24.716  1.00  0.00     0.044 C 
BRANCH  22  23
ATOM     23  CG  GLN A   2      10.792   1.626  24.083  1.00  0.00     0.105 C 
BRANCH  23  24
ATOM     24  CD  GLN A   2      10.347   2.766  23.195  1.00  0.00     0.215 C 
ATOM     25  OE1 GLN A   2      10.089   3.897  23.587  1.00  0.00    -0.274 OA
ATOM     26  NE2 GLN A   2      10.258   2.439  21.874  1.00  0.00    -0.370 N 
ATOM     27 1HE2 GLN A   2      10.009   3.175  21.225  1.00  0.00     0.159 HD
ATOM     28 2HE2 GLN A   2      10.589   1.559  21.502  1.00  0.00     0.159 HD
ENDBRANCH  23  24
ENDBRANCH  22  23
ENDBRANCH   9  22
ENDBRANCH   7   9
ENDBRANCH   4   5
BRANCH   4  29
ATOM     29  CB  LEU A   1       6.843   0.752  20.473  1.00  0.00     0.049 C 
BRANCH  29  30
ATOM     30  CG  LEU A   1       6.167   0.826  19.083  1.00  0.00    -0.020 C 
ATOM     31  CD1 LEU A   1       4.773   1.452  19.136  1.00  0.00     0.009 C 
ATOM     32  CD2 LEU A   1       6.117  -0.515  18.353  1.00  0.00     0.009 C 
ENDBRANCH  29  30
ENDBRANCH   4  29
ENDBRANCH   1   4
TORSDOF 14
ENDMDL
MODEL 9
REMARK VINA RESULT:      -6.2      2.283      4.590
REMARK  14 active torsions:
REMARK  status: ('A' for Active; 'I' for Inactive)
REMARK    1  A    between atoms: N_1  and  CA_2 
REMARK    2  A    between atoms: CA_2  and  C_3 
REMARK    3  A    between atoms: CA_2  and  CB_6 
REMARK       I    between atoms: C_3  and  N_11 
REMARK    4  A    between atoms: CB_6  and  CG_7 
REMARK    5  A    between atoms: N_11  and  CA_12 
REMARK    6  A    between atoms: CA_12  and  C_13 
REMARK    7  A    between atoms: CA_12  and  CB_15 
REMARK       I    between atoms: C_13  and  N_23 
REMARK    8  A    between atoms: CB_15  and  CG_16 
REMARK    9  A    between atoms: CG_16  and  CD_17 
REMARK       I    between atoms: CD_17  and  NE2_19 
REMARK   10  A    between atoms: N_23  and  CA_24 
REMARK   11  A    between atoms: CA_24  and  C_25 
REMARK   12  A    between atoms: CA_24  and  CB_27 
REMARK   13  A    between atoms: C_25  and  OXT_31 
REMARK   14  A    between atoms: CB_27  and  OG_28 
ROOT
ATOM      1  N   LEU A   1      10.031  -5.527  25.720  1.00  0.00     0.092 N 
ATOM      2  H   LEU A   1      10.415  -4.787  26.313  1.00  0.00     0.313 HD
ATOM      3  HN  LEU A   1      10.178  -6.396  26.229  1.00  0.00     0.313 HD
ENDROOT
BRANCH   1   4
ATOM      4  CA  LEU A   1       8.580  -5.283  25.560  1.00  0.00     0.309 C 
BRANCH   4   5
ATOM      5  C   LEU A   1       8.365  -4.745  24.127  1.00  0.00     0.251 C 
ATOM      6  O   LEU A   1       8.158  -5.474  23.159  1.00  0.00    -0.271 OA
ATOM      7  N   GLN A   2       8.340  -3.370  24.046  1.00  0.00    -0.346 N 
ATOM      8  H   GLN A   2       8.712  -2.846  24.829  1.00  0.00     0.163 HD
BRANCH   7   9
ATOM      9  CA  GLN A   2       8.261  -2.681  22.766  1.00  0.00     0.177 C 
BRANCH   9  10
ATOM     10  C   GLN A   2       9.443  -1.689  22.690  1.00  0.00     0.241 C 
ATOM     11  O   GLN A   2      10.612  -2.043  22.551  1.00  0.00    -0.271 OA
ATOM     12  N   SER A   3       9.097  -0.369  22.859  1.00  0.00    -0.343 N 
ATOM     13  H   SER A   3       8.127  -0.113  23.028  1.00  0.00     0.163 HD
BRANCH  12  14
ATOM     14  CA  SER A   3      10.094   0.682  23.052  1.00  0.00     0.206 C 
BRANCH  14  15
ATOM     15  C   SER A   3      10.424   0.737  24.550  1.00  0.00     0.165 C 
ATOM     16  O   SER A   3      11.563   0.613  24.990  1.00  0.00    -0.648 OA
BRANCH  15  17
ATOM     17  OXT SER A   3       9.364   0.993  25.351  1.00  0.00    -0.775 OA
ATOM     18  HO  SER A   3       9.644   1.381  26.219  1.00  0.00     0.167 HD
ENDBRANCH  15  17
ENDBRANCH  14  15
BRANCH  14  19
ATOM     19  CB  SER A   3       9.611   2.043  22.550  1.00  0.00     0.200 C 
BRANCH  19  20
ATOM     20  OG  SER A   3       9.174   1.923  21.187  1.00  0.00    -0.398 OA
ATOM     21  HG  SER A   3       9.683   2.587  20.680  1.00  0.00     0.209 HD
ENDBRANCH  19  20
ENDBRANCH  14  19
ENDBRANCH  12  14
ENDBRANCH   9  10
BRANCH   9  22
ATOM     22  CB  GLN A   2       6.914  -1.954  22.662  1.00  0.00     0.044 C 
BRANCH  22  23
ATOM     23  CG  GLN A   2       6.209  -2.175  21.324  1.00  0.00     0.105 C 
BRANCH  23  24
ATOM     24  CD  GLN A   2       6.350  -0.980  20.407  1.00  0.00     0.215 C 
ATOM     25  OE1 GLN A   2       7.152  -0.069  20.566  1.00  0.00    -0.274 OA
ATOM     26  NE2 GLN A   2       5.496  -0.992  19.344  1.00  0.00    -0.370 N 
ATOM     27 1HE2 GLN A   2       5.576  -0.241  18.671  1.00  0.00     0.159 HD
ATOM     28 2HE2 GLN A   2       4.918  -1.789  19.113  1.00  0.00     0.159 HD
ENDBRANCH  23  24
ENDBRANCH  22  23
ENDBRANCH   9  22
ENDBRANCH   7   9
ENDBRANCH   4   5
BRANCH   4  29
ATOM     29  CB  LEU A   1       8.093  -4.303  26.639  1.00  0.00     0.049 C 
BRANCH  29  30
ATOM     30  CG  LEU A   1       6.721  -4.611  27.283  1.00  0.00    -0.020 C 
ATOM     31  CD1 LEU A   1       6.053  -5.852  26.689  1.00  0.00     0.009 C 
ATOM     32  CD2 LEU A   1       5.753  -3.429  27.259  1.00  0.00     0.009 C 
ENDBRANCH  29  30
ENDBRANCH   4  29
ENDBRANCH   1   4
TORSDOF 14
ENDMDL
