REMARK  Name = 
REMARK  5 active torsions:
REMARK  status: ('A' for Active; 'I' for Inactive)
REMARK    1  A    between atoms: N_2  and  S_4
REMARK    2  A    between atoms: S_4  and  C_7
REMARK    3  A    between atoms: C_7  and  C_8
REMARK    4  A    between atoms: C_11  and  O_14
REMARK    5  A    between atoms: O_14  and  C_15
REMARK                            x       y       z     vdW  Elec       q    Type
REMARK                         _______ _______ _______ _____ _____    ______ ____
ROOT
ATOM      1  C   UNL     1       5.875   8.253   8.207  0.00  0.00    +0.000 C 
ATOM      2  C   UNL     1       5.233   8.499   6.831  0.00  0.00    +0.000 C 
ATOM      3  C   UNL     1       5.635   9.923   6.384  0.00  0.00    +0.000 C 
ATOM      4  C   UNL     1       6.290  10.637   7.460  0.00  0.00    +0.000 C 
ATOM      5  C   UNL     1       5.650  10.661   8.782  0.00  0.00    +0.000 C 
ATOM      6  C   UNL     1       5.272   9.234   9.209  0.00  0.00    +0.000 C 
ENDROOT
BRANCH   1   7
ATOM      7  C   UNL     1       7.366   8.473   8.095  0.00  0.00    +0.000 C 
BRANCH   7   8
ATOM      8  S   UNL     1       8.265   7.742   9.422  0.00  0.00    +0.000 S 
ATOM      9  O   UNL     1       8.514   8.780  10.406  0.00  0.00    +0.000 OA
ATOM     10  O   UNL     1       9.485   7.183   8.852  0.00  0.00    +0.000 OA
BRANCH   8  12
ATOM     11  C   UNL     1       7.030   6.906  11.455  0.00  0.00    +0.000 C 
ATOM     12  N   UNL     1       7.444   6.535  10.137  0.00  0.00    +0.000 NA
ATOM     13  C   UNL     1       6.329   6.105   9.380  0.00  0.00    +0.000 C 
ENDBRANCH   8  12
ENDBRANCH   7   8
ENDBRANCH   1   7
BRANCH   4  14
ATOM     14  O   UNL     1       7.104  11.674   7.168  0.00  0.00    +0.000 OA
BRANCH  14  15
ATOM     15  C   UNL     1       8.450  11.495   7.730  0.00  0.00    +0.000 A 
ATOM     16  C   UNL     1       9.468  10.879   7.073  0.00  0.00    +0.000 A 
ATOM     17  C   UNL     1      10.034   9.538   7.455  0.00  0.00    +0.000 A 
ATOM     18  C   UNL     1      11.440   9.510   7.016  0.00  0.00    +0.000 A 
ATOM     19  N   UNL     1      11.774  10.775   6.467  0.00  0.00    +0.000 NA
ATOM     20  C   UNL     1      10.703  11.612   6.343  0.00  0.00    +0.000 A 
ATOM     21  C   UNL     1      10.778  12.811   7.299  0.00  0.00    +0.000 A 
ATOM     22  C   UNL     1       9.760  13.418   8.003  0.00  0.00    +0.000 A 
ATOM     23  C   UNL     1       8.609  12.755   8.688  0.00  0.00    +0.000 A 
ENDBRANCH  14  15
ENDBRANCH   4  14
TORSDOF 5
