MODEL 1
REMARK VINA RESULT:      -6.6      0.000      0.000
REMARK  Name = 
REMARK  5 active torsions:
REMARK  status: ('A' for Active; 'I' for Inactive)
REMARK    1  A    between atoms: N_2  and  S_4
REMARK    2  A    between atoms: S_4  and  C_7
REMARK    3  A    between atoms: C_7  and  C_8
REMARK    4  A    between atoms: C_11  and  O_14
REMARK    5  A    between atoms: O_14  and  C_15
REMARK                            x       y       z     vdW  Elec       q    Type
REMARK                         _______ _______ _______ _____ _____    ______ ____
ROOT
ATOM      1  C   UNL     1       5.839  -5.583  23.888  0.00  0.00    +0.000 C 
ATOM      2  C   UNL     1       6.523  -5.795  22.526  0.00  0.00    +0.000 C 
ATOM      3  C   UNL     1       7.126  -4.437  22.099  0.00  0.00    +0.000 C 
ATOM      4  C   UNL     1       6.687  -3.376  22.981  0.00  0.00    +0.000 C 
ATOM      5  C   UNL     1       5.253  -3.247  23.270  0.00  0.00    +0.000 C 
ATOM      6  C   UNL     1       4.681  -4.606  23.705  0.00  0.00    +0.000 C 
ENDROOT
BRANCH   1   7
ATOM      7  C   UNL     1       6.850  -5.017  24.858  0.00  0.00    +0.000 C 
BRANCH   7   8
ATOM      8  S   UNL     1       6.523  -5.473  26.528  0.00  0.00    +0.000 S 
ATOM      9  O   UNL     1       7.796  -5.769  27.159  0.00  0.00    +0.000 OA
ATOM     10  O   UNL     1       5.619  -6.617  26.487  0.00  0.00    +0.000 OA
BRANCH   8  12
ATOM     11  C   UNL     1       6.143  -3.000  26.840  0.00  0.00    +0.000 C 
ATOM     12  N   UNL     1       5.793  -4.284  27.363  0.00  0.00    +0.000 NA
ATOM     13  C   UNL     1       4.386  -4.426  27.405  0.00  0.00    +0.000 C 
ENDBRANCH   8  12
ENDBRANCH   7   8
ENDBRANCH   1   7
BRANCH   4  14
ATOM     14  O   UNL     1       7.423  -2.247  23.076  0.00  0.00    +0.000 OA
BRANCH  14  15
ATOM     15  C   UNL     1       7.690  -1.649  21.761  0.00  0.00    +0.000 A 
ATOM     16  C   UNL     1       6.816  -0.838  21.108  0.00  0.00    +0.000 A 
ATOM     17  C   UNL     1       6.074  -1.224  19.857  0.00  0.00    +0.000 A 
ATOM     18  C   UNL     1       5.795   0.014  19.108  0.00  0.00    +0.000 A 
ATOM     19  N   UNL     1       6.390   1.106  19.790  0.00  0.00    +0.000 NA
ATOM     20  C   UNL     1       6.913   0.767  21.005  0.00  0.00    +0.000 A 
ATOM     21  C   UNL     1       8.446   0.847  21.030  0.00  0.00    +0.000 A 
ATOM     22  C   UNL     1       9.343   0.007  21.654  0.00  0.00    +0.000 A 
ATOM     23  C   UNL     1       9.272  -1.482  21.757  0.00  0.00    +0.000 A 
ENDBRANCH  14  15
ENDBRANCH   4  14
TORSDOF 5
ENDMDL
MODEL 2
REMARK VINA RESULT:      -6.5      3.040      6.695
REMARK  Name = 
REMARK  5 active torsions:
REMARK  status: ('A' for Active; 'I' for Inactive)
REMARK    1  A    between atoms: N_2  and  S_4
REMARK    2  A    between atoms: S_4  and  C_7
REMARK    3  A    between atoms: C_7  and  C_8
REMARK    4  A    between atoms: C_11  and  O_14
REMARK    5  A    between atoms: O_14  and  C_15
REMARK                            x       y       z     vdW  Elec       q    Type
REMARK                         _______ _______ _______ _____ _____    ______ ____
ROOT
ATOM      1  C   UNL     1       8.856   0.497  21.398  0.00  0.00    +0.000 C 
ATOM      2  C   UNL     1       7.846   0.239  20.267  0.00  0.00    +0.000 C 
ATOM      3  C   UNL     1       6.898  -0.885  20.745  0.00  0.00    +0.000 C 
ATOM      4  C   UNL     1       7.374  -1.472  21.980  0.00  0.00    +0.000 C 
ATOM      5  C   UNL     1       8.778  -1.897  22.064  0.00  0.00    +0.000 C 
ATOM      6  C   UNL     1       9.699  -0.759  21.596  0.00  0.00    +0.000 C 
ENDROOT
BRANCH   1   7
ATOM      7  C   UNL     1       8.096   0.820  22.665  0.00  0.00    +0.000 C 
BRANCH   7   8
ATOM      8  S   UNL     1       9.002   1.864  23.757  0.00  0.00    +0.000 S 
ATOM      9  O   UNL     1       8.061   2.791  24.357  0.00  0.00    +0.000 OA
ATOM     10  O   UNL     1      10.031   2.521  22.960  0.00  0.00    +0.000 OA
BRANCH   8  12
ATOM     11  C   UNL     1       8.998  -0.145  25.281  0.00  0.00    +0.000 C 
ATOM     12  N   UNL     1       9.739   1.031  24.942  0.00  0.00    +0.000 NA
ATOM     13  C   UNL     1      11.075   0.690  24.626  0.00  0.00    +0.000 C 
ENDBRANCH   8  12
ENDBRANCH   7   8
ENDBRANCH   1   7
BRANCH   4  14
ATOM     14  O   UNL     1       6.503  -2.116  22.786  0.00  0.00    +0.000 OA
BRANCH  14  15
ATOM     15  C   UNL     1       6.941  -3.485  23.092  0.00  0.00    +0.000 A 
ATOM     16  C   UNL     1       7.196  -3.934  24.349  0.00  0.00    +0.000 A 
ATOM     17  C   UNL     1       8.568  -4.267  24.868  0.00  0.00    +0.000 A 
ATOM     18  C   UNL     1       8.409  -5.290  25.917  0.00  0.00    +0.000 A 
ATOM     19  N   UNL     1       7.039  -5.647  26.004  0.00  0.00    +0.000 NA
ATOM     20  C   UNL     1       6.225  -4.866  25.235  0.00  0.00    +0.000 A 
ATOM     21  C   UNL     1       5.609  -5.636  24.058  0.00  0.00    +0.000 A 
ATOM     22  C   UNL     1       5.385  -5.205  22.768  0.00  0.00    +0.000 A 
ATOM     23  C   UNL     1       6.274  -4.344  21.931  0.00  0.00    +0.000 A 
ENDBRANCH  14  15
ENDBRANCH   4  14
TORSDOF 5
ENDMDL
MODEL 3
REMARK VINA RESULT:      -6.3      1.515      2.109
REMARK  Name = 
REMARK  5 active torsions:
REMARK  status: ('A' for Active; 'I' for Inactive)
REMARK    1  A    between atoms: N_2  and  S_4
REMARK    2  A    between atoms: S_4  and  C_7
REMARK    3  A    between atoms: C_7  and  C_8
REMARK    4  A    between atoms: C_11  and  O_14
REMARK    5  A    between atoms: O_14  and  C_15
REMARK                            x       y       z     vdW  Elec       q    Type
REMARK                         _______ _______ _______ _____ _____    ______ ____
ROOT
ATOM      1  C   UNL     1       7.651  -5.279  24.720  0.00  0.00    +0.000 C 
ATOM      2  C   UNL     1       9.111  -4.883  24.996  0.00  0.00    +0.000 C 
ATOM      3  C   UNL     1       9.312  -3.453  24.445  0.00  0.00    +0.000 C 
ATOM      4  C   UNL     1       8.161  -3.030  23.674  0.00  0.00    +0.000 C 
ATOM      5  C   UNL     1       7.641  -3.928  22.634  0.00  0.00    +0.000 C 
ATOM      6  C   UNL     1       7.439  -5.338  23.210  0.00  0.00    +0.000 C 
ENDROOT
BRANCH   1   7
ATOM      7  C   UNL     1       6.740  -4.242  25.335  0.00  0.00    +0.000 C 
BRANCH   7   8
ATOM      8  S   UNL     1       5.867  -4.847  26.740  0.00  0.00    +0.000 S 
ATOM      9  O   UNL     1       4.607  -4.130  26.814  0.00  0.00    +0.000 OA
ATOM     10  O   UNL     1       6.724  -4.628  27.900  0.00  0.00    +0.000 OA
BRANCH   8  12
ATOM     11  C   UNL     1       5.182  -6.971  27.913  0.00  0.00    +0.000 C 
ATOM     12  N   UNL     1       5.554  -6.438  26.638  0.00  0.00    +0.000 NA
ATOM     13  C   UNL     1       4.563  -6.743  25.676  0.00  0.00    +0.000 C 
ENDBRANCH   8  12
ENDBRANCH   7   8
ENDBRANCH   1   7
BRANCH   4  14
ATOM     14  O   UNL     1       7.928  -1.712  23.501  0.00  0.00    +0.000 OA
BRANCH  14  15
ATOM     15  C   UNL     1       8.046  -1.310  22.092  0.00  0.00    +0.000 A 
ATOM     16  C   UNL     1       7.054  -0.696  21.395  0.00  0.00    +0.000 A 
ATOM     17  C   UNL     1       6.275  -1.342  20.282  0.00  0.00    +0.000 A 
ATOM     18  C   UNL     1       5.823  -0.271  19.378  0.00  0.00    +0.000 A 
ATOM     19  N   UNL     1       6.347   0.966  19.835  0.00  0.00    +0.000 NA
ATOM     20  C   UNL     1       6.980   0.874  21.041  0.00  0.00    +0.000 A 
ATOM     21  C   UNL     1       8.495   1.095  20.930  0.00  0.00    +0.000 A 
ATOM     22  C   UNL     1       9.512   0.450  21.601  0.00  0.00    +0.000 A 
ATOM     23  C   UNL     1       9.599  -1.004  21.936  0.00  0.00    +0.000 A 
ENDBRANCH  14  15
ENDBRANCH   4  14
TORSDOF 5
ENDMDL
MODEL 4
REMARK VINA RESULT:      -6.3      2.762      4.021
REMARK  Name = 
REMARK  5 active torsions:
REMARK  status: ('A' for Active; 'I' for Inactive)
REMARK    1  A    between atoms: N_2  and  S_4
REMARK    2  A    between atoms: S_4  and  C_7
REMARK    3  A    between atoms: C_7  and  C_8
REMARK    4  A    between atoms: C_11  and  O_14
REMARK    5  A    between atoms: O_14  and  C_15
REMARK                            x       y       z     vdW  Elec       q    Type
REMARK                         _______ _______ _______ _____ _____    ______ ____
ROOT
ATOM      1  C   UNL     1       7.254  -4.753  25.234  0.00  0.00    +0.000 C 
ATOM      2  C   UNL     1       7.148  -3.507  26.131  0.00  0.00    +0.000 C 
ATOM      3  C   UNL     1       8.233  -2.511  25.664  0.00  0.00    +0.000 C 
ATOM      4  C   UNL     1       9.121  -3.127  24.701  0.00  0.00    +0.000 C 
ATOM      5  C   UNL     1       9.710  -4.434  25.022  0.00  0.00    +0.000 C 
ATOM      6  C   UNL     1       8.611  -5.410  25.471  0.00  0.00    +0.000 C 
ENDROOT
BRANCH   1   7
ATOM      7  C   UNL     1       7.126  -4.325  23.790  0.00  0.00    +0.000 C 
BRANCH   7   8
ATOM      8  S   UNL     1       5.780  -5.106  22.964  0.00  0.00    +0.000 S 
ATOM      9  O   UNL     1       6.283  -6.331  22.370  0.00  0.00    +0.000 OA
ATOM     10  O   UNL     1       5.275  -4.154  21.982  0.00  0.00    +0.000 OA
BRANCH   8  12
ATOM     11  C   UNL     1       3.315  -4.993  23.478  0.00  0.00    +0.000 C 
ATOM     12  N   UNL     1       4.564  -5.480  23.975  0.00  0.00    +0.000 NA
ATOM     13  C   UNL     1       4.475  -6.867  24.239  0.00  0.00    +0.000 C 
ENDBRANCH   8  12
ENDBRANCH   7   8
ENDBRANCH   1   7
BRANCH   4  14
ATOM     14  O   UNL     1       9.820  -2.347  23.849  0.00  0.00    +0.000 OA
BRANCH  14  15
ATOM     15  C   UNL     1       9.103  -1.106  23.523  0.00  0.00    +0.000 A 
ATOM     16  C   UNL     1       9.522   0.131  23.900  0.00  0.00    +0.000 A 
ATOM     17  C   UNL     1       8.829   0.982  24.929  0.00  0.00    +0.000 A 
ATOM     18  C   UNL     1       9.112   2.390  24.602  0.00  0.00    +0.000 A 
ATOM     19  N   UNL     1       9.864   2.439  23.400  0.00  0.00    +0.000 NA
ATOM     20  C   UNL     1      10.256   1.210  22.955  0.00  0.00    +0.000 A 
ATOM     21  C   UNL     1       9.553   0.802  21.653  0.00  0.00    +0.000 A 
ATOM     22  C   UNL     1       9.087  -0.440  21.277  0.00  0.00    +0.000 A 
ATOM     23  C   UNL     1       8.402  -1.452  22.137  0.00  0.00    +0.000 A 
ENDBRANCH  14  15
ENDBRANCH   4  14
TORSDOF 5
ENDMDL
MODEL 5
REMARK VINA RESULT:      -6.3      2.003      2.803
REMARK  Name = 
REMARK  5 active torsions:
REMARK  status: ('A' for Active; 'I' for Inactive)
REMARK    1  A    between atoms: N_2  and  S_4
REMARK    2  A    between atoms: S_4  and  C_7
REMARK    3  A    between atoms: C_7  and  C_8
REMARK    4  A    between atoms: C_11  and  O_14
REMARK    5  A    between atoms: O_14  and  C_15
REMARK                            x       y       z     vdW  Elec       q    Type
REMARK                         _______ _______ _______ _____ _____    ______ ____
ROOT
ATOM      1  C   UNL     1       5.451  -5.017  23.885  0.00  0.00    +0.000 C 
ATOM      2  C   UNL     1       5.890  -5.962  22.754  0.00  0.00    +0.000 C 
ATOM      3  C   UNL     1       6.960  -5.219  21.922  0.00  0.00    +0.000 C 
ATOM      4  C   UNL     1       7.056  -3.832  22.325  0.00  0.00    +0.000 C 
ATOM      5  C   UNL     1       5.823  -3.040  22.424  0.00  0.00    +0.000 C 
ATOM      6  C   UNL     1       4.780  -3.794  23.265  0.00  0.00    +0.000 C 
ENDROOT
BRANCH   1   7
ATOM      7  C   UNL     1       6.672  -4.599  24.672  0.00  0.00    +0.000 C 
BRANCH   7   8
ATOM      8  S   UNL     1       6.761  -5.371  26.253  0.00  0.00    +0.000 S 
ATOM      9  O   UNL     1       8.123  -5.839  26.435  0.00  0.00    +0.000 OA
ATOM     10  O   UNL     1       5.777  -6.447  26.257  0.00  0.00    +0.000 OA
BRANCH   8  12
ATOM     11  C   UNL     1       5.694  -3.204  26.975  0.00  0.00    +0.000 C 
ATOM     12  N   UNL     1       6.397  -4.350  27.464  0.00  0.00    +0.000 NA
ATOM     13  C   UNL     1       5.659  -4.968  28.500  0.00  0.00    +0.000 C 
ENDBRANCH   8  12
ENDBRANCH   7   8
ENDBRANCH   1   7
BRANCH   4  14
ATOM     14  O   UNL     1       8.191  -3.146  22.073  0.00  0.00    +0.000 OA
BRANCH  14  15
ATOM     15  C   UNL     1       8.152  -1.788  22.634  0.00  0.00    +0.000 A 
ATOM     16  C   UNL     1       8.690  -1.450  23.836  0.00  0.00    +0.000 A 
ATOM     17  C   UNL     1       7.884  -1.079  25.051  0.00  0.00    +0.000 A 
ATOM     18  C   UNL     1       8.711  -0.179  25.873  0.00  0.00    +0.000 A 
ATOM     19  N   UNL     1       9.929   0.075  25.191  0.00  0.00    +0.000 NA
ATOM     20  C   UNL     1      10.086  -0.678  24.063  0.00  0.00    +0.000 A 
ATOM     21  C   UNL     1      10.027   0.162  22.780  0.00  0.00    +0.000 A 
ATOM     22  C   UNL     1       9.448  -0.152  21.569  0.00  0.00    +0.000 A 
ATOM     23  C   UNL     1       8.154  -0.865  21.338  0.00  0.00    +0.000 A 
ENDBRANCH  14  15
ENDBRANCH   4  14
TORSDOF 5
ENDMDL
MODEL 6
REMARK VINA RESULT:      -6.1      3.433      6.090
REMARK  Name = 
REMARK  5 active torsions:
REMARK  status: ('A' for Active; 'I' for Inactive)
REMARK    1  A    between atoms: N_2  and  S_4
REMARK    2  A    between atoms: S_4  and  C_7
REMARK    3  A    between atoms: C_7  and  C_8
REMARK    4  A    between atoms: C_11  and  O_14
REMARK    5  A    between atoms: O_14  and  C_15
REMARK                            x       y       z     vdW  Elec       q    Type
REMARK                         _______ _______ _______ _____ _____    ______ ____
ROOT
ATOM      1  C   UNL     1       7.827   1.616  21.840  0.00  0.00    +0.000 C 
ATOM      2  C   UNL     1       7.528   1.038  20.447  0.00  0.00    +0.000 C 
ATOM      3  C   UNL     1       8.186  -0.360  20.379  0.00  0.00    +0.000 C 
ATOM      4  C   UNL     1       9.032  -0.590  21.531  0.00  0.00    +0.000 C 
ATOM      5  C   UNL     1      10.015   0.437  21.900  0.00  0.00    +0.000 C 
ATOM      6  C   UNL     1       9.335   1.813  21.974  0.00  0.00    +0.000 C 
ENDROOT
BRANCH   1   7
ATOM      7  C   UNL     1       7.334   0.644  22.887  0.00  0.00    +0.000 C 
BRANCH   7   8
ATOM      8  S   UNL     1       7.202   1.372  24.486  0.00  0.00    +0.000 S 
ATOM      9  O   UNL     1       8.385   0.995  25.238  0.00  0.00    +0.000 OA
ATOM     10  O   UNL     1       5.962   0.881  25.076  0.00  0.00    +0.000 OA
BRANCH   8  12
ATOM     11  C   UNL     1       5.784   3.451  24.644  0.00  0.00    +0.000 C 
ATOM     12  N   UNL     1       7.122   2.995  24.424  0.00  0.00    +0.000 NA
ATOM     13  C   UNL     1       8.005   3.623  25.333  0.00  0.00    +0.000 C 
ENDBRANCH   8  12
ENDBRANCH   7   8
ENDBRANCH   1   7
BRANCH   4  14
ATOM     14  O   UNL     1       9.320  -1.857  21.899  0.00  0.00    +0.000 OA
BRANCH  14  15
ATOM     15  C   UNL     1       8.357  -2.380  22.878  0.00  0.00    +0.000 A 
ATOM     16  C   UNL     1       7.344  -3.230  22.563  0.00  0.00    +0.000 A 
ATOM     17  C   UNL     1       5.887  -2.853  22.575  0.00  0.00    +0.000 A 
ATOM     18  C   UNL     1       5.115  -4.078  22.847  0.00  0.00    +0.000 A 
ATOM     19  N   UNL     1       6.019  -5.147  23.076  0.00  0.00    +0.000 NA
ATOM     20  C   UNL     1       7.322  -4.817  22.837  0.00  0.00    +0.000 A 
ATOM     21  C   UNL     1       8.165  -4.780  24.119  0.00  0.00    +0.000 A 
ATOM     22  C   UNL     1       9.166  -3.899  24.468  0.00  0.00    +0.000 A 
ATOM     23  C   UNL     1       9.203  -2.424  24.225  0.00  0.00    +0.000 A 
ENDBRANCH  14  15
ENDBRANCH   4  14
TORSDOF 5
ENDMDL
MODEL 7
REMARK VINA RESULT:      -6.1      2.567      3.741
REMARK  Name = 
REMARK  5 active torsions:
REMARK  status: ('A' for Active; 'I' for Inactive)
REMARK    1  A    between atoms: N_2  and  S_4
REMARK    2  A    between atoms: S_4  and  C_7
REMARK    3  A    between atoms: C_7  and  C_8
REMARK    4  A    between atoms: C_11  and  O_14
REMARK    5  A    between atoms: O_14  and  C_15
REMARK                            x       y       z     vdW  Elec       q    Type
REMARK                         _______ _______ _______ _____ _____    ______ ____
ROOT
ATOM      1  C   UNL     1       7.513  -4.964  24.979  0.00  0.00    +0.000 C 
ATOM      2  C   UNL     1       7.661  -4.737  26.493  0.00  0.00    +0.000 C 
ATOM      3  C   UNL     1       8.048  -3.255  26.701  0.00  0.00    +0.000 C 
ATOM      4  C   UNL     1       8.351  -2.618  25.437  0.00  0.00    +0.000 C 
ATOM      5  C   UNL     1       9.286  -3.283  24.519  0.00  0.00    +0.000 C 
ATOM      6  C   UNL     1       8.873  -4.749  24.319  0.00  0.00    +0.000 C 
ENDROOT
BRANCH   1   7
ATOM      7  C   UNL     1       6.508  -3.975  24.434  0.00  0.00    +0.000 C 
BRANCH   7   8
ATOM      8  S   UNL     1       5.217  -4.749  23.519  0.00  0.00    +0.000 S 
ATOM      9  O   UNL     1       3.967  -4.125  23.912  0.00  0.00    +0.000 OA
ATOM     10  O   UNL     1       5.273  -6.174  23.826  0.00  0.00    +0.000 OA
BRANCH   8  12
ATOM     11  C   UNL     1       5.860  -3.256  21.591  0.00  0.00    +0.000 C 
ATOM     12  N   UNL     1       5.403  -4.573  21.914  0.00  0.00    +0.000 NA
ATOM     13  C   UNL     1       6.269  -5.540  21.351  0.00  0.00    +0.000 C 
ENDBRANCH   8  12
ENDBRANCH   7   8
ENDBRANCH   1   7
BRANCH   4  14
ATOM     14  O   UNL     1       8.261  -1.275  25.333  0.00  0.00    +0.000 OA
BRANCH  14  15
ATOM     15  C   UNL     1       9.055  -0.753  24.212  0.00  0.00    +0.000 A 
ATOM     16  C   UNL     1       8.523  -0.382  23.017  0.00  0.00    +0.000 A 
ATOM     17  C   UNL     1       8.729  -1.132  21.729  0.00  0.00    +0.000 A 
ATOM     18  C   UNL     1       8.614  -0.160  20.628  0.00  0.00    +0.000 A 
ATOM     19  N   UNL     1       8.430   1.135  21.177  0.00  0.00    +0.000 NA
ATOM     20  C   UNL     1       8.253   1.130  22.531  0.00  0.00    +0.000 A 
ATOM     21  C   UNL     1       9.432   1.763  23.282  0.00  0.00    +0.000 A 
ATOM     22  C   UNL     1      10.007   1.372  24.473  0.00  0.00    +0.000 A 
ATOM     23  C   UNL     1      10.267  -0.024  24.939  0.00  0.00    +0.000 A 
ENDBRANCH  14  15
ENDBRANCH   4  14
TORSDOF 5
ENDMDL
MODEL 8
REMARK VINA RESULT:      -6.0      2.241      3.790
REMARK  Name = 
REMARK  5 active torsions:
REMARK  status: ('A' for Active; 'I' for Inactive)
REMARK    1  A    between atoms: N_2  and  S_4
REMARK    2  A    between atoms: S_4  and  C_7
REMARK    3  A    between atoms: C_7  and  C_8
REMARK    4  A    between atoms: C_11  and  O_14
REMARK    5  A    between atoms: O_14  and  C_15
REMARK                            x       y       z     vdW  Elec       q    Type
REMARK                         _______ _______ _______ _____ _____    ______ ____
ROOT
ATOM      1  C   UNL     1       7.957  -4.801  26.087  0.00  0.00    +0.000 C 
ATOM      2  C   UNL     1       7.666  -3.389  26.622  0.00  0.00    +0.000 C 
ATOM      3  C   UNL     1       7.933  -2.396  25.468  0.00  0.00    +0.000 C 
ATOM      4  C   UNL     1       8.560  -3.064  24.346  0.00  0.00    +0.000 C 
ATOM      5  C   UNL     1       9.735  -3.909  24.596  0.00  0.00    +0.000 C 
ATOM      6  C   UNL     1       9.440  -4.895  25.737  0.00  0.00    +0.000 C 
ENDROOT
BRANCH   1   7
ATOM      7  C   UNL     1       7.115  -5.038  24.855  0.00  0.00    +0.000 C 
BRANCH   7   8
ATOM      8  S   UNL     1       5.528  -5.705  25.230  0.00  0.00    +0.000 S 
ATOM      9  O   UNL     1       4.640  -4.590  25.505  0.00  0.00    +0.000 OA
ATOM     10  O   UNL     1       5.701  -6.598  26.369  0.00  0.00    +0.000 OA
BRANCH   8  12
ATOM     11  C   UNL     1       3.530  -6.865  24.223  0.00  0.00    +0.000 C 
ATOM     12  N   UNL     1       4.911  -6.570  24.000  0.00  0.00    +0.000 NA
ATOM     13  C   UNL     1       5.077  -5.937  22.746  0.00  0.00    +0.000 C 
ENDBRANCH   8  12
ENDBRANCH   7   8
ENDBRANCH   1   7
BRANCH   4  14
ATOM     14  O   UNL     1       8.461  -2.522  23.113  0.00  0.00    +0.000 OA
BRANCH  14  15
ATOM     15  C   UNL     1       8.295  -1.063  23.163  0.00  0.00    +0.000 A 
ATOM     16  C   UNL     1       9.328  -0.182  23.098  0.00  0.00    +0.000 A 
ATOM     17  C   UNL     1       9.792   0.666  24.251  0.00  0.00    +0.000 A 
ATOM     18  C   UNL     1      10.398   1.885  23.689  0.00  0.00    +0.000 A 
ATOM     19  N   UNL     1      10.256   1.858  22.277  0.00  0.00    +0.000 NA
ATOM     20  C   UNL     1       9.756   0.679  21.805  0.00  0.00    +0.000 A 
ATOM     21  C   UNL     1       8.343   0.828  21.224  0.00  0.00    +0.000 A 
ATOM     22  C   UNL     1       7.275  -0.039  21.319  0.00  0.00    +0.000 A 
ATOM     23  C   UNL     1       6.861  -0.842  22.509  0.00  0.00    +0.000 A 
ENDBRANCH  14  15
ENDBRANCH   4  14
TORSDOF 5
ENDMDL
MODEL 9
REMARK VINA RESULT:      -5.7      3.057      7.290
REMARK  Name = 
REMARK  5 active torsions:
REMARK  status: ('A' for Active; 'I' for Inactive)
REMARK    1  A    between atoms: N_2  and  S_4
REMARK    2  A    between atoms: S_4  and  C_7
REMARK    3  A    between atoms: C_7  and  C_8
REMARK    4  A    between atoms: C_11  and  O_14
REMARK    5  A    between atoms: O_14  and  C_15
REMARK                            x       y       z     vdW  Elec       q    Type
REMARK                         _______ _______ _______ _____ _____    ______ ____
ROOT
ATOM      1  C   UNL     1       9.772   0.249  24.098  0.00  0.00    +0.000 C 
ATOM      2  C   UNL     1      10.562  -0.898  23.447  0.00  0.00    +0.000 C 
ATOM      3  C   UNL     1       9.628  -2.129  23.397  0.00  0.00    +0.000 C 
ATOM      4  C   UNL     1       8.414  -1.888  24.148  0.00  0.00    +0.000 C 
ATOM      5  C   UNL     1       8.525  -1.366  25.517  0.00  0.00    +0.000 C 
ATOM      6  C   UNL     1       9.447  -0.137  25.539  0.00  0.00    +0.000 C 
ENDROOT
BRANCH   1   7
ATOM      7  C   UNL     1       8.496   0.467  23.316  0.00  0.00    +0.000 C 
BRANCH   7   8
ATOM      8  S   UNL     1       8.749   1.404  21.846  0.00  0.00    +0.000 S 
ATOM      9  O   UNL     1       8.495   0.525  20.719  0.00  0.00    +0.000 OA
ATOM     10  O   UNL     1      10.117   1.905  21.891  0.00  0.00    +0.000 OA
BRANCH   8  12
ATOM     11  C   UNL     1       6.393   2.258  21.562  0.00  0.00    +0.000 C 
ATOM     12  N   UNL     1       7.748   2.681  21.745  0.00  0.00    +0.000 NA
ATOM     13  C   UNL     1       7.842   3.543  22.863  0.00  0.00    +0.000 C 
ENDBRANCH   8  12
ENDBRANCH   7   8
ENDBRANCH   1   7
BRANCH   4  14
ATOM     14  O   UNL     1       7.307  -2.608  23.868  0.00  0.00    +0.000 OA
BRANCH  14  15
ATOM     15  C   UNL     1       7.426  -4.002  24.319  0.00  0.00    +0.000 A 
ATOM     16  C   UNL     1       7.003  -4.442  25.534  0.00  0.00    +0.000 A 
ATOM     17  C   UNL     1       7.921  -4.877  26.644  0.00  0.00    +0.000 A 
ATOM     18  C   UNL     1       7.189  -5.859  27.464  0.00  0.00    +0.000 A 
ATOM     19  N   UNL     1       5.922  -6.097  26.871  0.00  0.00    +0.000 NA
ATOM     20  C   UNL     1       5.650  -5.268  25.821  0.00  0.00    +0.000 A 
ATOM     21  C   UNL     1       5.615  -6.010  24.478  0.00  0.00    +0.000 A 
ATOM     22  C   UNL     1       6.078  -5.592  23.249  0.00  0.00    +0.000 A 
ATOM     23  C   UNL     1       7.331  -4.828  22.963  0.00  0.00    +0.000 A 
ENDBRANCH  14  15
ENDBRANCH   4  14
TORSDOF 5
ENDMDL
