MODEL 1
REMARK VINA RESULT:      -7.0      0.000      0.000
REMARK  Name = 
REMARK  5 active torsions:
REMARK  status: ('A' for Active; 'I' for Inactive)
REMARK    1  A    between atoms: C_1  and  C_7
REMARK    2  A    between atoms: C_9  and  C_21
REMARK    3  A    between atoms: N_11  and  S_12
REMARK    4  A    between atoms: S_12  and  C_15
REMARK    5  A    between atoms: C_21  and  N_22
REMARK                            x       y       z     vdW  Elec       q    Type
REMARK                         _______ _______ _______ _____ _____    ______ ____
ROOT
ATOM      1  C   UNL     1       8.520   0.386  21.339  0.00  0.00    +0.000 A 
ATOM      2  C   UNL     1       9.707   1.188  21.770  0.00  0.00    +0.000 A 
ATOM      3  C   UNL     1       9.716   1.129  23.281  0.00  0.00    +0.000 A 
ATOM      4  C   UNL     1       8.399   0.561  23.627  0.00  0.00    +0.000 A 
ATOM      5  N   UNL     1       7.824  -0.061  22.490  0.00  0.00    +0.000 N 
ENDROOT
BRANCH   1   6
ATOM      6  C   UNL     1       7.765   0.881  20.222  0.00  0.00    +0.000 A 
ATOM      7  C   UNL     1       7.602   0.075  19.091  0.00  0.00    +0.000 A 
ATOM      8  C   UNL     1       6.270  -0.524  18.515  0.00  0.00    +0.000 A 
ATOM      9  C   UNL     1       5.290   0.452  19.183  0.00  0.00    +0.000 A 
ATOM     10  C   UNL     1       5.498   1.492  20.040  0.00  0.00    +0.000 A 
ATOM     11  C   UNL     1       6.761   1.949  20.697  0.00  0.00    +0.000 A 
ENDBRANCH   1   6
BRANCH   5  12
ATOM     12  S   UNL     1       7.888  -1.669  22.564  0.00  0.00    +0.000 S 
ATOM     13  O   UNL     1       8.863  -2.118  21.595  0.00  0.00    +0.000 OA
ATOM     14  O   UNL     1       6.496  -2.048  22.094  0.00  0.00    +0.000 OA
BRANCH  12  15
ATOM     15  C   UNL     1       8.068  -2.394  24.073  0.00  0.00    +0.000 A 
ATOM     16  C   UNL     1       9.605  -2.913  24.157  0.00  0.00    +0.000 A 
ATOM     17  N   UNL     1       9.537  -4.196  24.654  0.00  0.00    +0.000 NA
ATOM     18  C   UNL     1       8.760  -5.240  24.643  0.00  0.00    +0.000 A 
ATOM     19  C   UNL     1       7.195  -4.910  24.501  0.00  0.00    +0.000 A 
ATOM     20  C   UNL     1       7.097  -3.517  24.097  0.00  0.00    +0.000 A 
ENDBRANCH  12  15
ENDBRANCH   5  12
BRANCH   3  21
ATOM     21  C   UNL     1      10.343   2.221  24.030  0.00  0.00    +0.000 C 
BRANCH  21  22
ATOM     22  N   UNL     1      10.350   3.483  23.396  0.00  0.00    +0.000 NA
ATOM     23  C   UNL     1      11.655   4.057  23.399  0.00  0.00    +0.000 C 
ATOM     24  C   UNL     1       9.450   4.370  24.081  0.00  0.00    +0.000 C 
ENDBRANCH  21  22
ENDBRANCH   3  21
TORSDOF 5
ENDMDL
MODEL 2
REMARK VINA RESULT:      -6.9      2.157      4.902
REMARK  Name = 
REMARK  5 active torsions:
REMARK  status: ('A' for Active; 'I' for Inactive)
REMARK    1  A    between atoms: C_1  and  C_7
REMARK    2  A    between atoms: C_9  and  C_21
REMARK    3  A    between atoms: N_11  and  S_12
REMARK    4  A    between atoms: S_12  and  C_15
REMARK    5  A    between atoms: C_21  and  N_22
REMARK                            x       y       z     vdW  Elec       q    Type
REMARK                         _______ _______ _______ _____ _____    ______ ____
ROOT
ATOM      1  C   UNL     1       7.932  -0.046  23.007  0.00  0.00    +0.000 A 
ATOM      2  C   UNL     1       7.308   0.617  21.820  0.00  0.00    +0.000 A 
ATOM      3  C   UNL     1       7.577  -0.299  20.648  0.00  0.00    +0.000 A 
ATOM      4  C   UNL     1       8.571  -1.260  21.163  0.00  0.00    +0.000 A 
ATOM      5  N   UNL     1       8.589  -1.227  22.581  0.00  0.00    +0.000 N 
ENDROOT
BRANCH   1   6
ATOM      6  C   UNL     1       8.586   0.803  23.963  0.00  0.00    +0.000 A 
ATOM      7  C   UNL     1       9.760   0.363  24.583  0.00  0.00    +0.000 A 
ATOM      8  C   UNL     1      11.201   0.976  24.468  0.00  0.00    +0.000 A 
ATOM      9  C   UNL     1      10.799   2.382  23.995  0.00  0.00    +0.000 A 
ATOM     10  C   UNL     1       9.579   2.925  23.721  0.00  0.00    +0.000 A 
ATOM     11  C   UNL     1       8.232   2.277  23.689  0.00  0.00    +0.000 A 
ENDBRANCH   1   6
BRANCH   5  12
ATOM     12  S   UNL     1       7.870  -2.508  23.240  0.00  0.00    +0.000 S 
ATOM     13  O   UNL     1       7.053  -2.040  24.339  0.00  0.00    +0.000 OA
ATOM     14  O   UNL     1       9.060  -3.276  23.785  0.00  0.00    +0.000 OA
BRANCH  12  15
ATOM     15  C   UNL     1       7.064  -3.584  22.226  0.00  0.00    +0.000 A 
ATOM     16  C   UNL     1       5.512  -3.108  22.185  0.00  0.00    +0.000 A 
ATOM     17  N   UNL     1       4.767  -4.256  22.348  0.00  0.00    +0.000 NA
ATOM     18  C   UNL     1       4.818  -5.412  22.943  0.00  0.00    +0.000 A 
ATOM     19  C   UNL     1       6.297  -6.008  23.126  0.00  0.00    +0.000 A 
ATOM     20  C   UNL     1       7.222  -4.920  22.852  0.00  0.00    +0.000 A 
ENDBRANCH  12  15
ENDBRANCH   5  12
BRANCH   3  21
ATOM     21  C   UNL     1       7.633   0.271  19.299  0.00  0.00    +0.000 C 
BRANCH  21  22
ATOM     22  N   UNL     1       6.615  -0.142  18.411  0.00  0.00    +0.000 NA
ATOM     23  C   UNL     1       5.851   0.969  17.948  0.00  0.00    +0.000 C 
ATOM     24  C   UNL     1       5.738  -1.062  19.080  0.00  0.00    +0.000 C 
ENDBRANCH  21  22
ENDBRANCH   3  21
TORSDOF 5
ENDMDL
MODEL 3
REMARK VINA RESULT:      -6.8      1.835      4.569
REMARK  Name = 
REMARK  5 active torsions:
REMARK  status: ('A' for Active; 'I' for Inactive)
REMARK    1  A    between atoms: C_1  and  C_7
REMARK    2  A    between atoms: C_9  and  C_21
REMARK    3  A    between atoms: N_11  and  S_12
REMARK    4  A    between atoms: S_12  and  C_15
REMARK    5  A    between atoms: C_21  and  N_22
REMARK                            x       y       z     vdW  Elec       q    Type
REMARK                         _______ _______ _______ _____ _____    ______ ____
ROOT
ATOM      1  C   UNL     1       8.528   0.078  23.296  0.00  0.00    +0.000 A 
ATOM      2  C   UNL     1       7.652   0.615  22.208  0.00  0.00    +0.000 A 
ATOM      3  C   UNL     1       7.880  -0.285  21.015  0.00  0.00    +0.000 A 
ATOM      4  C   UNL     1       9.064  -1.083  21.387  0.00  0.00    +0.000 A 
ATOM      5  N   UNL     1       9.279  -1.011  22.786  0.00  0.00    +0.000 N 
ENDROOT
BRANCH   1   6
ATOM      6  C   UNL     1       9.183   1.035  24.143  0.00  0.00    +0.000 A 
ATOM      7  C   UNL     1      10.400   1.591  23.737  0.00  0.00    +0.000 A 
ATOM      8  C   UNL     1      10.711   3.093  23.397  0.00  0.00    +0.000 A 
ATOM      9  C   UNL     1       9.534   3.731  24.151  0.00  0.00    +0.000 A 
ATOM     10  C   UNL     1       8.513   3.175  24.863  0.00  0.00    +0.000 A 
ATOM     11  C   UNL     1       8.149   1.736  25.045  0.00  0.00    +0.000 A 
ENDBRANCH   1   6
BRANCH   5  12
ATOM     12  S   UNL     1       8.850  -2.362  23.551  0.00  0.00    +0.000 S 
ATOM     13  O   UNL     1      10.060  -3.056  23.935  0.00  0.00    +0.000 OA
ATOM     14  O   UNL     1       8.156  -3.129  22.441  0.00  0.00    +0.000 OA
BRANCH  12  15
ATOM     15  C   UNL     1       7.723  -2.253  24.797  0.00  0.00    +0.000 A 
ATOM     16  C   UNL     1       8.430  -2.883  26.117  0.00  0.00    +0.000 A 
ATOM     17  N   UNL     1       7.489  -3.719  26.679  0.00  0.00    +0.000 NA
ATOM     18  C   UNL     1       6.504  -4.499  26.337  0.00  0.00    +0.000 A 
ATOM     19  C   UNL     1       5.726  -4.054  25.006  0.00  0.00    +0.000 A 
ATOM     20  C   UNL     1       6.555  -3.053  24.353  0.00  0.00    +0.000 A 
ENDBRANCH  12  15
ENDBRANCH   5  12
BRANCH   3  21
ATOM     21  C   UNL     1       7.662   0.251  19.669  0.00  0.00    +0.000 C 
BRANCH  21  22
ATOM     22  N   UNL     1       6.668  -0.394  18.900  0.00  0.00    +0.000 NA
ATOM     23  C   UNL     1       5.834   0.551  18.235  0.00  0.00    +0.000 C 
ATOM     24  C   UNL     1       5.853  -1.211  19.756  0.00  0.00    +0.000 C 
ENDBRANCH  21  22
ENDBRANCH   3  21
TORSDOF 5
ENDMDL
MODEL 4
REMARK VINA RESULT:      -6.8      2.217      5.679
REMARK  Name = 
REMARK  5 active torsions:
REMARK  status: ('A' for Active; 'I' for Inactive)
REMARK    1  A    between atoms: C_1  and  C_7
REMARK    2  A    between atoms: C_9  and  C_21
REMARK    3  A    between atoms: N_11  and  S_12
REMARK    4  A    between atoms: S_12  and  C_15
REMARK    5  A    between atoms: C_21  and  N_22
REMARK                            x       y       z     vdW  Elec       q    Type
REMARK                         _______ _______ _______ _____ _____    ______ ____
ROOT
ATOM      1  C   UNL     1       7.530  -0.654  22.567  0.00  0.00    +0.000 A 
ATOM      2  C   UNL     1       6.744  -1.876  22.214  0.00  0.00    +0.000 A 
ATOM      3  C   UNL     1       7.459  -3.031  22.878  0.00  0.00    +0.000 A 
ATOM      4  C   UNL     1       8.746  -2.455  23.314  0.00  0.00    +0.000 A 
ATOM      5  N   UNL     1       8.667  -1.040  23.320  0.00  0.00    +0.000 N 
ENDROOT
BRANCH   1   6
ATOM      6  C   UNL     1       7.682   0.345  21.547  0.00  0.00    +0.000 A 
ATOM      7  C   UNL     1       8.186  -0.023  20.295  0.00  0.00    +0.000 A 
ATOM      8  C   UNL     1       7.453   0.025  18.907  0.00  0.00    +0.000 A 
ATOM      9  C   UNL     1       6.364   1.044  19.274  0.00  0.00    +0.000 A 
ATOM     10  C   UNL     1       6.088   1.684  20.446  0.00  0.00    +0.000 A 
ATOM     11  C   UNL     1       6.703   1.508  21.797  0.00  0.00    +0.000 A 
ENDBRANCH   1   6
BRANCH   5  12
ATOM     12  S   UNL     1       8.557  -0.432  24.807  0.00  0.00    +0.000 S 
ATOM     13  O   UNL     1       8.901  -1.481  25.741  0.00  0.00    +0.000 OA
ATOM     14  O   UNL     1       7.072  -0.135  24.903  0.00  0.00    +0.000 OA
BRANCH  12  15
ATOM     15  C   UNL     1       9.331   1.028  25.134  0.00  0.00    +0.000 A 
ATOM     16  C   UNL     1       8.165   2.151  25.267  0.00  0.00    +0.000 A 
ATOM     17  N   UNL     1       8.602   3.229  24.528  0.00  0.00    +0.000 NA
ATOM     18  C   UNL     1       9.307   3.503  23.469  0.00  0.00    +0.000 A 
ATOM     19  C   UNL     1      10.476   2.451  23.150  0.00  0.00    +0.000 A 
ATOM     20  C   UNL     1      10.220   1.280  23.972  0.00  0.00    +0.000 A 
ENDBRANCH  12  15
ENDBRANCH   5  12
BRANCH   3  21
ATOM     21  C   UNL     1       7.332  -4.372  22.301  0.00  0.00    +0.000 C 
BRANCH  21  22
ATOM     22  N   UNL     1       6.046  -4.724  21.831  0.00  0.00    +0.000 NA
ATOM     23  C   UNL     1       5.232  -5.232  22.885  0.00  0.00    +0.000 C 
ATOM     24  C   UNL     1       6.167  -5.729  20.811  0.00  0.00    +0.000 C 
ENDBRANCH  21  22
ENDBRANCH   3  21
TORSDOF 5
ENDMDL
MODEL 5
REMARK VINA RESULT:      -6.6      1.628      6.259
REMARK  Name = 
REMARK  5 active torsions:
REMARK  status: ('A' for Active; 'I' for Inactive)
REMARK    1  A    between atoms: C_1  and  C_7
REMARK    2  A    between atoms: C_9  and  C_21
REMARK    3  A    between atoms: N_11  and  S_12
REMARK    4  A    between atoms: S_12  and  C_15
REMARK    5  A    between atoms: C_21  and  N_22
REMARK                            x       y       z     vdW  Elec       q    Type
REMARK                         _______ _______ _______ _____ _____    ______ ____
ROOT
ATOM      1  C   UNL     1       8.950  -0.483  24.259  0.00  0.00    +0.000 A 
ATOM      2  C   UNL     1       9.029  -1.655  25.185  0.00  0.00    +0.000 A 
ATOM      3  C   UNL     1       7.774  -2.461  24.935  0.00  0.00    +0.000 A 
ATOM      4  C   UNL     1       6.930  -1.569  24.117  0.00  0.00    +0.000 A 
ATOM      5  N   UNL     1       7.719  -0.531  23.559  0.00  0.00    +0.000 N 
ENDROOT
BRANCH   1   6
ATOM      6  C   UNL     1       9.412   0.781  24.761  0.00  0.00    +0.000 A 
ATOM      7  C   UNL     1      10.569   1.352  24.223  0.00  0.00    +0.000 A 
ATOM      8  C   UNL     1      10.700   2.695  23.419  0.00  0.00    +0.000 A 
ATOM      9  C   UNL     1       9.399   3.358  23.896  0.00  0.00    +0.000 A 
ATOM     10  C   UNL     1       8.414   2.914  24.728  0.00  0.00    +0.000 A 
ATOM     11  C   UNL     1       8.234   1.572  25.362  0.00  0.00    +0.000 A 
ENDBRANCH   1   6
BRANCH   5  12
ATOM     12  S   UNL     1       8.003  -0.744  21.988  0.00  0.00    +0.000 S 
ATOM     13  O   UNL     1       7.197  -1.858  21.539  0.00  0.00    +0.000 OA
ATOM     14  O   UNL     1       9.465  -1.149  21.998  0.00  0.00    +0.000 OA
BRANCH  12  15
ATOM     15  C   UNL     1       7.911   0.594  20.970  0.00  0.00    +0.000 A 
ATOM     16  C   UNL     1       6.707   1.525  21.536  0.00  0.00    +0.000 A 
ATOM     17  N   UNL     1       5.963   1.882  20.431  0.00  0.00    +0.000 NA
ATOM     18  C   UNL     1       5.604   1.420  19.269  0.00  0.00    +0.000 A 
ATOM     19  C   UNL     1       6.661   0.423  18.586  0.00  0.00    +0.000 A 
ATOM     20  C   UNL     1       7.612   0.051  19.621  0.00  0.00    +0.000 A 
ENDBRANCH  12  15
ENDBRANCH   5  12
BRANCH   3  21
ATOM     21  C   UNL     1       7.246  -3.305  26.010  0.00  0.00    +0.000 C 
BRANCH  21  22
ATOM     22  N   UNL     1       7.447  -4.695  25.861  0.00  0.00    +0.000 NA
ATOM     23  C   UNL     1       6.474  -5.268  24.992  0.00  0.00    +0.000 C 
ATOM     24  C   UNL     1       7.357  -5.334  27.145  0.00  0.00    +0.000 C 
ENDBRANCH  21  22
ENDBRANCH   3  21
TORSDOF 5
ENDMDL
MODEL 6
REMARK VINA RESULT:      -6.5      2.435      4.166
REMARK  Name = 
REMARK  5 active torsions:
REMARK  status: ('A' for Active; 'I' for Inactive)
REMARK    1  A    between atoms: C_1  and  C_7
REMARK    2  A    between atoms: C_9  and  C_21
REMARK    3  A    between atoms: N_11  and  S_12
REMARK    4  A    between atoms: S_12  and  C_15
REMARK    5  A    between atoms: C_21  and  N_22
REMARK                            x       y       z     vdW  Elec       q    Type
REMARK                         _______ _______ _______ _____ _____    ______ ____
ROOT
ATOM      1  C   UNL     1       7.221  -2.608  22.624  0.00  0.00    +0.000 A 
ATOM      2  C   UNL     1       7.391  -1.493  21.642  0.00  0.00    +0.000 A 
ATOM      3  C   UNL     1       7.700  -0.263  22.466  0.00  0.00    +0.000 A 
ATOM      4  C   UNL     1       7.402  -0.675  23.852  0.00  0.00    +0.000 A 
ATOM      5  N   UNL     1       7.343  -2.089  23.936  0.00  0.00    +0.000 N 
ENDROOT
BRANCH   1   6
ATOM      6  C   UNL     1       6.188  -3.569  22.352  0.00  0.00    +0.000 A 
ATOM      7  C   UNL     1       6.494  -4.716  21.614  0.00  0.00    +0.000 A 
ATOM      8  C   UNL     1       6.449  -6.212  22.091  0.00  0.00    +0.000 A 
ATOM      9  C   UNL     1       5.501  -6.028  23.286  0.00  0.00    +0.000 A 
ATOM     10  C   UNL     1       4.909  -4.913  23.803  0.00  0.00    +0.000 A 
ATOM     11  C   UNL     1       5.088  -3.477  23.427  0.00  0.00    +0.000 A 
ENDBRANCH   1   6
BRANCH   5  12
ATOM     12  S   UNL     1       8.643  -2.723  24.645  0.00  0.00    +0.000 S 
ATOM     13  O   UNL     1       9.712  -1.752  24.559  0.00  0.00    +0.000 OA
ATOM     14  O   UNL     1       8.947  -3.893  23.728  0.00  0.00    +0.000 OA
BRANCH  12  15
ATOM     15  C   UNL     1       8.473  -3.387  26.183  0.00  0.00    +0.000 A 
ATOM     16  C   UNL     1       8.765  -4.978  26.035  0.00  0.00    +0.000 A 
ATOM     17  N   UNL     1       7.760  -5.607  26.738  0.00  0.00    +0.000 NA
ATOM     18  C   UNL     1       6.507  -5.456  27.054  0.00  0.00    +0.000 A 
ATOM     19  C   UNL     1       6.027  -3.929  27.182  0.00  0.00    +0.000 A 
ATOM     20  C   UNL     1       7.070  -3.112  26.585  0.00  0.00    +0.000 A 
ENDBRANCH  12  15
ENDBRANCH   5  12
BRANCH   3  21
ATOM     21  C   UNL     1       7.359   1.056  21.929  0.00  0.00    +0.000 C 
BRANCH  21  22
ATOM     22  N   UNL     1       8.416   1.994  21.876  0.00  0.00    +0.000 NA
ATOM     23  C   UNL     1       9.684   1.344  21.864  0.00  0.00    +0.000 C 
ATOM     24  C   UNL     1       8.347   2.859  23.021  0.00  0.00    +0.000 C 
ENDBRANCH  21  22
ENDBRANCH   3  21
TORSDOF 5
ENDMDL
MODEL 7
REMARK VINA RESULT:      -6.3      2.364      6.217
REMARK  Name = 
REMARK  5 active torsions:
REMARK  status: ('A' for Active; 'I' for Inactive)
REMARK    1  A    between atoms: C_1  and  C_7
REMARK    2  A    between atoms: C_9  and  C_21
REMARK    3  A    between atoms: N_11  and  S_12
REMARK    4  A    between atoms: S_12  and  C_15
REMARK    5  A    between atoms: C_21  and  N_22
REMARK                            x       y       z     vdW  Elec       q    Type
REMARK                         _______ _______ _______ _____ _____    ______ ____
ROOT
ATOM      1  C   UNL     1       6.827  -1.990  23.078  0.00  0.00    +0.000 A 
ATOM      2  C   UNL     1       6.020  -3.248  23.034  0.00  0.00    +0.000 A 
ATOM      3  C   UNL     1       6.248  -3.930  24.364  0.00  0.00    +0.000 A 
ATOM      4  C   UNL     1       7.378  -3.189  24.959  0.00  0.00    +0.000 A 
ATOM      5  N   UNL     1       7.543  -1.945  24.300  0.00  0.00    +0.000 N 
ENDROOT
BRANCH   1   6
ATOM      6  C   UNL     1       7.496  -1.597  21.869  0.00  0.00    +0.000 A 
ATOM      7  C   UNL     1       6.840  -0.757  20.963  0.00  0.00    +0.000 A 
ATOM      8  C   UNL     1       7.237   0.701  20.537  0.00  0.00    +0.000 A 
ATOM      9  C   UNL     1       8.717   0.648  20.943  0.00  0.00    +0.000 A 
ATOM     10  C   UNL     1       9.456  -0.339  21.527  0.00  0.00    +0.000 A 
ATOM     11  C   UNL     1       9.022  -1.664  22.065  0.00  0.00    +0.000 A 
ENDBRANCH   1   6
BRANCH   5  12
ATOM     12  S   UNL     1       7.022  -0.702  25.182  0.00  0.00    +0.000 S 
ATOM     13  O   UNL     1       6.155  -1.225  26.214  0.00  0.00    +0.000 OA
ATOM     14  O   UNL     1       6.196   0.064  24.166  0.00  0.00    +0.000 OA
BRANCH  12  15
ATOM     15  C   UNL     1       8.157   0.399  25.763  0.00  0.00    +0.000 A 
ATOM     16  C   UNL     1       7.888   1.797  24.981  0.00  0.00    +0.000 A 
ATOM     17  N   UNL     1       9.129   2.245  24.583  0.00  0.00    +0.000 NA
ATOM     18  C   UNL     1      10.290   1.790  24.209  0.00  0.00    +0.000 A 
ATOM     19  C   UNL     1      10.692   0.372  24.844  0.00  0.00    +0.000 A 
ATOM     20  C   UNL     1       9.483  -0.180  25.432  0.00  0.00    +0.000 A 
ENDBRANCH  12  15
ENDBRANCH   5  12
BRANCH   3  21
ATOM     21  C   UNL     1       6.107  -5.386  24.450  0.00  0.00    +0.000 C 
BRANCH  21  22
ATOM     22  N   UNL     1       4.956  -5.857  25.123  0.00  0.00    +0.000 NA
ATOM     23  C   UNL     1       5.271  -6.292  26.443  0.00  0.00    +0.000 C 
ATOM     24  C   UNL     1       4.391  -6.957  24.392  0.00  0.00    +0.000 C 
ENDBRANCH  21  22
ENDBRANCH   3  21
TORSDOF 5
ENDMDL
MODEL 8
REMARK VINA RESULT:      -6.1      2.330      4.785
REMARK  Name = 
REMARK  5 active torsions:
REMARK  status: ('A' for Active; 'I' for Inactive)
REMARK    1  A    between atoms: C_1  and  C_7
REMARK    2  A    between atoms: C_9  and  C_21
REMARK    3  A    between atoms: N_11  and  S_12
REMARK    4  A    between atoms: S_12  and  C_15
REMARK    5  A    between atoms: C_21  and  N_22
REMARK                            x       y       z     vdW  Elec       q    Type
REMARK                         _______ _______ _______ _____ _____    ______ ____
ROOT
ATOM      1  C   UNL     1       7.234  -0.635  23.684  0.00  0.00    +0.000 A 
ATOM      2  C   UNL     1       6.902   0.233  22.512  0.00  0.00    +0.000 A 
ATOM      3  C   UNL     1       6.663  -0.712  21.356  0.00  0.00    +0.000 A 
ATOM      4  C   UNL     1       7.151  -2.015  21.849  0.00  0.00    +0.000 A 
ATOM      5  N   UNL     1       7.266  -1.988  23.262  0.00  0.00    +0.000 N 
ENDROOT
BRANCH   1   6
ATOM      6  C   UNL     1       8.254  -0.165  24.580  0.00  0.00    +0.000 A 
ATOM      7  C   UNL     1       9.505  -0.789  24.583  0.00  0.00    +0.000 A 
ATOM      8  C   UNL     1      10.894  -0.170  24.187  0.00  0.00    +0.000 A 
ATOM      9  C   UNL     1      10.526   1.311  24.362  0.00  0.00    +0.000 A 
ATOM     10  C   UNL     1       9.354   1.913  24.713  0.00  0.00    +0.000 A 
ATOM     11  C   UNL     1       8.003   1.313  24.936  0.00  0.00    +0.000 A 
ENDBRANCH   1   6
BRANCH   5  12
ATOM     12  S   UNL     1       6.091  -2.807  23.996  0.00  0.00    +0.000 S 
ATOM     13  O   UNL     1       5.161  -3.253  22.981  0.00  0.00    +0.000 OA
ATOM     14  O   UNL     1       5.443  -1.721  24.834  0.00  0.00    +0.000 OA
BRANCH  12  15
ATOM     15  C   UNL     1       6.519  -4.021  25.083  0.00  0.00    +0.000 A 
ATOM     16  C   UNL     1       6.956  -3.277  26.459  0.00  0.00    +0.000 A 
ATOM     17  N   UNL     1       8.128  -3.885  26.854  0.00  0.00    +0.000 NA
ATOM     18  C   UNL     1       9.184  -4.456  26.352  0.00  0.00    +0.000 A 
ATOM     19  C   UNL     1       8.945  -5.193  24.947  0.00  0.00    +0.000 A 
ATOM     20  C   UNL     1       7.655  -4.740  24.453  0.00  0.00    +0.000 A 
ENDBRANCH  12  15
ENDBRANCH   5  12
BRANCH   3  21
ATOM     21  C   UNL     1       6.887  -0.234  19.990  0.00  0.00    +0.000 C 
BRANCH  21  22
ATOM     22  N   UNL     1       5.727   0.079  19.245  0.00  0.00    +0.000 NA
ATOM     23  C   UNL     1       5.916  -0.186  17.858  0.00  0.00    +0.000 C 
ATOM     24  C   UNL     1       5.409   1.470  19.415  0.00  0.00    +0.000 C 
ENDBRANCH  21  22
ENDBRANCH   3  21
TORSDOF 5
ENDMDL
MODEL 9
REMARK VINA RESULT:      -6.1      1.904      6.162
REMARK  Name = 
REMARK  5 active torsions:
REMARK  status: ('A' for Active; 'I' for Inactive)
REMARK    1  A    between atoms: C_1  and  C_7
REMARK    2  A    between atoms: C_9  and  C_21
REMARK    3  A    between atoms: N_11  and  S_12
REMARK    4  A    between atoms: S_12  and  C_15
REMARK    5  A    between atoms: C_21  and  N_22
REMARK                            x       y       z     vdW  Elec       q    Type
REMARK                         _______ _______ _______ _____ _____    ______ ____
ROOT
ATOM      1  C   UNL     1       7.956  -2.353  23.077  0.00  0.00    +0.000 A 
ATOM      2  C   UNL     1       7.351  -2.612  21.734  0.00  0.00    +0.000 A 
ATOM      3  C   UNL     1       7.021  -1.252  21.163  0.00  0.00    +0.000 A 
ATOM      4  C   UNL     1       7.179  -0.333  22.307  0.00  0.00    +0.000 A 
ATOM      5  N   UNL     1       7.930  -0.960  23.333  0.00  0.00    +0.000 N 
ENDROOT
BRANCH   1   6
ATOM      6  C   UNL     1       7.609  -3.259  24.138  0.00  0.00    +0.000 A 
ATOM      7  C   UNL     1       8.228  -4.511  24.201  0.00  0.00    +0.000 A 
ATOM      8  C   UNL     1       9.183  -5.060  25.321  0.00  0.00    +0.000 A 
ATOM      9  C   UNL     1       8.762  -4.106  26.449  0.00  0.00    +0.000 A 
ATOM     10  C   UNL     1       7.869  -3.076  26.471  0.00  0.00    +0.000 A 
ATOM     11  C   UNL     1       7.083  -2.471  25.352  0.00  0.00    +0.000 A 
ENDBRANCH   1   6
BRANCH   5  12
ATOM     12  S   UNL     1       9.438  -0.404  23.427  0.00  0.00    +0.000 S 
ATOM     13  O   UNL     1       9.883  -0.102  22.084  0.00  0.00    +0.000 OA
ATOM     14  O   UNL     1      10.178  -1.623  23.943  0.00  0.00    +0.000 OA
BRANCH  12  15
ATOM     15  C   UNL     1       9.771   0.826  24.529  0.00  0.00    +0.000 A 
ATOM     16  C   UNL     1       8.365   1.188  25.257  0.00  0.00    +0.000 A 
ATOM     17  N   UNL     1       8.292   2.565  25.259  0.00  0.00    +0.000 NA
ATOM     18  C   UNL     1       8.653   3.592  24.547  0.00  0.00    +0.000 A 
ATOM     19  C   UNL     1      10.003   3.383  23.704  0.00  0.00    +0.000 A 
ATOM     20  C   UNL     1      10.289   1.958  23.721  0.00  0.00    +0.000 A 
ENDBRANCH  12  15
ENDBRANCH   5  12
BRANCH   3  21
ATOM     21  C   UNL     1       5.940  -1.136  20.181  0.00  0.00    +0.000 C 
BRANCH  21  22
ATOM     22  N   UNL     1       6.232  -0.377  19.025  0.00  0.00    +0.000 NA
ATOM     23  C   UNL     1       7.589   0.056  19.020  0.00  0.00    +0.000 C 
ATOM     24  C   UNL     1       5.375   0.776  18.979  0.00  0.00    +0.000 C 
ENDBRANCH  21  22
ENDBRANCH   3  21
TORSDOF 5
ENDMDL
