MODEL 1
REMARK VINA RESULT:      -5.7      0.000      0.000
REMARK  Name = 
REMARK  4 active torsions:
REMARK  status: ('A' for Active; 'I' for Inactive)
REMARK    1  A    between atoms: C_2  and  C_3
REMARK    2  A    between atoms: N_5  and  C_6
REMARK    3  A    between atoms: C_6  and  C_7
REMARK    4  A    between atoms: C_7  and  C_8
REMARK                            x       y       z     vdW  Elec       q    Type
REMARK                         _______ _______ _______ _____ _____    ______ ____
ROOT
ATOM      1  C   UNL     1       8.975  -1.677  23.460  0.00  0.00    +0.000 C 
ATOM      2  C   UNL     1       8.372  -0.893  24.689  0.00  0.00    +0.000 C 
ATOM      3  C   UNL     1       9.589  -0.171  25.350  0.00  0.00    +0.000 C 
ATOM      4  C   UNL     1      10.502   0.124  24.063  0.00  0.00    +0.000 A 
ATOM      5  C   UNL     1      10.083  -0.652  22.957  0.00  0.00    +0.000 A 
ATOM      6  C   UNL     1       9.547  -0.155  21.564  0.00  0.00    +0.000 A 
ATOM      7  C   UNL     1       9.756   1.345  21.751  0.00  0.00    +0.000 A 
ATOM      8  C   UNL     1      10.075   2.075  22.861  0.00  0.00    +0.000 A 
ATOM      9  C   UNL     1      10.793   1.623  24.091  0.00  0.00    +0.000 A 
ENDROOT
BRANCH   1  10
ATOM     10  C   UNL     1       9.748  -2.847  24.102  0.00  0.00    +0.000 C 
BRANCH  10  11
ATOM     11  C   UNL     1       8.652  -3.813  24.592  0.00  0.00    +0.000 C 
BRANCH  11  14
ATOM     12  C   UNL     1       7.287  -5.223  23.159  0.00  0.00    +0.000 C 
ATOM     13  O   UNL     1       7.228  -6.052  22.263  0.00  0.00    +0.000 OA
ATOM     14  N   UNL     1       8.474  -4.906  23.705  0.00  0.00    +0.000 NA
BRANCH  12  16
ATOM     15  C   UNL     1       6.120  -3.510  21.867  0.00  0.00    +0.000 C 
ATOM     16  C   UNL     1       6.221  -4.139  23.258  0.00  0.00    +0.000 C 
ENDBRANCH  12  16
ENDBRANCH  11  14
ENDBRANCH  10  11
ENDBRANCH   1  10
TORSDOF 4
ENDMDL
MODEL 2
REMARK VINA RESULT:      -5.5      1.918      2.165
REMARK  Name = 
REMARK  4 active torsions:
REMARK  status: ('A' for Active; 'I' for Inactive)
REMARK    1  A    between atoms: C_2  and  C_3
REMARK    2  A    between atoms: N_5  and  C_6
REMARK    3  A    between atoms: C_6  and  C_7
REMARK    4  A    between atoms: C_7  and  C_8
REMARK                            x       y       z     vdW  Elec       q    Type
REMARK                         _______ _______ _______ _____ _____    ______ ____
ROOT
ATOM      1  C   UNL     1       8.947  -2.060  23.573  0.00  0.00    +0.000 C 
ATOM      2  C   UNL     1       8.203  -1.246  24.700  0.00  0.00    +0.000 C 
ATOM      3  C   UNL     1       9.329  -0.465  25.450  0.00  0.00    +0.000 C 
ATOM      4  C   UNL     1      10.361  -0.196  24.251  0.00  0.00    +0.000 A 
ATOM      5  C   UNL     1      10.077  -1.025  23.141  0.00  0.00    +0.000 A 
ATOM      6  C   UNL     1       9.674  -0.599  21.682  0.00  0.00    +0.000 A 
ATOM      7  C   UNL     1       9.828   0.913  21.827  0.00  0.00    +0.000 A 
ATOM      8  C   UNL     1      10.014   1.695  22.931  0.00  0.00    +0.000 A 
ATOM      9  C   UNL     1      10.613   1.311  24.246  0.00  0.00    +0.000 A 
ENDROOT
BRANCH   1  10
ATOM     10  C   UNL     1       9.677  -3.183  24.337  0.00  0.00    +0.000 C 
BRANCH  10  11
ATOM     11  C   UNL     1       8.638  -4.315  24.450  0.00  0.00    +0.000 C 
BRANCH  11  14
ATOM     12  C   UNL     1       7.632  -4.998  26.554  0.00  0.00    +0.000 C 
ATOM     13  O   UNL     1       7.669  -5.715  27.542  0.00  0.00    +0.000 OA
ATOM     14  N   UNL     1       8.684  -4.952  25.717  0.00  0.00    +0.000 NA
BRANCH  12  16
ATOM     15  C   UNL     1       5.529  -5.963  25.776  0.00  0.00    +0.000 C 
ATOM     16  C   UNL     1       6.290  -4.645  25.924  0.00  0.00    +0.000 C 
ENDBRANCH  12  16
ENDBRANCH  11  14
ENDBRANCH  10  11
ENDBRANCH   1  10
TORSDOF 4
ENDMDL
MODEL 3
REMARK VINA RESULT:      -5.4      2.045      3.604
REMARK  Name = 
REMARK  4 active torsions:
REMARK  status: ('A' for Active; 'I' for Inactive)
REMARK    1  A    between atoms: C_2  and  C_3
REMARK    2  A    between atoms: N_5  and  C_6
REMARK    3  A    between atoms: C_6  and  C_7
REMARK    4  A    between atoms: C_7  and  C_8
REMARK                            x       y       z     vdW  Elec       q    Type
REMARK                         _______ _______ _______ _____ _____    ______ ____
ROOT
ATOM      1  C   UNL     1       8.126  -0.664  22.889  0.00  0.00    +0.000 C 
ATOM      2  C   UNL     1       7.900   0.880  22.661  0.00  0.00    +0.000 C 
ATOM      3  C   UNL     1       8.533   1.183  21.265  0.00  0.00    +0.000 C 
ATOM      4  C   UNL     1       8.258  -0.201  20.500  0.00  0.00    +0.000 A 
ATOM      5  C   UNL     1       7.918  -1.226  21.414  0.00  0.00    +0.000 A 
ATOM      6  C   UNL     1       6.585  -2.055  21.498  0.00  0.00    +0.000 A 
ATOM      7  C   UNL     1       5.889  -1.512  20.253  0.00  0.00    +0.000 A 
ATOM      8  C   UNL     1       6.197  -0.458  19.441  0.00  0.00    +0.000 A 
ATOM      9  C   UNL     1       7.533   0.172  19.208  0.00  0.00    +0.000 A 
ENDROOT
BRANCH   1  10
ATOM     10  C   UNL     1       9.635  -0.787  23.175  0.00  0.00    +0.000 C 
BRANCH  10  11
ATOM     11  C   UNL     1       9.724  -1.721  24.397  0.00  0.00    +0.000 C 
BRANCH  11  14
ATOM     12  C   UNL     1       9.028  -4.039  24.608  0.00  0.00    +0.000 C 
ATOM     13  O   UNL     1       8.969  -5.158  24.120  0.00  0.00    +0.000 OA
ATOM     14  N   UNL     1       9.771  -3.087  24.018  0.00  0.00    +0.000 NA
BRANCH  12  16
ATOM     15  C   UNL     1       6.592  -3.885  24.704  0.00  0.00    +0.000 C 
ATOM     16  C   UNL     1       7.873  -3.522  25.457  0.00  0.00    +0.000 C 
ENDBRANCH  12  16
ENDBRANCH  11  14
ENDBRANCH  10  11
ENDBRANCH   1  10
TORSDOF 4
ENDMDL
MODEL 4
REMARK VINA RESULT:      -5.4      1.361      2.570
REMARK  Name = 
REMARK  4 active torsions:
REMARK  status: ('A' for Active; 'I' for Inactive)
REMARK    1  A    between atoms: C_2  and  C_3
REMARK    2  A    between atoms: N_5  and  C_6
REMARK    3  A    between atoms: C_6  and  C_7
REMARK    4  A    between atoms: C_7  and  C_8
REMARK                            x       y       z     vdW  Elec       q    Type
REMARK                         _______ _______ _______ _____ _____    ______ ____
ROOT
ATOM      1  C   UNL     1       8.576  -1.117  22.487  0.00  0.00    +0.000 C 
ATOM      2  C   UNL     1       9.103  -0.341  21.219  0.00  0.00    +0.000 C 
ATOM      3  C   UNL     1       8.639   1.137  21.422  0.00  0.00    +0.000 C 
ATOM      4  C   UNL     1       8.705   1.257  23.022  0.00  0.00    +0.000 A 
ATOM      5  C   UNL     1       8.780  -0.020  23.623  0.00  0.00    +0.000 A 
ATOM      6  C   UNL     1       9.925  -0.607  24.527  0.00  0.00    +0.000 A 
ATOM      7  C   UNL     1      10.798   0.640  24.643  0.00  0.00    +0.000 A 
ATOM      8  C   UNL     1      10.751   1.832  23.978  0.00  0.00    +0.000 A 
ATOM      9  C   UNL     1       9.577   2.476  23.314  0.00  0.00    +0.000 A 
ENDROOT
BRANCH   1  10
ATOM     10  C   UNL     1       7.053  -1.212  22.266  0.00  0.00    +0.000 C 
BRANCH  10  11
ATOM     11  C   UNL     1       6.748  -2.722  22.320  0.00  0.00    +0.000 C 
BRANCH  11  14
ATOM     12  C   UNL     1       7.625  -4.675  23.470  0.00  0.00    +0.000 C 
ATOM     13  O   UNL     1       8.594  -5.332  23.817  0.00  0.00    +0.000 OA
ATOM     14  N   UNL     1       7.797  -3.453  22.936  0.00  0.00    +0.000 NA
BRANCH  12  16
ATOM     15  C   UNL     1       6.706  -6.309  21.905  0.00  0.00    +0.000 C 
ATOM     16  C   UNL     1       6.337  -5.381  23.063  0.00  0.00    +0.000 C 
ENDBRANCH  12  16
ENDBRANCH  11  14
ENDBRANCH  10  11
ENDBRANCH   1  10
TORSDOF 4
ENDMDL
MODEL 5
REMARK VINA RESULT:      -5.3      3.241      4.211
REMARK  Name = 
REMARK  4 active torsions:
REMARK  status: ('A' for Active; 'I' for Inactive)
REMARK    1  A    between atoms: C_2  and  C_3
REMARK    2  A    between atoms: N_5  and  C_6
REMARK    3  A    between atoms: C_6  and  C_7
REMARK    4  A    between atoms: C_7  and  C_8
REMARK                            x       y       z     vdW  Elec       q    Type
REMARK                         _______ _______ _______ _____ _____    ______ ____
ROOT
ATOM      1  C   UNL     1       8.202   0.571  23.879  0.00  0.00    +0.000 C 
ATOM      2  C   UNL     1       9.365   0.480  24.940  0.00  0.00    +0.000 C 
ATOM      3  C   UNL     1      10.654   0.913  24.172  0.00  0.00    +0.000 C 
ATOM      4  C   UNL     1      10.046   1.981  23.139  0.00  0.00    +0.000 A 
ATOM      5  C   UNL     1       8.640   1.861  23.055  0.00  0.00    +0.000 A 
ATOM      6  C   UNL     1       7.545   2.935  23.406  0.00  0.00    +0.000 A 
ATOM      7  C   UNL     1       8.463   4.117  23.709  0.00  0.00    +0.000 A 
ATOM      8  C   UNL     1       9.817   4.183  23.873  0.00  0.00    +0.000 A 
ATOM      9  C   UNL     1      10.861   3.259  23.332  0.00  0.00    +0.000 A 
ENDROOT
BRANCH   1  10
ATOM     10  C   UNL     1       8.450  -0.628  22.943  0.00  0.00    +0.000 C 
BRANCH  10  11
ATOM     11  C   UNL     1       7.272  -0.596  21.951  0.00  0.00    +0.000 C 
BRANCH  11  14
ATOM     12  C   UNL     1       7.167   0.055  19.612  0.00  0.00    +0.000 C 
ATOM     13  O   UNL     1       7.704   0.090  18.515  0.00  0.00    +0.000 OA
ATOM     14  N   UNL     1       7.711  -0.672  20.604  0.00  0.00    +0.000 NA
BRANCH  12  16
ATOM     15  C   UNL     1       5.193   1.368  19.026  0.00  0.00    +0.000 C 
ATOM     16  C   UNL     1       6.303   1.224  20.068  0.00  0.00    +0.000 C 
ENDBRANCH  12  16
ENDBRANCH  11  14
ENDBRANCH  10  11
ENDBRANCH   1  10
TORSDOF 4
ENDMDL
MODEL 6
REMARK VINA RESULT:      -5.1      2.913      6.198
REMARK  Name = 
REMARK  4 active torsions:
REMARK  status: ('A' for Active; 'I' for Inactive)
REMARK    1  A    between atoms: C_2  and  C_3
REMARK    2  A    between atoms: N_5  and  C_6
REMARK    3  A    between atoms: C_6  and  C_7
REMARK    4  A    between atoms: C_7  and  C_8
REMARK                            x       y       z     vdW  Elec       q    Type
REMARK                         _______ _______ _______ _____ _____    ______ ____
ROOT
ATOM      1  C   UNL     1       7.847  -3.146  22.633  0.00  0.00    +0.000 C 
ATOM      2  C   UNL     1       7.384  -2.862  24.114  0.00  0.00    +0.000 C 
ATOM      3  C   UNL     1       5.862  -2.527  24.008  0.00  0.00    +0.000 C 
ATOM      4  C   UNL     1       5.434  -3.453  22.768  0.00  0.00    +0.000 A 
ATOM      5  C   UNL     1       6.569  -3.895  22.051  0.00  0.00    +0.000 A 
ATOM      6  C   UNL     1       7.059  -5.371  21.813  0.00  0.00    +0.000 A 
ATOM      7  C   UNL     1       5.891  -6.114  22.456  0.00  0.00    +0.000 A 
ATOM      8  C   UNL     1       4.853  -5.665  23.222  0.00  0.00    +0.000 A 
ATOM      9  C   UNL     1       4.258  -4.294  23.261  0.00  0.00    +0.000 A 
ENDROOT
BRANCH   1  10
ATOM     10  C   UNL     1       7.857  -1.756  21.967  0.00  0.00    +0.000 C 
BRANCH  10  11
ATOM     11  C   UNL     1       9.351  -1.408  21.819  0.00  0.00    +0.000 C 
BRANCH  11  14
ATOM     12  C   UNL     1       9.958   0.883  22.353  0.00  0.00    +0.000 C 
ATOM     13  O   UNL     1      10.288   1.993  21.962  0.00  0.00    +0.000 OA
ATOM     14  N   UNL     1       9.546  -0.046  21.473  0.00  0.00    +0.000 NA
BRANCH  12  16
ATOM     15  C   UNL     1       9.607   0.775  24.768  0.00  0.00    +0.000 C 
ATOM     16  C   UNL     1      10.547   0.331  23.646  0.00  0.00    +0.000 C 
ENDBRANCH  12  16
ENDBRANCH  11  14
ENDBRANCH  10  11
ENDBRANCH   1  10
TORSDOF 4
ENDMDL
MODEL 7
REMARK VINA RESULT:      -5.0      1.858      2.575
REMARK  Name = 
REMARK  4 active torsions:
REMARK  status: ('A' for Active; 'I' for Inactive)
REMARK    1  A    between atoms: C_2  and  C_3
REMARK    2  A    between atoms: N_5  and  C_6
REMARK    3  A    between atoms: C_6  and  C_7
REMARK    4  A    between atoms: C_7  and  C_8
REMARK                            x       y       z     vdW  Elec       q    Type
REMARK                         _______ _______ _______ _____ _____    ______ ____
ROOT
ATOM      1  C   UNL     1       8.854  -0.140  23.749  0.00  0.00    +0.000 C 
ATOM      2  C   UNL     1       9.783   0.150  24.989  0.00  0.00    +0.000 C 
ATOM      3  C   UNL     1      11.010   0.924  24.408  0.00  0.00    +0.000 C 
ATOM      4  C   UNL     1      10.316   1.732  23.207  0.00  0.00    +0.000 A 
ATOM      5  C   UNL     1       9.043   1.196  22.904  0.00  0.00    +0.000 A 
ATOM      6  C   UNL     1       7.642   1.906  22.983  0.00  0.00    +0.000 A 
ATOM      7  C   UNL     1       8.111   3.316  23.334  0.00  0.00    +0.000 A 
ATOM      8  C   UNL     1       9.336   3.786  23.710  0.00  0.00    +0.000 A 
ATOM      9  C   UNL     1      10.681   3.199  23.424  0.00  0.00    +0.000 A 
ENDROOT
BRANCH   1  10
ATOM     10  C   UNL     1       9.600  -1.239  22.966  0.00  0.00    +0.000 C 
BRANCH  10  11
ATOM     11  C   UNL     1       8.935  -2.554  23.415  0.00  0.00    +0.000 C 
BRANCH  11  14
ATOM     12  C   UNL     1       9.422  -4.471  24.827  0.00  0.00    +0.000 C 
ATOM     13  O   UNL     1      10.253  -5.225  25.310  0.00  0.00    +0.000 OA
ATOM     14  N   UNL     1       9.817  -3.361  24.178  0.00  0.00    +0.000 NA
BRANCH  12  16
ATOM     15  C   UNL     1       7.237  -5.139  25.689  0.00  0.00    +0.000 C 
ATOM     16  C   UNL     1       8.061  -5.013  24.407  0.00  0.00    +0.000 C 
ENDBRANCH  12  16
ENDBRANCH  11  14
ENDBRANCH  10  11
ENDBRANCH   1  10
TORSDOF 4
ENDMDL
MODEL 8
REMARK VINA RESULT:      -5.0      2.602      5.770
REMARK  Name = 
REMARK  4 active torsions:
REMARK  status: ('A' for Active; 'I' for Inactive)
REMARK    1  A    between atoms: C_2  and  C_3
REMARK    2  A    between atoms: N_5  and  C_6
REMARK    3  A    between atoms: C_6  and  C_7
REMARK    4  A    between atoms: C_7  and  C_8
REMARK                            x       y       z     vdW  Elec       q    Type
REMARK                         _______ _______ _______ _____ _____    ______ ____
ROOT
ATOM      1  C   UNL     1       8.139  -4.484  24.392  0.00  0.00    +0.000 C 
ATOM      2  C   UNL     1       7.214  -4.994  25.563  0.00  0.00    +0.000 C 
ATOM      3  C   UNL     1       5.886  -4.184  25.417  0.00  0.00    +0.000 C 
ATOM      4  C   UNL     1       5.820  -3.996  23.824  0.00  0.00    +0.000 A 
ATOM      5  C   UNL     1       7.072  -4.273  23.229  0.00  0.00    +0.000 A 
ATOM      6  C   UNL     1       7.426  -5.383  22.173  0.00  0.00    +0.000 A 
ATOM      7  C   UNL     1       6.022  -5.926  21.921  0.00  0.00    +0.000 A 
ATOM      8  C   UNL     1       4.844  -5.705  22.574  0.00  0.00    +0.000 A 
ATOM      9  C   UNL     1       4.450  -4.521  23.398  0.00  0.00    +0.000 A 
ENDROOT
BRANCH   1  10
ATOM     10  C   UNL     1       8.561  -3.069  24.834  0.00  0.00    +0.000 C 
BRANCH  10  11
ATOM     11  C   UNL     1       9.742  -2.711  23.911  0.00  0.00    +0.000 C 
BRANCH  11  14
ATOM     12  C   UNL     1      10.124  -0.536  22.897  0.00  0.00    +0.000 C 
ATOM     13  O   UNL     1      10.225   0.674  23.032  0.00  0.00    +0.000 OA
ATOM     14  N   UNL     1      10.068  -1.332  23.979  0.00  0.00    +0.000 NA
BRANCH  12  16
ATOM     15  C   UNL     1       8.717   0.055  20.989  0.00  0.00    +0.000 C 
ATOM     16  C   UNL     1       9.470  -1.105  21.643  0.00  0.00    +0.000 C 
ENDBRANCH  12  16
ENDBRANCH  11  14
ENDBRANCH  10  11
ENDBRANCH   1  10
TORSDOF 4
ENDMDL
MODEL 9
REMARK VINA RESULT:      -4.9      3.413      5.008
REMARK  Name = 
REMARK  4 active torsions:
REMARK  status: ('A' for Active; 'I' for Inactive)
REMARK    1  A    between atoms: C_2  and  C_3
REMARK    2  A    between atoms: N_5  and  C_6
REMARK    3  A    between atoms: C_6  and  C_7
REMARK    4  A    between atoms: C_7  and  C_8
REMARK                            x       y       z     vdW  Elec       q    Type
REMARK                         _______ _______ _______ _____ _____    ______ ____
ROOT
ATOM      1  C   UNL     1       8.285   0.020  22.767  0.00  0.00    +0.000 C 
ATOM      2  C   UNL     1       6.968  -0.847  22.779  0.00  0.00    +0.000 C 
ATOM      3  C   UNL     1       7.452  -2.323  22.945  0.00  0.00    +0.000 C 
ATOM      4  C   UNL     1       8.764  -2.111  23.845  0.00  0.00    +0.000 A 
ATOM      5  C   UNL     1       9.175  -0.758  23.833  0.00  0.00    +0.000 A 
ATOM      6  C   UNL     1       9.288   0.238  25.045  0.00  0.00    +0.000 A 
ATOM      7  C   UNL     1       8.965  -0.731  26.179  0.00  0.00    +0.000 A 
ATOM      8  C   UNL     1       8.483  -2.009  26.157  0.00  0.00    +0.000 A 
ATOM      9  C   UNL     1       8.589  -3.020  25.061  0.00  0.00    +0.000 A 
ENDROOT
BRANCH   1  10
ATOM     10  C   UNL     1       8.920  -0.277  21.394  0.00  0.00    +0.000 C 
BRANCH  10  11
ATOM     11  C   UNL     1       8.022   0.460  20.383  0.00  0.00    +0.000 C 
BRANCH  11  14
ATOM     12  C   UNL     1       6.383  -0.112  18.682  0.00  0.00    +0.000 C 
ATOM     13  O   UNL     1       6.053  -0.835  17.754  0.00  0.00    +0.000 OA
ATOM     14  N   UNL     1       7.453  -0.427  19.433  0.00  0.00    +0.000 NA
BRANCH  12  16
ATOM     15  C   UNL     1       4.576   1.477  19.100  0.00  0.00    +0.000 C 
ATOM     16  C   UNL     1       6.033   1.371  18.647  0.00  0.00    +0.000 C 
ENDBRANCH  12  16
ENDBRANCH  11  14
ENDBRANCH  10  11
ENDBRANCH   1  10
TORSDOF 4
ENDMDL
