MODEL 1
REMARK VINA RESULT:      -5.5      0.000      0.000
REMARK  Name = 
REMARK  4 active torsions:
REMARK  status: ('A' for Active; 'I' for Inactive)
REMARK    1  A    between atoms: C_4  and  C_7
REMARK    2  A    between atoms: C_9  and  C_11
REMARK    3  A    between atoms: C_11  and  N_12
REMARK    4  A    between atoms: C_13  and  C_14
REMARK                            x       y       z     vdW  Elec       q    Type
REMARK                         _______ _______ _______ _____ _____    ______ ____
ROOT
ATOM      1  C   UNL     1       9.913   1.519  21.915  0.00  0.00    +0.000 C 
ATOM      2  C   UNL     1      10.347   1.079  23.282  0.00  0.00    +0.000 C 
ATOM      3  C   UNL     1       9.919   2.529  23.025  0.00  0.00    +0.000 C 
ENDROOT
BRANCH   1   7
ATOM      4  C   UNL     1       6.701   1.070  19.589  0.00  0.00    +0.000 A 
ATOM      5  C   UNL     1       6.392   1.641  20.819  0.00  0.00    +0.000 A 
ATOM      6  C   UNL     1       7.468   1.944  21.958  0.00  0.00    +0.000 A 
ATOM      7  C   UNL     1       8.586   0.966  21.525  0.00  0.00    +0.000 A 
ATOM      8  C   UNL     1       8.498  -0.056  20.602  0.00  0.00    +0.000 A 
ATOM      9  C   UNL     1       7.686  -0.084  19.336  0.00  0.00    +0.000 A 
ENDBRANCH   1   7
BRANCH   2  10
ATOM     10  C   UNL     1       9.465   0.317  24.196  0.00  0.00    +0.000 C 
BRANCH  10  11
ATOM     11  N   UNL     1      10.033  -0.935  24.634  0.00  0.00    +0.000 NA
ATOM     12  C   UNL     1       9.483  -2.087  24.172  0.00  0.00    +0.000 C 
ATOM     13  O   UNL     1      10.175  -3.021  23.834  0.00  0.00    +0.000 OA
BRANCH  12  14
ATOM     14  C   UNL     1       8.036  -1.979  23.727  0.00  0.00    +0.000 C 
ATOM     15  C   UNL     1       7.816  -3.020  22.638  0.00  0.00    +0.000 C 
ENDBRANCH  12  14
ENDBRANCH  10  11
ENDBRANCH   2  10
TORSDOF 4
ENDMDL
MODEL 2
REMARK VINA RESULT:      -5.2      3.096      5.053
REMARK  Name = 
REMARK  4 active torsions:
REMARK  status: ('A' for Active; 'I' for Inactive)
REMARK    1  A    between atoms: C_4  and  C_7
REMARK    2  A    between atoms: C_9  and  C_11
REMARK    3  A    between atoms: C_11  and  N_12
REMARK    4  A    between atoms: C_13  and  C_14
REMARK                            x       y       z     vdW  Elec       q    Type
REMARK                         _______ _______ _______ _____ _____    ______ ____
ROOT
ATOM      1  C   UNL     1       9.295   0.680  21.439  0.00  0.00    +0.000 C 
ATOM      2  C   UNL     1       8.403  -0.155  20.570  0.00  0.00    +0.000 C 
ATOM      3  C   UNL     1       9.368  -0.814  21.562  0.00  0.00    +0.000 C 
ENDROOT
BRANCH   1   7
ATOM      4  C   UNL     1       8.843   3.251  24.458  0.00  0.00    +0.000 A 
ATOM      5  C   UNL     1       8.647   1.932  24.850  0.00  0.00    +0.000 A 
ATOM      6  C   UNL     1       8.761   0.682  23.863  0.00  0.00    +0.000 A 
ATOM      7  C   UNL     1       8.550   1.400  22.509  0.00  0.00    +0.000 A 
ATOM      8  C   UNL     1       8.098   2.688  22.302  0.00  0.00    +0.000 A 
ATOM      9  C   UNL     1       8.360   3.901  23.150  0.00  0.00    +0.000 A 
ENDBRANCH   1   7
BRANCH   2  10
ATOM     10  C   UNL     1       6.966  -0.362  20.861  0.00  0.00    +0.000 C 
BRANCH  10  11
ATOM     11  N   UNL     1       6.221  -0.893  19.746  0.00  0.00    +0.000 NA
ATOM     12  C   UNL     1       5.825  -0.036  18.770  0.00  0.00    +0.000 C 
ATOM     13  O   UNL     1       5.896  -0.340  17.600  0.00  0.00    +0.000 OA
BRANCH  12  14
ATOM     14  C   UNL     1       5.695   1.414  19.199  0.00  0.00    +0.000 C 
ATOM     15  C   UNL     1       4.207   1.719  19.324  0.00  0.00    +0.000 C 
ENDBRANCH  12  14
ENDBRANCH  10  11
ENDBRANCH   2  10
TORSDOF 4
ENDMDL
MODEL 3
REMARK VINA RESULT:      -5.0      3.053      4.911
REMARK  Name = 
REMARK  4 active torsions:
REMARK  status: ('A' for Active; 'I' for Inactive)
REMARK    1  A    between atoms: C_4  and  C_7
REMARK    2  A    between atoms: C_9  and  C_11
REMARK    3  A    between atoms: C_11  and  N_12
REMARK    4  A    between atoms: C_13  and  C_14
REMARK                            x       y       z     vdW  Elec       q    Type
REMARK                         _______ _______ _______ _____ _____    ______ ____
ROOT
ATOM      1  C   UNL     1       7.458  -2.647  22.051  0.00  0.00    +0.000 C 
ATOM      2  C   UNL     1       8.589  -2.028  22.819  0.00  0.00    +0.000 C 
ATOM      3  C   UNL     1       7.272  -1.269  22.617  0.00  0.00    +0.000 C 
ENDROOT
BRANCH   1   7
ATOM      4  C   UNL     1       4.874  -5.646  22.563  0.00  0.00    +0.000 A 
ATOM      5  C   UNL     1       4.641  -4.588  23.434  0.00  0.00    +0.000 A 
ATOM      6  C   UNL     1       5.510  -3.249  23.466  0.00  0.00    +0.000 A 
ATOM      7  C   UNL     1       6.802  -3.763  22.788  0.00  0.00    +0.000 A 
ATOM      8  C   UNL     1       7.153  -5.073  22.531  0.00  0.00    +0.000 A 
ATOM      9  C   UNL     1       6.246  -6.211  22.153  0.00  0.00    +0.000 A 
ENDBRANCH   1   7
BRANCH   2  10
ATOM     10  C   UNL     1       8.895  -2.388  24.222  0.00  0.00    +0.000 C 
BRANCH  10  11
ATOM     11  N   UNL     1       9.833  -3.477  24.346  0.00  0.00    +0.000 NA
ATOM     12  C   UNL     1       9.508  -4.517  25.156  0.00  0.00    +0.000 C 
ATOM     13  O   UNL     1       9.730  -5.661  24.829  0.00  0.00    +0.000 OA
BRANCH  12  14
ATOM     14  C   UNL     1       8.512  -4.193  26.254  0.00  0.00    +0.000 C 
ATOM     15  C   UNL     1       7.482  -5.314  26.279  0.00  0.00    +0.000 C 
ENDBRANCH  12  14
ENDBRANCH  10  11
ENDBRANCH   2  10
TORSDOF 4
ENDMDL
MODEL 4
REMARK VINA RESULT:      -5.0      2.234      4.487
REMARK  Name = 
REMARK  4 active torsions:
REMARK  status: ('A' for Active; 'I' for Inactive)
REMARK    1  A    between atoms: C_4  and  C_7
REMARK    2  A    between atoms: C_9  and  C_11
REMARK    3  A    between atoms: C_11  and  N_12
REMARK    4  A    between atoms: C_13  and  C_14
REMARK                            x       y       z     vdW  Elec       q    Type
REMARK                         _______ _______ _______ _____ _____    ______ ____
ROOT
ATOM      1  C   UNL     1       9.528   0.387  24.880  0.00  0.00    +0.000 C 
ATOM      2  C   UNL     1       9.945   1.517  23.985  0.00  0.00    +0.000 C 
ATOM      3  C   UNL     1      10.990   0.575  24.595  0.00  0.00    +0.000 C 
ENDROOT
BRANCH   1   7
ATOM      4  C   UNL     1       7.597  -3.085  24.496  0.00  0.00    +0.000 A 
ATOM      5  C   UNL     1       8.843  -3.099  23.880  0.00  0.00    +0.000 A 
ATOM      6  C   UNL     1       9.845  -1.856  23.866  0.00  0.00    +0.000 A 
ATOM      7  C   UNL     1       8.843  -0.711  24.143  0.00  0.00    +0.000 A 
ATOM      8  C   UNL     1       7.465  -0.772  24.102  0.00  0.00    +0.000 A 
ATOM      9  C   UNL     1       6.584  -1.927  24.489  0.00  0.00    +0.000 A 
ENDBRANCH   1   7
BRANCH   2  10
ATOM     10  C   UNL     1       9.830   1.454  22.510  0.00  0.00    +0.000 C 
BRANCH  10  11
ATOM     11  N   UNL     1       8.707   2.194  21.987  0.00  0.00    +0.000 NA
ATOM     12  C   UNL     1       7.778   1.524  21.259  0.00  0.00    +0.000 C 
ATOM     13  O   UNL     1       6.595   1.740  21.399  0.00  0.00    +0.000 OA
BRANCH  12  14
ATOM     14  C   UNL     1       8.272   0.250  20.598  0.00  0.00    +0.000 C 
ATOM     15  C   UNL     1       7.572   0.137  19.250  0.00  0.00    +0.000 C 
ENDBRANCH  12  14
ENDBRANCH  10  11
ENDBRANCH   2  10
TORSDOF 4
ENDMDL
MODEL 5
REMARK VINA RESULT:      -4.9      2.296      4.406
REMARK  Name = 
REMARK  4 active torsions:
REMARK  status: ('A' for Active; 'I' for Inactive)
REMARK    1  A    between atoms: C_4  and  C_7
REMARK    2  A    between atoms: C_9  and  C_11
REMARK    3  A    between atoms: C_11  and  N_12
REMARK    4  A    between atoms: C_13  and  C_14
REMARK                            x       y       z     vdW  Elec       q    Type
REMARK                         _______ _______ _______ _____ _____    ______ ____
ROOT
ATOM      1  C   UNL     1       8.867  -0.809  21.139  0.00  0.00    +0.000 C 
ATOM      2  C   UNL     1       8.928   0.685  21.257  0.00  0.00    +0.000 C 
ATOM      3  C   UNL     1       8.059   0.020  20.184  0.00  0.00    +0.000 C 
ENDROOT
BRANCH   1   7
ATOM      4  C   UNL     1       7.399  -3.851  23.266  0.00  0.00    +0.000 A 
ATOM      5  C   UNL     1       6.400  -3.060  22.710  0.00  0.00    +0.000 A 
ATOM      6  C   UNL     1       6.680  -1.772  21.809  0.00  0.00    +0.000 A 
ATOM      7  C   UNL     1       8.123  -1.447  22.261  0.00  0.00    +0.000 A 
ATOM      8  C   UNL     1       8.801  -1.967  23.344  0.00  0.00    +0.000 A 
ATOM      9  C   UNL     1       8.709  -3.358  23.906  0.00  0.00    +0.000 A 
ENDBRANCH   1   7
BRANCH   2  10
ATOM     10  C   UNL     1       8.182   1.438  22.291  0.00  0.00    +0.000 C 
BRANCH  10  11
ATOM     11  N   UNL     1       8.816   2.676  22.674  0.00  0.00    +0.000 NA
ATOM     12  C   UNL     1       9.775   2.637  23.634  0.00  0.00    +0.000 C 
ATOM     13  O   UNL     1      10.790   3.290  23.536  0.00  0.00    +0.000 OA
BRANCH  12  14
ATOM     14  C   UNL     1       9.689   1.457  24.585  0.00  0.00    +0.000 C 
ATOM     15  C   UNL     1      11.027   0.733  24.532  0.00  0.00    +0.000 C 
ENDBRANCH  12  14
ENDBRANCH  10  11
ENDBRANCH   2  10
TORSDOF 4
ENDMDL
MODEL 6
REMARK VINA RESULT:      -4.9      2.617      4.346
REMARK  Name = 
REMARK  4 active torsions:
REMARK  status: ('A' for Active; 'I' for Inactive)
REMARK    1  A    between atoms: C_4  and  C_7
REMARK    2  A    between atoms: C_9  and  C_11
REMARK    3  A    between atoms: C_11  and  N_12
REMARK    4  A    between atoms: C_13  and  C_14
REMARK                            x       y       z     vdW  Elec       q    Type
REMARK                         _______ _______ _______ _____ _____    ______ ____
ROOT
ATOM      1  C   UNL     1       7.686   0.733  21.222  0.00  0.00    +0.000 C 
ATOM      2  C   UNL     1       6.858  -0.455  20.832  0.00  0.00    +0.000 C 
ATOM      3  C   UNL     1       8.141  -0.110  20.067  0.00  0.00    +0.000 C 
ENDROOT
BRANCH   1   7
ATOM      4  C   UNL     1      10.057   1.776  24.259  0.00  0.00    +0.000 A 
ATOM      5  C   UNL     1      10.582   0.730  23.509  0.00  0.00    +0.000 A 
ATOM      6  C   UNL     1       9.861   0.096  22.233  0.00  0.00    +0.000 A 
ATOM      7  C   UNL     1       8.406   0.539  22.512  0.00  0.00    +0.000 A 
ATOM      8  C   UNL     1       7.894   1.059  23.683  0.00  0.00    +0.000 A 
ATOM      9  C   UNL     1       8.585   1.964  24.666  0.00  0.00    +0.000 A 
ENDBRANCH   1   7
BRANCH   2  10
ATOM     10  C   UNL     1       6.896  -1.736  21.575  0.00  0.00    +0.000 C 
BRANCH  10  11
ATOM     11  N   UNL     1       5.785  -2.607  21.278  0.00  0.00    +0.000 NA
ATOM     12  C   UNL     1       5.776  -3.848  21.830  0.00  0.00    +0.000 C 
ATOM     13  O   UNL     1       4.759  -4.328  22.279  0.00  0.00    +0.000 OA
BRANCH  12  14
ATOM     14  C   UNL     1       7.139  -4.394  22.213  0.00  0.00    +0.000 C 
ATOM     15  C   UNL     1       7.143  -5.881  21.882  0.00  0.00    +0.000 C 
ENDBRANCH  12  14
ENDBRANCH  10  11
ENDBRANCH   2  10
TORSDOF 4
ENDMDL
MODEL 7
REMARK VINA RESULT:      -4.7      3.156      6.614
REMARK  Name = 
REMARK  4 active torsions:
REMARK  status: ('A' for Active; 'I' for Inactive)
REMARK    1  A    between atoms: C_4  and  C_7
REMARK    2  A    between atoms: C_9  and  C_11
REMARK    3  A    between atoms: C_11  and  N_12
REMARK    4  A    between atoms: C_13  and  C_14
REMARK                            x       y       z     vdW  Elec       q    Type
REMARK                         _______ _______ _______ _____ _____    ______ ____
ROOT
ATOM      1  C   UNL     1       7.037  -5.513  22.529  0.00  0.00    +0.000 C 
ATOM      2  C   UNL     1       6.306  -4.614  21.576  0.00  0.00    +0.000 C 
ATOM      3  C   UNL     1       5.616  -5.844  22.177  0.00  0.00    +0.000 C 
ENDROOT
BRANCH   1   7
ATOM      4  C   UNL     1       8.284  -5.360  26.317  0.00  0.00    +0.000 A 
ATOM      5  C   UNL     1       6.903  -5.241  26.207  0.00  0.00    +0.000 A 
ATOM      6  C   UNL     1       6.114  -5.266  24.819  0.00  0.00    +0.000 A 
ATOM      7  C   UNL     1       7.264  -4.882  23.859  0.00  0.00    +0.000 A 
ATOM      8  C   UNL     1       8.506  -4.381  24.193  0.00  0.00    +0.000 A 
ATOM      9  C   UNL     1       9.337  -4.713  25.401  0.00  0.00    +0.000 A 
ENDBRANCH   1   7
BRANCH   2  10
ATOM     10  C   UNL     1       5.733  -3.311  21.984  0.00  0.00    +0.000 C 
BRANCH  10  11
ATOM     11  N   UNL     1       6.287  -2.187  21.268  0.00  0.00    +0.000 NA
ATOM     12  C   UNL     1       7.003  -1.269  21.966  0.00  0.00    +0.000 C 
ATOM     13  O   UNL     1       8.026  -0.799  21.521  0.00  0.00    +0.000 OA
BRANCH  12  14
ATOM     14  C   UNL     1       6.682  -1.192  23.448  0.00  0.00    +0.000 C 
ATOM     15  C   UNL     1       7.961  -0.788  24.169  0.00  0.00    +0.000 C 
ENDBRANCH  12  14
ENDBRANCH  10  11
ENDBRANCH   2  10
TORSDOF 4
ENDMDL
MODEL 8
REMARK VINA RESULT:      -4.7      2.191      3.955
REMARK  Name = 
REMARK  4 active torsions:
REMARK  status: ('A' for Active; 'I' for Inactive)
REMARK    1  A    between atoms: C_4  and  C_7
REMARK    2  A    between atoms: C_9  and  C_11
REMARK    3  A    between atoms: C_11  and  N_12
REMARK    4  A    between atoms: C_13  and  C_14
REMARK                            x       y       z     vdW  Elec       q    Type
REMARK                         _______ _______ _______ _____ _____    ______ ____
ROOT
ATOM      1  C   UNL     1       7.059  -0.647  22.526  0.00  0.00    +0.000 C 
ATOM      2  C   UNL     1       6.893  -2.136  22.452  0.00  0.00    +0.000 C 
ATOM      3  C   UNL     1       6.702  -1.264  21.206  0.00  0.00    +0.000 C 
ENDROOT
BRANCH   1   7
ATOM      4  C   UNL     1      10.039   1.908  23.249  0.00  0.00    +0.000 A 
ATOM      5  C   UNL     1      10.081   1.395  21.958  0.00  0.00    +0.000 A 
ATOM      6  C   UNL     1       9.021   0.350  21.379  0.00  0.00    +0.000 A 
ATOM      7  C   UNL     1       8.479  -0.232  22.705  0.00  0.00    +0.000 A 
ATOM      8  C   UNL     1       9.008  -0.076  23.970  0.00  0.00    +0.000 A 
ATOM      9  C   UNL     1       9.701   1.133  24.534  0.00  0.00    +0.000 A 
ENDBRANCH   1   7
BRANCH   2  10
ATOM     10  C   UNL     1       8.042  -3.068  22.396  0.00  0.00    +0.000 C 
BRANCH  10  11
ATOM     11  N   UNL     1       7.749  -4.377  22.927  0.00  0.00    +0.000 NA
ATOM     12  C   UNL     1       8.044  -4.624  24.228  0.00  0.00    +0.000 C 
ATOM     13  O   UNL     1       7.285  -5.248  24.937  0.00  0.00    +0.000 OA
BRANCH  12  14
ATOM     14  C   UNL     1       9.132  -3.748  24.822  0.00  0.00    +0.000 C 
ATOM     15  C   UNL     1       8.580  -3.147  26.108  0.00  0.00    +0.000 C 
ENDBRANCH  12  14
ENDBRANCH  10  11
ENDBRANCH   2  10
TORSDOF 4
ENDMDL
MODEL 9
REMARK VINA RESULT:      -4.7      1.977      4.699
REMARK  Name = 
REMARK  4 active torsions:
REMARK  status: ('A' for Active; 'I' for Inactive)
REMARK    1  A    between atoms: C_4  and  C_7
REMARK    2  A    between atoms: C_9  and  C_11
REMARK    3  A    between atoms: C_11  and  N_12
REMARK    4  A    between atoms: C_13  and  C_14
REMARK                            x       y       z     vdW  Elec       q    Type
REMARK                         _______ _______ _______ _____ _____    ______ ____
ROOT
ATOM      1  C   UNL     1       7.513  -2.471  24.792  0.00  0.00    +0.000 C 
ATOM      2  C   UNL     1       8.701  -1.583  25.015  0.00  0.00    +0.000 C 
ATOM      3  C   UNL     1       8.559  -2.906  25.777  0.00  0.00    +0.000 C 
ENDROOT
BRANCH   1   7
ATOM      4  C   UNL     1       6.048  -4.682  21.810  0.00  0.00    +0.000 A 
ATOM      5  C   UNL     1       7.159  -5.266  22.409  0.00  0.00    +0.000 A 
ATOM      6  C   UNL     1       7.960  -4.616  23.628  0.00  0.00    +0.000 A 
ATOM      7  C   UNL     1       7.532  -3.139  23.461  0.00  0.00    +0.000 A 
ATOM      8  C   UNL     1       6.893  -2.566  22.381  0.00  0.00    +0.000 A 
ATOM      9  C   UNL     1       5.858  -3.190  21.487  0.00  0.00    +0.000 A 
ENDBRANCH   1   7
BRANCH   2  10
ATOM     10  C   UNL     1       9.842  -1.521  24.074  0.00  0.00    +0.000 C 
BRANCH  10  11
ATOM     11  N   UNL     1      10.432  -0.208  23.967  0.00  0.00    +0.000 NA
ATOM     12  C   UNL     1      10.139   0.541  22.874  0.00  0.00    +0.000 C 
ATOM     13  O   UNL     1       9.914   1.727  22.968  0.00  0.00    +0.000 OA
BRANCH  12  14
ATOM     14  C   UNL     1       9.715  -0.245  21.647  0.00  0.00    +0.000 C 
ATOM     15  C   UNL     1       8.551   0.503  21.009  0.00  0.00    +0.000 C 
ENDBRANCH  12  14
ENDBRANCH  10  11
ENDBRANCH   2  10
TORSDOF 4
ENDMDL
