MODEL 1
REMARK VINA RESULT:      -6.2      0.000      0.000
REMARK  Name = 
REMARK  4 active torsions:
REMARK  status: ('A' for Active; 'I' for Inactive)
REMARK    1  A    between atoms: C_4  and  C_11
REMARK    2  A    between atoms: C_13  and  C_15
REMARK    3  A    between atoms: C_15  and  N_16
REMARK    4  A    between atoms: C_17  and  C_18
REMARK                            x       y       z     vdW  Elec       q    Type
REMARK                         _______ _______ _______ _____ _____    ______ ____
ROOT
ATOM      1  C   UNL     1       8.076  -2.741  22.564  0.00  0.00    +0.000 A 
ATOM      2  C   UNL     1       9.181  -2.379  23.354  0.00  0.00    +0.000 A 
ATOM      3  C   UNL     1       9.601  -0.833  23.543  0.00  0.00    +0.000 A 
ATOM      4  C   UNL     1       8.246  -0.177  23.278  0.00  0.00    +0.000 A 
ATOM      5  C   UNL     1       6.988  -0.772  23.426  0.00  0.00    +0.000 A 
ATOM      6  C   UNL     1       6.096  -0.213  24.348  0.00  0.00    +0.000 A 
ATOM      7  C   UNL     1       5.433  -0.974  25.555  0.00  0.00    +0.000 A 
ATOM      8  C   UNL     1       5.210  -2.315  24.817  0.00  0.00    +0.000 A 
ATOM      9  C   UNL     1       5.982  -2.860  23.806  0.00  0.00    +0.000 A 
ATOM     10  C   UNL     1       6.667  -2.154  22.687  0.00  0.00    +0.000 A 
ENDROOT
BRANCH   4  11
ATOM     11  C   UNL     1       8.376   1.138  22.605  0.00  0.00    +0.000 C 
ATOM     12  C   UNL     1       8.466   1.103  21.112  0.00  0.00    +0.000 C 
ATOM     13  C   UNL     1       9.730   1.288  21.901  0.00  0.00    +0.000 C 
BRANCH  12  14
ATOM     14  C   UNL     1       8.270  -0.210  20.397  0.00  0.00    +0.000 C 
BRANCH  14  15
ATOM     15  N   UNL     1       7.676   0.061  19.091  0.00  0.00    +0.000 NA
ATOM     16  C   UNL     1       6.370  -0.233  18.911  0.00  0.00    +0.000 C 
ATOM     17  O   UNL     1       5.886  -1.232  19.395  0.00  0.00    +0.000 OA
BRANCH  16  18
ATOM     18  C   UNL     1       5.544   0.791  18.176  0.00  0.00    +0.000 C 
ATOM     19  C   UNL     1       4.782   1.611  19.206  0.00  0.00    +0.000 C 
ENDBRANCH  16  18
ENDBRANCH  14  15
ENDBRANCH  12  14
ENDBRANCH   4  11
TORSDOF 4
ENDMDL
MODEL 2
REMARK VINA RESULT:      -6.2      2.042      4.776
REMARK  Name = 
REMARK  4 active torsions:
REMARK  status: ('A' for Active; 'I' for Inactive)
REMARK    1  A    between atoms: C_4  and  C_11
REMARK    2  A    between atoms: C_13  and  C_15
REMARK    3  A    between atoms: C_15  and  N_16
REMARK    4  A    between atoms: C_17  and  C_18
REMARK                            x       y       z     vdW  Elec       q    Type
REMARK                         _______ _______ _______ _____ _____    ______ ____
ROOT
ATOM      1  C   UNL     1       7.460   1.971  22.604  0.00  0.00    +0.000 A 
ATOM      2  C   UNL     1       8.709   2.532  22.284  0.00  0.00    +0.000 A 
ATOM      3  C   UNL     1       9.974   1.600  21.923  0.00  0.00    +0.000 A 
ATOM      4  C   UNL     1       9.231   0.356  21.434  0.00  0.00    +0.000 A 
ATOM      5  C   UNL     1       7.929   0.310  20.923  0.00  0.00    +0.000 A 
ATOM      6  C   UNL     1       7.749  -0.137  19.609  0.00  0.00    +0.000 A 
ATOM      7  C   UNL     1       7.046   0.673  18.458  0.00  0.00    +0.000 A 
ATOM      8  C   UNL     1       5.936   1.299  19.333  0.00  0.00    +0.000 A 
ATOM      9  C   UNL     1       6.011   1.642  20.672  0.00  0.00    +0.000 A 
ATOM     10  C   UNL     1       6.717   0.924  21.770  0.00  0.00    +0.000 A 
ENDROOT
BRANCH   4  11
ATOM     11  C   UNL     1       9.950  -0.898  21.763  0.00  0.00    +0.000 C 
ATOM     12  C   UNL     1       9.219  -1.858  22.647  0.00  0.00    +0.000 C 
ATOM     13  C   UNL     1      10.282  -0.992  23.256  0.00  0.00    +0.000 C 
BRANCH  12  14
ATOM     14  C   UNL     1       7.784  -1.572  23.012  0.00  0.00    +0.000 C 
BRANCH  14  15
ATOM     15  N   UNL     1       7.075  -2.843  23.126  0.00  0.00    +0.000 NA
ATOM     16  C   UNL     1       6.403  -3.298  22.045  0.00  0.00    +0.000 C 
ATOM     17  O   UNL     1       5.792  -2.536  21.328  0.00  0.00    +0.000 OA
BRANCH  16  18
ATOM     18  C   UNL     1       6.546  -4.765  21.731  0.00  0.00    +0.000 C 
ATOM     19  C   UNL     1       7.359  -5.409  22.844  0.00  0.00    +0.000 C 
ENDBRANCH  16  18
ENDBRANCH  14  15
ENDBRANCH  12  14
ENDBRANCH   4  11
TORSDOF 4
ENDMDL
MODEL 3
REMARK VINA RESULT:      -6.1      2.769      5.388
REMARK  Name = 
REMARK  4 active torsions:
REMARK  status: ('A' for Active; 'I' for Inactive)
REMARK    1  A    between atoms: C_4  and  C_11
REMARK    2  A    between atoms: C_13  and  C_15
REMARK    3  A    between atoms: C_15  and  N_16
REMARK    4  A    between atoms: C_17  and  C_18
REMARK                            x       y       z     vdW  Elec       q    Type
REMARK                         _______ _______ _______ _____ _____    ______ ____
ROOT
ATOM      1  C   UNL     1       9.442   1.859  24.487  0.00  0.00    +0.000 A 
ATOM      2  C   UNL     1      10.423   1.881  23.481  0.00  0.00    +0.000 A 
ATOM      3  C   UNL     1      10.048   1.573  21.943  0.00  0.00    +0.000 A 
ATOM      4  C   UNL     1       8.569   1.960  21.970  0.00  0.00    +0.000 A 
ATOM      5  C   UNL     1       7.953   2.840  22.868  0.00  0.00    +0.000 A 
ATOM      6  C   UNL     1       7.346   3.991  22.354  0.00  0.00    +0.000 A 
ATOM      7  C   UNL     1       7.687   5.469  22.773  0.00  0.00    +0.000 A 
ATOM      8  C   UNL     1       7.898   5.182  24.279  0.00  0.00    +0.000 A 
ATOM      9  C   UNL     1       8.371   4.018  24.856  0.00  0.00    +0.000 A 
ATOM     10  C   UNL     1       8.109   2.610  24.443  0.00  0.00    +0.000 A 
ENDROOT
BRANCH   4  11
ATOM     11  C   UNL     1       7.748   1.122  21.063  0.00  0.00    +0.000 C 
ATOM     12  C   UNL     1       7.381  -0.234  21.580  0.00  0.00    +0.000 C 
ATOM     13  C   UNL     1       8.507  -0.125  20.594  0.00  0.00    +0.000 C 
BRANCH  12  14
ATOM     14  C   UNL     1       7.725  -0.593  23.004  0.00  0.00    +0.000 C 
BRANCH  14  15
ATOM     15  N   UNL     1       8.075  -2.010  23.049  0.00  0.00    +0.000 NA
ATOM     16  C   UNL     1       9.293  -2.351  23.526  0.00  0.00    +0.000 C 
ATOM     17  O   UNL     1      10.270  -1.682  23.269  0.00  0.00    +0.000 OA
BRANCH  16  18
ATOM     18  C   UNL     1       9.343  -3.528  24.466  0.00  0.00    +0.000 C 
ATOM     19  C   UNL     1       8.219  -4.482  24.088  0.00  0.00    +0.000 C 
ENDBRANCH  16  18
ENDBRANCH  14  15
ENDBRANCH  12  14
ENDBRANCH   4  11
TORSDOF 4
ENDMDL
MODEL 4
REMARK VINA RESULT:      -6.0      2.801      4.758
REMARK  Name = 
REMARK  4 active torsions:
REMARK  status: ('A' for Active; 'I' for Inactive)
REMARK    1  A    between atoms: C_4  and  C_11
REMARK    2  A    between atoms: C_13  and  C_15
REMARK    3  A    between atoms: C_15  and  N_16
REMARK    4  A    between atoms: C_17  and  C_18
REMARK                            x       y       z     vdW  Elec       q    Type
REMARK                         _______ _______ _______ _____ _____    ______ ____
ROOT
ATOM      1  C   UNL     1      10.380   2.237  22.752  0.00  0.00    +0.000 A 
ATOM      2  C   UNL     1       9.634   1.674  21.703  0.00  0.00    +0.000 A 
ATOM      3  C   UNL     1       9.287   0.099  21.678  0.00  0.00    +0.000 A 
ATOM      4  C   UNL     1       9.371  -0.194  23.176  0.00  0.00    +0.000 A 
ATOM      5  C   UNL     1       9.206   0.727  24.217  0.00  0.00    +0.000 A 
ATOM      6  C   UNL     1       8.160   0.521  25.123  0.00  0.00    +0.000 A 
ATOM      7  C   UNL     1       7.012   1.548  25.441  0.00  0.00    +0.000 A 
ATOM      8  C   UNL     1       7.891   2.820  25.386  0.00  0.00    +0.000 A 
ATOM      9  C   UNL     1       9.013   3.035  24.607  0.00  0.00    +0.000 A 
ATOM     10  C   UNL     1      10.085   2.064  24.245  0.00  0.00    +0.000 A 
ENDROOT
BRANCH   4  11
ATOM     11  C   UNL     1       9.884  -1.557  23.458  0.00  0.00    +0.000 C 
ATOM     12  C   UNL     1       8.916  -2.677  23.242  0.00  0.00    +0.000 C 
ATOM     13  C   UNL     1       9.162  -2.204  24.645  0.00  0.00    +0.000 C 
BRANCH  12  14
ATOM     14  C   UNL     1       7.573  -2.377  22.624  0.00  0.00    +0.000 C 
BRANCH  14  15
ATOM     15  N   UNL     1       6.711  -3.541  22.809  0.00  0.00    +0.000 NA
ATOM     16  C   UNL     1       6.066  -4.034  21.729  0.00  0.00    +0.000 C 
ATOM     17  O   UNL     1       5.602  -3.293  20.891  0.00  0.00    +0.000 OA
BRANCH  16  18
ATOM     18  C   UNL     1       6.054  -5.534  21.578  0.00  0.00    +0.000 C 
ATOM     19  C   UNL     1       7.358  -6.076  22.145  0.00  0.00    +0.000 C 
ENDBRANCH  16  18
ENDBRANCH  14  15
ENDBRANCH  12  14
ENDBRANCH   4  11
TORSDOF 4
ENDMDL
MODEL 5
REMARK VINA RESULT:      -5.9      2.673      4.964
REMARK  Name = 
REMARK  4 active torsions:
REMARK  status: ('A' for Active; 'I' for Inactive)
REMARK    1  A    between atoms: C_4  and  C_11
REMARK    2  A    between atoms: C_13  and  C_15
REMARK    3  A    between atoms: C_15  and  N_16
REMARK    4  A    between atoms: C_17  and  C_18
REMARK                            x       y       z     vdW  Elec       q    Type
REMARK                         _______ _______ _______ _____ _____    ______ ____
ROOT
ATOM      1  C   UNL     1       6.572  -0.990  23.159  0.00  0.00    +0.000 A 
ATOM      2  C   UNL     1       6.545   0.363  23.538  0.00  0.00    +0.000 A 
ATOM      3  C   UNL     1       7.870   1.279  23.458  0.00  0.00    +0.000 A 
ATOM      4  C   UNL     1       8.633   0.511  22.378  0.00  0.00    +0.000 A 
ATOM      5  C   UNL     1       8.081  -0.326  21.402  0.00  0.00    +0.000 A 
ATOM      6  C   UNL     1       8.264   0.014  20.057  0.00  0.00    +0.000 A 
ATOM      7  C   UNL     1       7.115   0.245  19.008  0.00  0.00    +0.000 A 
ATOM      8  C   UNL     1       6.187  -0.886  19.510  0.00  0.00    +0.000 A 
ATOM      9  C   UNL     1       6.057  -1.357  20.804  0.00  0.00    +0.000 A 
ATOM     10  C   UNL     1       7.119  -1.530  21.835  0.00  0.00    +0.000 A 
ENDROOT
BRANCH   4  11
ATOM     11  C   UNL     1      10.101   0.547  22.588  0.00  0.00    +0.000 C 
ATOM     12  C   UNL     1      10.609  -0.201  23.780  0.00  0.00    +0.000 C 
ATOM     13  C   UNL     1      10.475   1.291  23.875  0.00  0.00    +0.000 C 
BRANCH  12  14
ATOM     14  C   UNL     1       9.648  -1.046  24.580  0.00  0.00    +0.000 C 
BRANCH  14  15
ATOM     15  N   UNL     1       9.759  -2.428  24.122  0.00  0.00    +0.000 NA
ATOM     16  C   UNL     1       9.010  -3.366  24.742  0.00  0.00    +0.000 C 
ATOM     17  O   UNL     1       8.836  -3.330  25.940  0.00  0.00    +0.000 OA
BRANCH  16  18
ATOM     18  C   UNL     1       8.330  -4.378  23.856  0.00  0.00    +0.000 C 
ATOM     19  C   UNL     1       6.899  -4.548  24.345  0.00  0.00    +0.000 C 
ENDBRANCH  16  18
ENDBRANCH  14  15
ENDBRANCH  12  14
ENDBRANCH   4  11
TORSDOF 4
ENDMDL
MODEL 6
REMARK VINA RESULT:      -5.9      2.837      5.227
REMARK  Name = 
REMARK  4 active torsions:
REMARK  status: ('A' for Active; 'I' for Inactive)
REMARK    1  A    between atoms: C_4  and  C_11
REMARK    2  A    between atoms: C_13  and  C_15
REMARK    3  A    between atoms: C_15  and  N_16
REMARK    4  A    between atoms: C_17  and  C_18
REMARK                            x       y       z     vdW  Elec       q    Type
REMARK                         _______ _______ _______ _____ _____    ______ ____
ROOT
ATOM      1  C   UNL     1       8.494  -0.683  21.794  0.00  0.00    +0.000 A 
ATOM      2  C   UNL     1       7.206  -0.466  22.313  0.00  0.00    +0.000 A 
ATOM      3  C   UNL     1       6.886  -0.701  23.876  0.00  0.00    +0.000 A 
ATOM      4  C   UNL     1       8.290  -0.502  24.446  0.00  0.00    +0.000 A 
ATOM      5  C   UNL     1       9.333   0.225  23.861  0.00  0.00    +0.000 A 
ATOM      6  C   UNL     1       9.842   1.328  24.556  0.00  0.00    +0.000 A 
ATOM      7  C   UNL     1       9.912   2.801  24.007  0.00  0.00    +0.000 A 
ATOM      8  C   UNL     1      10.284   2.430  22.552  0.00  0.00    +0.000 A 
ATOM      9  C   UNL     1       9.921   1.293  21.853  0.00  0.00    +0.000 A 
ATOM     10  C   UNL     1       9.791  -0.102  22.363  0.00  0.00    +0.000 A 
ENDROOT
BRANCH   4  11
ATOM     11  C   UNL     1       8.550  -1.365  25.624  0.00  0.00    +0.000 C 
ATOM     12  C   UNL     1       8.802  -2.811  25.332  0.00  0.00    +0.000 C 
ATOM     13  C   UNL     1       7.443  -2.407  25.824  0.00  0.00    +0.000 C 
BRANCH  12  14
ATOM     14  C   UNL     1       8.927  -3.258  23.897  0.00  0.00    +0.000 C 
BRANCH  14  15
ATOM     15  N   UNL     1       8.352  -4.595  23.780  0.00  0.00    +0.000 NA
ATOM     16  C   UNL     1       7.306  -4.767  22.942  0.00  0.00    +0.000 C 
ATOM     17  O   UNL     1       6.440  -3.925  22.848  0.00  0.00    +0.000 OA
BRANCH  16  18
ATOM     18  C   UNL     1       7.337  -5.996  22.071  0.00  0.00    +0.000 C 
ATOM     19  C   UNL     1       6.189  -5.900  21.077  0.00  0.00    +0.000 C 
ENDBRANCH  16  18
ENDBRANCH  14  15
ENDBRANCH  12  14
ENDBRANCH   4  11
TORSDOF 4
ENDMDL
MODEL 7
REMARK VINA RESULT:      -5.8      3.006      5.623
REMARK  Name = 
REMARK  4 active torsions:
REMARK  status: ('A' for Active; 'I' for Inactive)
REMARK    1  A    between atoms: C_4  and  C_11
REMARK    2  A    between atoms: C_13  and  C_15
REMARK    3  A    between atoms: C_15  and  N_16
REMARK    4  A    between atoms: C_17  and  C_18
REMARK                            x       y       z     vdW  Elec       q    Type
REMARK                         _______ _______ _______ _____ _____    ______ ____
ROOT
ATOM      1  C   UNL     1       9.842  -1.176  21.869  0.00  0.00    +0.000 A 
ATOM      2  C   UNL     1       8.960  -0.551  20.971  0.00  0.00    +0.000 A 
ATOM      3  C   UNL     1       7.362  -0.639  21.174  0.00  0.00    +0.000 A 
ATOM      4  C   UNL     1       7.320  -0.882  22.683  0.00  0.00    +0.000 A 
ATOM      5  C   UNL     1       8.308  -0.534  23.612  0.00  0.00    +0.000 A 
ATOM      6  C   UNL     1       7.972   0.366  24.629  0.00  0.00    +0.000 A 
ATOM      7  C   UNL     1       8.703   1.728  24.921  0.00  0.00    +0.000 A 
ATOM      8  C   UNL     1      10.136   1.227  24.627  0.00  0.00    +0.000 A 
ATOM      9  C   UNL     1      10.519   0.248  23.728  0.00  0.00    +0.000 A 
ATOM     10  C   UNL     1       9.816  -1.022  23.392  0.00  0.00    +0.000 A 
ENDROOT
BRANCH   4  11
ATOM     11  C   UNL     1       6.191  -1.756  23.084  0.00  0.00    +0.000 C 
ATOM     12  C   UNL     1       6.499  -3.217  23.180  0.00  0.00    +0.000 C 
ATOM     13  C   UNL     1       5.785  -2.716  21.959  0.00  0.00    +0.000 C 
BRANCH  12  14
ATOM     14  C   UNL     1       7.927  -3.678  23.021  0.00  0.00    +0.000 C 
BRANCH  14  15
ATOM     15  N   UNL     1       8.116  -4.879  23.829  0.00  0.00    +0.000 NA
ATOM     16  C   UNL     1       9.037  -4.843  24.818  0.00  0.00    +0.000 C 
ATOM     17  O   UNL     1      10.091  -4.266  24.664  0.00  0.00    +0.000 OA
BRANCH  16  18
ATOM     18  C   UNL     1       8.636  -5.459  26.133  0.00  0.00    +0.000 C 
ATOM     19  C   UNL     1       7.187  -5.086  26.408  0.00  0.00    +0.000 C 
ENDBRANCH  16  18
ENDBRANCH  14  15
ENDBRANCH  12  14
ENDBRANCH   4  11
TORSDOF 4
ENDMDL
MODEL 8
REMARK VINA RESULT:      -5.8      3.106      5.855
REMARK  Name = 
REMARK  4 active torsions:
REMARK  status: ('A' for Active; 'I' for Inactive)
REMARK    1  A    between atoms: C_4  and  C_11
REMARK    2  A    between atoms: C_13  and  C_15
REMARK    3  A    between atoms: C_15  and  N_16
REMARK    4  A    between atoms: C_17  and  C_18
REMARK                            x       y       z     vdW  Elec       q    Type
REMARK                         _______ _______ _______ _____ _____    ______ ____
ROOT
ATOM      1  C   UNL     1       6.192  -1.956  22.959  0.00  0.00    +0.000 A 
ATOM      2  C   UNL     1       6.353  -1.465  24.266  0.00  0.00    +0.000 A 
ATOM      3  C   UNL     1       7.485  -2.062  25.248  0.00  0.00    +0.000 A 
ATOM      4  C   UNL     1       8.467  -2.586  24.199  0.00  0.00    +0.000 A 
ATOM      5  C   UNL     1       8.593  -2.140  22.878  0.00  0.00    +0.000 A 
ATOM      6  C   UNL     1       9.816  -1.590  22.480  0.00  0.00    +0.000 A 
ATOM      7  C   UNL     1      10.015  -0.152  21.873  0.00  0.00    +0.000 A 
ATOM      8  C   UNL     1       8.724  -0.137  21.021  0.00  0.00    +0.000 A 
ATOM      9  C   UNL     1       7.525  -0.770  21.297  0.00  0.00    +0.000 A 
ATOM     10  C   UNL     1       7.309  -2.106  21.923  0.00  0.00    +0.000 A 
ENDROOT
BRANCH   4  11
ATOM     11  C   UNL     1       9.165  -3.816  24.643  0.00  0.00    +0.000 C 
ATOM     12  C   UNL     1       8.509  -5.109  24.274  0.00  0.00    +0.000 C 
ATOM     13  C   UNL     1       8.345  -4.598  25.676  0.00  0.00    +0.000 C 
BRANCH  12  14
ATOM     14  C   UNL     1       7.301  -5.087  23.371  0.00  0.00    +0.000 C 
BRANCH  14  15
ATOM     15  N   UNL     1       6.112  -5.316  24.187  0.00  0.00    +0.000 NA
ATOM     16  C   UNL     1       5.015  -5.827  23.585  0.00  0.00    +0.000 C 
ATOM     17  O   UNL     1       4.701  -5.479  22.469  0.00  0.00    +0.000 OA
BRANCH  16  18
ATOM     18  C   UNL     1       4.283  -6.913  24.330  0.00  0.00    +0.000 C 
ATOM     19  C   UNL     1       4.687  -6.836  25.795  0.00  0.00    +0.000 C 
ENDBRANCH  16  18
ENDBRANCH  14  15
ENDBRANCH  12  14
ENDBRANCH   4  11
TORSDOF 4
ENDMDL
MODEL 9
REMARK VINA RESULT:      -5.8      2.042      3.000
REMARK  Name = 
REMARK  4 active torsions:
REMARK  status: ('A' for Active; 'I' for Inactive)
REMARK    1  A    between atoms: C_4  and  C_11
REMARK    2  A    between atoms: C_13  and  C_15
REMARK    3  A    between atoms: C_15  and  N_16
REMARK    4  A    between atoms: C_17  and  C_18
REMARK                            x       y       z     vdW  Elec       q    Type
REMARK                         _______ _______ _______ _____ _____    ______ ____
ROOT
ATOM      1  C   UNL     1       8.710  -3.738  26.144  0.00  0.00    +0.000 A 
ATOM      2  C   UNL     1       8.181  -2.460  26.396  0.00  0.00    +0.000 A 
ATOM      3  C   UNL     1       8.563  -1.201  25.464  0.00  0.00    +0.000 A 
ATOM      4  C   UNL     1       8.927  -1.947  24.180  0.00  0.00    +0.000 A 
ATOM      5  C   UNL     1       8.485  -3.220  23.802  0.00  0.00    +0.000 A 
ATOM      6  C   UNL     1       7.741  -3.339  22.623  0.00  0.00    +0.000 A 
ATOM      7  C   UNL     1       6.298  -3.957  22.512  0.00  0.00    +0.000 A 
ATOM      8  C   UNL     1       6.515  -5.098  23.535  0.00  0.00    +0.000 A 
ATOM      9  C   UNL     1       7.338  -5.088  24.646  0.00  0.00    +0.000 A 
ATOM     10  C   UNL     1       8.682  -4.460  24.794  0.00  0.00    +0.000 A 
ENDROOT
BRANCH   4  11
ATOM     11  C   UNL     1      10.015  -1.279  23.426  0.00  0.00    +0.000 C 
ATOM     12  C   UNL     1       9.614  -0.080  22.625  0.00  0.00    +0.000 C 
ATOM     13  C   UNL     1       9.809  -1.386  21.911  0.00  0.00    +0.000 C 
BRANCH  12  14
ATOM     14  C   UNL     1       8.207   0.449  22.752  0.00  0.00    +0.000 C 
BRANCH  14  15
ATOM     15  N   UNL     1       7.426  -0.045  21.622  0.00  0.00    +0.000 NA
ATOM     16  C   UNL     1       7.000   0.849  20.702  0.00  0.00    +0.000 C 
ATOM     17  O   UNL     1       6.612   1.947  21.037  0.00  0.00    +0.000 OA
BRANCH  16  18
ATOM     18  C   UNL     1       7.135   0.445  19.257  0.00  0.00    +0.000 C 
ATOM     19  C   UNL     1       6.037  -0.562  18.943  0.00  0.00    +0.000 C 
ENDBRANCH  16  18
ENDBRANCH  14  15
ENDBRANCH  12  14
ENDBRANCH   4  11
TORSDOF 4
ENDMDL
