MODEL 1
REMARK VINA RESULT:      -5.6      0.000      0.000
REMARK  Name = 
REMARK  4 active torsions:
REMARK  status: ('A' for Active; 'I' for Inactive)
REMARK    1  A    between atoms: C_2  and  C_3
REMARK    2  A    between atoms: N_5  and  C_6
REMARK    3  A    between atoms: C_6  and  C_7
REMARK    4  A    between atoms: C_7  and  C_8
REMARK                            x       y       z     vdW  Elec       q    Type
REMARK                         _______ _______ _______ _____ _____    ______ ____
ROOT
ATOM      1  C   UNL     1       9.000  -1.691  23.462  0.00  0.00    +0.000 C 
ATOM      2  C   UNL     1       8.370  -0.911  24.680  0.00  0.00    +0.000 C 
ATOM      3  C   UNL     1       9.570  -0.177  25.359  0.00  0.00    +0.000 C 
ATOM      4  C   UNL     1      10.499   0.126  24.085  0.00  0.00    +0.000 A 
ATOM      5  C   UNL     1      10.106  -0.655  22.974  0.00  0.00    +0.000 A 
ATOM      6  C   UNL     1       9.587  -0.165  21.572  0.00  0.00    +0.000 A 
ATOM      7  C   UNL     1       9.778   1.338  21.761  0.00  0.00    +0.000 A 
ATOM      8  C   UNL     1      10.073   2.072  22.875  0.00  0.00    +0.000 A 
ATOM      9  C   UNL     1      10.776   1.628  24.117  0.00  0.00    +0.000 A 
ENDROOT
BRANCH   1  10
ATOM     10  C   UNL     1       9.773  -2.852  24.116  0.00  0.00    +0.000 C 
BRANCH  10  11
ATOM     11  C   UNL     1       8.679  -3.816  24.613  0.00  0.00    +0.000 C 
BRANCH  11  14
ATOM     12  C   UNL     1       7.276  -5.200  23.191  0.00  0.00    +0.000 C 
ATOM     13  O   UNL     1       7.194  -6.016  22.285  0.00  0.00    +0.000 OA
ATOM     14  N   UNL     1       8.477  -4.896  23.715  0.00  0.00    +0.000 NA
BRANCH  12  16
ATOM     15  C   UNL     1       6.077  -3.476  21.945  0.00  0.00    +0.000 C 
ATOM     16  C   UNL     1       6.218  -4.113  23.328  0.00  0.00    +0.000 C 
ENDBRANCH  12  16
ENDBRANCH  11  14
ENDBRANCH  10  11
ENDBRANCH   1  10
TORSDOF 4
ENDMDL
MODEL 2
REMARK VINA RESULT:      -5.5      1.895      2.128
REMARK  Name = 
REMARK  4 active torsions:
REMARK  status: ('A' for Active; 'I' for Inactive)
REMARK    1  A    between atoms: C_2  and  C_3
REMARK    2  A    between atoms: N_5  and  C_6
REMARK    3  A    between atoms: C_6  and  C_7
REMARK    4  A    between atoms: C_7  and  C_8
REMARK                            x       y       z     vdW  Elec       q    Type
REMARK                         _______ _______ _______ _____ _____    ______ ____
ROOT
ATOM      1  C   UNL     1       8.948  -2.012  23.573  0.00  0.00    +0.000 C 
ATOM      2  C   UNL     1       8.246  -1.193  24.723  0.00  0.00    +0.000 C 
ATOM      3  C   UNL     1       9.403  -0.432  25.446  0.00  0.00    +0.000 C 
ATOM      4  C   UNL     1      10.406  -0.171  24.220  0.00  0.00    +0.000 A 
ATOM      5  C   UNL     1      10.080  -0.991  23.116  0.00  0.00    +0.000 A 
ATOM      6  C   UNL     1       9.645  -0.552  21.669  0.00  0.00    +0.000 A 
ATOM      7  C   UNL     1       9.824   0.957  21.816  0.00  0.00    +0.000 A 
ATOM      8  C   UNL     1      10.051   1.730  22.919  0.00  0.00    +0.000 A 
ATOM      9  C   UNL     1      10.680   1.332  24.215  0.00  0.00    +0.000 A 
ENDROOT
BRANCH   1  10
ATOM     10  C   UNL     1       9.682  -3.148  24.312  0.00  0.00    +0.000 C 
BRANCH  10  11
ATOM     11  C   UNL     1       8.637  -4.274  24.429  0.00  0.00    +0.000 C 
BRANCH  11  14
ATOM     12  C   UNL     1       7.654  -4.974  26.539  0.00  0.00    +0.000 C 
ATOM     13  O   UNL     1       7.701  -5.701  27.520  0.00  0.00    +0.000 OA
ATOM     14  N   UNL     1       8.696  -4.923  25.690  0.00  0.00    +0.000 NA
BRANCH  12  16
ATOM     15  C   UNL     1       5.547  -5.930  25.758  0.00  0.00    +0.000 C 
ATOM     16  C   UNL     1       6.305  -4.613  25.928  0.00  0.00    +0.000 C 
ENDBRANCH  12  16
ENDBRANCH  11  14
ENDBRANCH  10  11
ENDBRANCH   1  10
TORSDOF 4
ENDMDL
MODEL 3
REMARK VINA RESULT:      -5.4      1.434      2.479
REMARK  Name = 
REMARK  4 active torsions:
REMARK  status: ('A' for Active; 'I' for Inactive)
REMARK    1  A    between atoms: C_2  and  C_3
REMARK    2  A    between atoms: N_5  and  C_6
REMARK    3  A    between atoms: C_6  and  C_7
REMARK    4  A    between atoms: C_7  and  C_8
REMARK                            x       y       z     vdW  Elec       q    Type
REMARK                         _______ _______ _______ _____ _____    ______ ____
ROOT
ATOM      1  C   UNL     1       8.803  -1.322  22.577  0.00  0.00    +0.000 C 
ATOM      2  C   UNL     1       9.249  -0.625  21.234  0.00  0.00    +0.000 C 
ATOM      3  C   UNL     1       8.586   0.788  21.268  0.00  0.00    +0.000 C 
ATOM      4  C   UNL     1       8.598   1.091  22.845  0.00  0.00    +0.000 A 
ATOM      5  C   UNL     1       8.831  -0.091  23.585  0.00  0.00    +0.000 A 
ATOM      6  C   UNL     1      10.024  -0.414  24.558  0.00  0.00    +0.000 A 
ATOM      7  C   UNL     1      10.717   0.946  24.541  0.00  0.00    +0.000 A 
ATOM      8  C   UNL     1      10.526   2.041  23.747  0.00  0.00    +0.000 A 
ATOM      9  C   UNL     1       9.291   2.442  23.006  0.00  0.00    +0.000 A 
ENDROOT
BRANCH   1  10
ATOM     10  C   UNL     1       7.313  -1.649  22.355  0.00  0.00    +0.000 C 
BRANCH  10  11
ATOM     11  C   UNL     1       6.945  -2.590  23.519  0.00  0.00    +0.000 C 
BRANCH  11  14
ATOM     12  C   UNL     1       7.902  -4.790  23.903  0.00  0.00    +0.000 C 
ATOM     13  O   UNL     1       8.898  -5.488  24.020  0.00  0.00    +0.000 OA
ATOM     14  N   UNL     1       8.019  -3.451  23.863  0.00  0.00    +0.000 NA
BRANCH  12  16
ATOM     15  C   UNL     1       7.132  -5.887  21.860  0.00  0.00    +0.000 C 
ATOM     16  C   UNL     1       6.663  -5.350  23.214  0.00  0.00    +0.000 C 
ENDBRANCH  12  16
ENDBRANCH  11  14
ENDBRANCH  10  11
ENDBRANCH   1  10
TORSDOF 4
ENDMDL
MODEL 4
REMARK VINA RESULT:      -5.2      1.189      1.841
REMARK  Name = 
REMARK  4 active torsions:
REMARK  status: ('A' for Active; 'I' for Inactive)
REMARK    1  A    between atoms: C_2  and  C_3
REMARK    2  A    between atoms: N_5  and  C_6
REMARK    3  A    between atoms: C_6  and  C_7
REMARK    4  A    between atoms: C_7  and  C_8
REMARK                            x       y       z     vdW  Elec       q    Type
REMARK                         _______ _______ _______ _____ _____    ______ ____
ROOT
ATOM      1  C   UNL     1       8.191  -0.666  22.421  0.00  0.00    +0.000 C 
ATOM      2  C   UNL     1       7.832  -0.629  23.956  0.00  0.00    +0.000 C 
ATOM      3  C   UNL     1       9.173  -0.933  24.697  0.00  0.00    +0.000 C 
ATOM      4  C   UNL     1      10.232  -0.267  23.691  0.00  0.00    +0.000 A 
ATOM      5  C   UNL     1       9.644  -0.014  22.431  0.00  0.00    +0.000 A 
ATOM      6  C   UNL     1       9.453   1.367  21.702  0.00  0.00    +0.000 A 
ATOM      7  C   UNL     1      10.200   2.260  22.689  0.00  0.00    +0.000 A 
ATOM      8  C   UNL     1      10.679   2.007  23.942  0.00  0.00    +0.000 A 
ATOM      9  C   UNL     1      11.068   0.692  24.537  0.00  0.00    +0.000 A 
ENDROOT
BRANCH   1  10
ATOM     10  C   UNL     1       8.406  -2.163  22.120  0.00  0.00    +0.000 C 
BRANCH  10  11
ATOM     11  C   UNL     1       7.013  -2.797  22.294  0.00  0.00    +0.000 C 
BRANCH  11  14
ATOM     12  C   UNL     1       7.257  -5.187  22.662  0.00  0.00    +0.000 C 
ATOM     13  O   UNL     1       7.038  -6.328  22.283  0.00  0.00    +0.000 OA
ATOM     14  N   UNL     1       6.987  -4.146  21.855  0.00  0.00    +0.000 NA
BRANCH  12  16
ATOM     15  C   UNL     1       8.665  -5.109  24.656  0.00  0.00    +0.000 C 
ATOM     16  C   UNL     1       7.241  -4.868  24.152  0.00  0.00    +0.000 C 
ENDBRANCH  12  16
ENDBRANCH  11  14
ENDBRANCH  10  11
ENDBRANCH   1  10
TORSDOF 4
ENDMDL
MODEL 5
REMARK VINA RESULT:      -5.2      3.326      5.167
REMARK  Name = 
REMARK  4 active torsions:
REMARK  status: ('A' for Active; 'I' for Inactive)
REMARK    1  A    between atoms: C_2  and  C_3
REMARK    2  A    between atoms: N_5  and  C_6
REMARK    3  A    between atoms: C_6  and  C_7
REMARK    4  A    between atoms: C_7  and  C_8
REMARK                            x       y       z     vdW  Elec       q    Type
REMARK                         _______ _______ _______ _____ _____    ______ ____
ROOT
ATOM      1  C   UNL     1       8.205  -0.939  22.934  0.00  0.00    +0.000 C 
ATOM      2  C   UNL     1       7.077  -2.015  22.701  0.00  0.00    +0.000 C 
ATOM      3  C   UNL     1       7.799  -3.396  22.817  0.00  0.00    +0.000 C 
ATOM      4  C   UNL     1       8.933  -3.054  23.900  0.00  0.00    +0.000 A 
ATOM      5  C   UNL     1       9.088  -1.656  24.048  0.00  0.00    +0.000 A 
ATOM      6  C   UNL     1       8.872  -0.781  25.337  0.00  0.00    +0.000 A 
ATOM      7  C   UNL     1       8.597  -1.900  26.338  0.00  0.00    +0.000 A 
ATOM      8  C   UNL     1       8.362  -3.232  26.154  0.00  0.00    +0.000 A 
ATOM      9  C   UNL     1       8.781  -4.096  25.007  0.00  0.00    +0.000 A 
ENDROOT
BRANCH   1  10
ATOM     10  C   UNL     1       9.044  -0.985  21.641  0.00  0.00    +0.000 C 
BRANCH  10  11
ATOM     11  C   UNL     1       8.573   0.236  20.829  0.00  0.00    +0.000 C 
BRANCH  11  14
ATOM     12  C   UNL     1       6.869   0.149  19.099  0.00  0.00    +0.000 C 
ATOM     13  O   UNL     1       6.585  -0.023  17.923  0.00  0.00    +0.000 OA
ATOM     14  N   UNL     1       8.107  -0.132  19.540  0.00  0.00    +0.000 NA
BRANCH  12  16
ATOM     15  C   UNL     1       4.829   1.491  19.142  0.00  0.00    +0.000 C 
ATOM     16  C   UNL     1       6.114   1.192  19.914  0.00  0.00    +0.000 C 
ENDBRANCH  12  16
ENDBRANCH  11  14
ENDBRANCH  10  11
ENDBRANCH   1  10
TORSDOF 4
ENDMDL
MODEL 6
REMARK VINA RESULT:      -5.2      3.186      5.846
REMARK  Name = 
REMARK  4 active torsions:
REMARK  status: ('A' for Active; 'I' for Inactive)
REMARK    1  A    between atoms: C_2  and  C_3
REMARK    2  A    between atoms: N_5  and  C_6
REMARK    3  A    between atoms: C_6  and  C_7
REMARK    4  A    between atoms: C_7  and  C_8
REMARK                            x       y       z     vdW  Elec       q    Type
REMARK                         _______ _______ _______ _____ _____    ______ ____
ROOT
ATOM      1  C   UNL     1       7.600  -1.229  22.672  0.00  0.00    +0.000 C 
ATOM      2  C   UNL     1       6.271  -1.689  23.386  0.00  0.00    +0.000 C 
ATOM      3  C   UNL     1       6.012  -3.141  22.871  0.00  0.00    +0.000 C 
ATOM      4  C   UNL     1       7.516  -3.664  22.672  0.00  0.00    +0.000 A 
ATOM      5  C   UNL     1       8.431  -2.586  22.669  0.00  0.00    +0.000 A 
ATOM      6  C   UNL     1       9.622  -2.314  23.660  0.00  0.00    +0.000 A 
ATOM      7  C   UNL     1       9.544  -3.598  24.481  0.00  0.00    +0.000 A 
ATOM      8  C   UNL     1       8.595  -4.580  24.525  0.00  0.00    +0.000 A 
ATOM      9  C   UNL     1       7.614  -4.966  23.464  0.00  0.00    +0.000 A 
ENDROOT
BRANCH   1  10
ATOM     10  C   UNL     1       7.179  -0.992  21.208  0.00  0.00    +0.000 C 
BRANCH  10  11
ATOM     11  C   UNL     1       8.109   0.133  20.715  0.00  0.00    +0.000 C 
BRANCH  11  14
ATOM     12  C   UNL     1       8.506   2.142  22.022  0.00  0.00    +0.000 C 
ATOM     13  O   UNL     1       8.203   3.299  22.275  0.00  0.00    +0.000 OA
ATOM     14  N   UNL     1       7.721   1.400  21.221  0.00  0.00    +0.000 NA
BRANCH  12  16
ATOM     15  C   UNL     1      10.269   1.369  23.525  0.00  0.00    +0.000 C 
ATOM     16  C   UNL     1       9.969   1.716  22.066  0.00  0.00    +0.000 C 
ENDBRANCH  12  16
ENDBRANCH  11  14
ENDBRANCH  10  11
ENDBRANCH   1  10
TORSDOF 4
ENDMDL
MODEL 7
REMARK VINA RESULT:      -5.1      1.508      1.845
REMARK  Name = 
REMARK  4 active torsions:
REMARK  status: ('A' for Active; 'I' for Inactive)
REMARK    1  A    between atoms: C_2  and  C_3
REMARK    2  A    between atoms: N_5  and  C_6
REMARK    3  A    between atoms: C_6  and  C_7
REMARK    4  A    between atoms: C_7  and  C_8
REMARK                            x       y       z     vdW  Elec       q    Type
REMARK                         _______ _______ _______ _____ _____    ______ ____
ROOT
ATOM      1  C   UNL     1       8.195  -0.934  24.643  0.00  0.00    +0.000 C 
ATOM      2  C   UNL     1       7.438   0.439  24.812  0.00  0.00    +0.000 C 
ATOM      3  C   UNL     1       8.555   1.488  25.114  0.00  0.00    +0.000 C 
ATOM      4  C   UNL     1       9.776   0.882  24.266  0.00  0.00    +0.000 A 
ATOM      5  C   UNL     1       9.524  -0.462  23.904  0.00  0.00    +0.000 A 
ATOM      6  C   UNL     1       9.404  -1.078  22.461  0.00  0.00    +0.000 A 
ATOM      7  C   UNL     1       9.773   0.159  21.645  0.00  0.00    +0.000 A 
ATOM      8  C   UNL     1       9.922   1.466  22.014  0.00  0.00    +0.000 A 
ATOM      9  C   UNL     1      10.261   2.014  23.363  0.00  0.00    +0.000 A 
ENDROOT
BRANCH   1  10
ATOM     10  C   UNL     1       8.624  -1.308  26.076  0.00  0.00    +0.000 C 
BRANCH  10  11
ATOM     11  C   UNL     1       8.048  -2.719  26.297  0.00  0.00    +0.000 C 
BRANCH  11  14
ATOM     12  C   UNL     1       8.506  -4.717  24.991  0.00  0.00    +0.000 C 
ATOM     13  O   UNL     1       9.326  -5.444  24.451  0.00  0.00    +0.000 OA
ATOM     14  N   UNL     1       8.916  -3.729  25.805  0.00  0.00    +0.000 NA
BRANCH  12  16
ATOM     15  C   UNL     1       7.423  -4.251  22.852  0.00  0.00    +0.000 C 
ATOM     16  C   UNL     1       7.148  -4.492  24.337  0.00  0.00    +0.000 C 
ENDBRANCH  12  16
ENDBRANCH  11  14
ENDBRANCH  10  11
ENDBRANCH   1  10
TORSDOF 4
ENDMDL
MODEL 8
REMARK VINA RESULT:      -5.0      2.838      5.938
REMARK  Name = 
REMARK  4 active torsions:
REMARK  status: ('A' for Active; 'I' for Inactive)
REMARK    1  A    between atoms: C_2  and  C_3
REMARK    2  A    between atoms: N_5  and  C_6
REMARK    3  A    between atoms: C_6  and  C_7
REMARK    4  A    between atoms: C_7  and  C_8
REMARK                            x       y       z     vdW  Elec       q    Type
REMARK                         _______ _______ _______ _____ _____    ______ ____
ROOT
ATOM      1  C   UNL     1       8.439  -2.444  23.963  0.00  0.00    +0.000 C 
ATOM      2  C   UNL     1       7.006  -1.916  24.356  0.00  0.00    +0.000 C 
ATOM      3  C   UNL     1       6.009  -2.971  23.778  0.00  0.00    +0.000 C 
ATOM      4  C   UNL     1       6.878  -4.314  23.914  0.00  0.00    +0.000 A 
ATOM      5  C   UNL     1       8.243  -4.015  24.129  0.00  0.00    +0.000 A 
ATOM      6  C   UNL     1       9.141  -4.389  25.365  0.00  0.00    +0.000 A 
ATOM      7  C   UNL     1       8.140  -5.251  26.131  0.00  0.00    +0.000 A 
ATOM      8  C   UNL     1       6.802  -5.448  25.949  0.00  0.00    +0.000 A 
ATOM      9  C   UNL     1       6.007  -5.298  24.691  0.00  0.00    +0.000 A 
ENDROOT
BRANCH   1  10
ATOM     10  C   UNL     1       8.531  -2.191  22.445  0.00  0.00    +0.000 C 
BRANCH  10  11
ATOM     11  C   UNL     1       9.936  -1.592  22.237  0.00  0.00    +0.000 C 
BRANCH  11  14
ATOM     12  C   UNL     1      10.020   0.830  22.414  0.00  0.00    +0.000 C 
ATOM     13  O   UNL     1      10.149   1.912  21.860  0.00  0.00    +0.000 OA
ATOM     14  N   UNL     1       9.878  -0.288  21.680  0.00  0.00    +0.000 NA
BRANCH  12  16
ATOM     15  C   UNL     1       9.515   1.054  24.793  0.00  0.00    +0.000 C 
ATOM     16  C   UNL     1      10.601   0.619  23.807  0.00  0.00    +0.000 C 
ENDBRANCH  12  16
ENDBRANCH  11  14
ENDBRANCH  10  11
ENDBRANCH   1  10
TORSDOF 4
ENDMDL
MODEL 9
REMARK VINA RESULT:      -5.0      2.583      5.545
REMARK  Name = 
REMARK  4 active torsions:
REMARK  status: ('A' for Active; 'I' for Inactive)
REMARK    1  A    between atoms: C_2  and  C_3
REMARK    2  A    between atoms: N_5  and  C_6
REMARK    3  A    between atoms: C_6  and  C_7
REMARK    4  A    between atoms: C_7  and  C_8
REMARK                            x       y       z     vdW  Elec       q    Type
REMARK                         _______ _______ _______ _____ _____    ______ ____
ROOT
ATOM      1  C   UNL     1       8.401  -2.783  24.156  0.00  0.00    +0.000 C 
ATOM      2  C   UNL     1       8.029  -4.226  23.640  0.00  0.00    +0.000 C 
ATOM      3  C   UNL     1       8.643  -5.206  24.691  0.00  0.00    +0.000 C 
ATOM      4  C   UNL     1       8.509  -4.333  26.032  0.00  0.00    +0.000 A 
ATOM      5  C   UNL     1       8.262  -2.974  25.730  0.00  0.00    +0.000 A 
ATOM      6  C   UNL     1       7.014  -2.099  26.119  0.00  0.00    +0.000 A 
ATOM      7  C   UNL     1       6.280  -3.111  26.995  0.00  0.00    +0.000 A 
ATOM      8  C   UNL     1       6.492  -4.445  27.196  0.00  0.00    +0.000 A 
ATOM      9  C   UNL     1       7.763  -5.215  27.032  0.00  0.00    +0.000 A 
ENDROOT
BRANCH   1  10
ATOM     10  C   UNL     1       9.913  -2.661  23.881  0.00  0.00    +0.000 C 
BRANCH  10  11
ATOM     11  C   UNL     1      10.065  -1.324  23.132  0.00  0.00    +0.000 C 
BRANCH  11  14
ATOM     12  C   UNL     1       8.970  -0.169  21.295  0.00  0.00    +0.000 C 
ATOM     13  O   UNL     1       8.495  -0.214  20.170  0.00  0.00    +0.000 OA
ATOM     14  N   UNL     1       9.318  -1.304  21.925  0.00  0.00    +0.000 NA
BRANCH  12  16
ATOM     15  C   UNL     1       8.656   2.103  22.136  0.00  0.00    +0.000 C 
ATOM     16  C   UNL     1       9.722   1.077  21.748  0.00  0.00    +0.000 C 
ENDBRANCH  12  16
ENDBRANCH  11  14
ENDBRANCH  10  11
ENDBRANCH   1  10
TORSDOF 4
ENDMDL
