MODEL 1
REMARK VINA RESULT:      -6.8      0.000      0.000
REMARK  Name = 
REMARK  6 active torsions:
REMARK  status: ('A' for Active; 'I' for Inactive)
REMARK    1  A    between atoms: C_2  and  C_3
REMARK    2  A    between atoms: C_3  and  N_4
REMARK    3  A    between atoms: N_4  and  C_5
REMARK    4  A    between atoms: C_6  and  C_7
REMARK    5  A    between atoms: C_7  and  C_8
REMARK    6  A    between atoms: C_19  and  C_20
REMARK                            x       y       z     vdW  Elec       q    Type
REMARK                         _______ _______ _______ _____ _____    ______ ____
ROOT
ATOM      1  C   UNL     1       8.437  -0.432  21.339  0.00  0.00    +0.000 C 
ATOM      2  C   UNL     1       8.076  -0.295  22.926  0.00  0.00    +0.000 C 
ATOM      3  C   UNL     1       8.395   0.721  23.817  0.00  0.00    +0.000 C 
ATOM      4  C   UNL     1       9.811   1.479  23.807  0.00  0.00    +0.000 C 
ATOM      5  C   UNL     1       9.937   1.383  22.232  0.00  0.00    +0.000 C 
ATOM      6  N   UNL     1       9.792   0.251  21.517  0.00  0.00    +0.000 NA
ENDROOT
BRANCH   4   7
ATOM      7  C   UNL     1       9.446   2.900  24.061  0.00  0.00    +0.000 C 
ATOM      8  N   UNL     1       9.101   3.966  24.369  0.00  0.00    +0.000 NA
ENDBRANCH   4   7
BRANCH   1   9
ATOM      9  N   UNL     1       7.566   0.435  20.663  0.00  0.00    +0.000 NA
BRANCH   9  10
ATOM     10  C   UNL     1       7.511   0.164  19.270  0.00  0.00    +0.000 C 
BRANCH  10  12
ATOM     11  C   UNL     1       5.240   1.129  18.928  0.00  0.00    +0.000 C 
ATOM     12  C   UNL     1       6.084  -0.128  18.834  0.00  0.00    +0.000 C 
ENDBRANCH  10  12
ENDBRANCH   9  10
ENDBRANCH   1   9
BRANCH   2  13
ATOM     13  C   UNL     1       7.447  -1.571  23.409  0.00  0.00    +0.000 C 
BRANCH  13  14
ATOM     14  C   UNL     1       8.020  -2.806  23.117  0.00  0.00    +0.000 C 
ATOM     15  C   UNL     1       8.917  -3.505  24.082  0.00  0.00    +0.000 C 
ATOM     16  C   UNL     1       8.156  -4.976  24.227  0.00  0.00    +0.000 C 
ATOM     17  N   UNL     1       7.216  -5.039  25.138  0.00  0.00    +0.000 NA
ATOM     18  C   UNL     1       7.604  -5.285  26.304  0.00  0.00    +0.000 C 
ATOM     19  C   UNL     1       8.689  -4.213  26.532  0.00  0.00    +0.000 C 
ATOM     20  C   UNL     1       8.690  -3.051  25.558  0.00  0.00    +0.000 C 
ATOM     21  N   UNL     1       7.321  -5.080  23.126  0.00  0.00    +0.000 NA
ATOM     22  C   UNL     1       7.291  -3.853  22.294  0.00  0.00    +0.000 C 
ATOM     23  C   UNL     1       5.907  -3.468  21.932  0.00  0.00    +0.000 C 
ENDBRANCH  13  14
ENDBRANCH   2  13
TORSDOF 6
ENDMDL
MODEL 2
REMARK VINA RESULT:      -6.7      1.577      4.463
REMARK  Name = 
REMARK  6 active torsions:
REMARK  status: ('A' for Active; 'I' for Inactive)
REMARK    1  A    between atoms: C_2  and  C_3
REMARK    2  A    between atoms: C_3  and  N_4
REMARK    3  A    between atoms: N_4  and  C_5
REMARK    4  A    between atoms: C_6  and  C_7
REMARK    5  A    between atoms: C_7  and  C_8
REMARK    6  A    between atoms: C_19  and  C_20
REMARK                            x       y       z     vdW  Elec       q    Type
REMARK                         _______ _______ _______ _____ _____    ______ ____
ROOT
ATOM      1  C   UNL     1       8.080   0.850  22.126  0.00  0.00    +0.000 C 
ATOM      2  C   UNL     1       7.888  -0.393  21.084  0.00  0.00    +0.000 C 
ATOM      3  C   UNL     1       7.241  -0.419  19.856  0.00  0.00    +0.000 C 
ATOM      4  C   UNL     1       5.871   0.371  19.573  0.00  0.00    +0.000 C 
ATOM      5  C   UNL     1       6.279   1.572  20.521  0.00  0.00    +0.000 C 
ATOM      6  N   UNL     1       6.709   1.436  21.790  0.00  0.00    +0.000 NA
ENDROOT
BRANCH   4   7
ATOM      7  C   UNL     1       6.058   0.909  18.197  0.00  0.00    +0.000 C 
ATOM      8  N   UNL     1       6.326   1.369  17.163  0.00  0.00    +0.000 NA
ENDBRANCH   4   7
BRANCH   1   9
ATOM      9  N   UNL     1       9.081   1.667  21.580  0.00  0.00    +0.000 NA
BRANCH   9  10
ATOM     10  C   UNL     1      10.071   2.018  22.537  0.00  0.00    +0.000 C 
BRANCH  10  12
ATOM     11  C   UNL     1      10.877   0.831  24.574  0.00  0.00    +0.000 C 
ATOM     12  C   UNL     1       9.690   1.510  23.918  0.00  0.00    +0.000 C 
ENDBRANCH  10  12
ENDBRANCH   9  10
ENDBRANCH   1   9
BRANCH   2  13
ATOM     13  C   UNL     1       8.384  -1.661  21.718  0.00  0.00    +0.000 C 
BRANCH  13  14
ATOM     14  C   UNL     1       7.777  -2.174  22.862  0.00  0.00    +0.000 C 
ATOM     15  C   UNL     1       6.538  -3.001  22.790  0.00  0.00    +0.000 C 
ATOM     16  C   UNL     1       7.015  -4.374  23.598  0.00  0.00    +0.000 C 
ATOM     17  N   UNL     1       7.603  -5.286  22.863  0.00  0.00    +0.000 NA
ATOM     18  C   UNL     1       6.838  -6.077  22.264  0.00  0.00    +0.000 C 
ATOM     19  C   UNL     1       5.886  -5.123  21.514  0.00  0.00    +0.000 C 
ATOM     20  C   UNL     1       6.345  -3.683  21.399  0.00  0.00    +0.000 C 
ATOM     21  N   UNL     1       8.135  -4.011  24.330  0.00  0.00    +0.000 NA
ATOM     22  C   UNL     1       8.585  -2.624  24.066  0.00  0.00    +0.000 C 
ATOM     23  C   UNL     1      10.051  -2.552  23.859  0.00  0.00    +0.000 C 
ENDBRANCH  13  14
ENDBRANCH   2  13
TORSDOF 6
ENDMDL
MODEL 3
REMARK VINA RESULT:      -6.4      1.610      6.562
REMARK  Name = 
REMARK  6 active torsions:
REMARK  status: ('A' for Active; 'I' for Inactive)
REMARK    1  A    between atoms: C_2  and  C_3
REMARK    2  A    between atoms: C_3  and  N_4
REMARK    3  A    between atoms: N_4  and  C_5
REMARK    4  A    between atoms: C_6  and  C_7
REMARK    5  A    between atoms: C_7  and  C_8
REMARK    6  A    between atoms: C_19  and  C_20
REMARK                            x       y       z     vdW  Elec       q    Type
REMARK                         _______ _______ _______ _____ _____    ______ ____
ROOT
ATOM      1  C   UNL     1       8.703  -3.128  24.158  0.00  0.00    +0.000 C 
ATOM      2  C   UNL     1       7.865  -2.777  22.800  0.00  0.00    +0.000 C 
ATOM      3  C   UNL     1       6.877  -3.513  22.161  0.00  0.00    +0.000 C 
ATOM      4  C   UNL     1       6.928  -5.113  22.027  0.00  0.00    +0.000 C 
ATOM      5  C   UNL     1       7.619  -5.285  23.441  0.00  0.00    +0.000 C 
ATOM      6  N   UNL     1       8.720  -4.624  23.844  0.00  0.00    +0.000 NA
ENDROOT
BRANCH   4   7
ATOM      7  C   UNL     1       5.516  -5.525  22.255  0.00  0.00    +0.000 C 
ATOM      8  N   UNL     1       4.384  -5.717  22.438  0.00  0.00    +0.000 NA
ENDBRANCH   4   7
BRANCH   1   9
ATOM      9  N   UNL     1       7.830  -2.889  25.229  0.00  0.00    +0.000 NA
BRANCH   9  10
ATOM     10  C   UNL     1       8.523  -2.566  26.427  0.00  0.00    +0.000 C 
BRANCH  10  12
ATOM     11  C   UNL     1       6.786  -0.784  26.533  0.00  0.00    +0.000 C 
ATOM     12  C   UNL     1       8.226  -1.137  26.852  0.00  0.00    +0.000 C 
ENDBRANCH  10  12
ENDBRANCH   9  10
ENDBRANCH   1   9
BRANCH   2  13
ATOM     13  C   UNL     1       8.437  -1.542  22.164  0.00  0.00    +0.000 C 
BRANCH  13  14
ATOM     14  C   UNL     1       7.825  -0.302  22.331  0.00  0.00    +0.000 C 
ATOM     15  C   UNL     1       8.194   0.613  23.449  0.00  0.00    +0.000 C 
ATOM     16  C   UNL     1       8.588   1.999  22.619  0.00  0.00    +0.000 C 
ATOM     17  N   UNL     1       9.832   2.080  22.213  0.00  0.00    +0.000 NA
ATOM     18  C   UNL     1      10.650   2.520  23.054  0.00  0.00    +0.000 C 
ATOM     19  C   UNL     1      10.401   1.613  24.276  0.00  0.00    +0.000 C 
ATOM     20  C   UNL     1       9.625   0.338  24.009  0.00  0.00    +0.000 C 
ATOM     21  N   UNL     1       8.018   1.862  21.364  0.00  0.00    +0.000 NA
ATOM     22  C   UNL     1       7.384   0.540  21.147  0.00  0.00    +0.000 C 
ATOM     23  C   UNL     1       7.756  -0.038  19.834  0.00  0.00    +0.000 C 
ENDBRANCH  13  14
ENDBRANCH   2  13
TORSDOF 6
ENDMDL
MODEL 4
REMARK VINA RESULT:      -6.3      1.445      3.735
REMARK  Name = 
REMARK  6 active torsions:
REMARK  status: ('A' for Active; 'I' for Inactive)
REMARK    1  A    between atoms: C_2  and  C_3
REMARK    2  A    between atoms: C_3  and  N_4
REMARK    3  A    between atoms: N_4  and  C_5
REMARK    4  A    between atoms: C_6  and  C_7
REMARK    5  A    between atoms: C_7  and  C_8
REMARK    6  A    between atoms: C_19  and  C_20
REMARK                            x       y       z     vdW  Elec       q    Type
REMARK                         _______ _______ _______ _____ _____    ______ ____
ROOT
ATOM      1  C   UNL     1       8.152  -0.021  22.426  0.00  0.00    +0.000 C 
ATOM      2  C   UNL     1       7.100  -1.004  21.654  0.00  0.00    +0.000 C 
ATOM      3  C   UNL     1       6.424  -0.803  20.459  0.00  0.00    +0.000 C 
ATOM      4  C   UNL     1       5.813   0.619  20.029  0.00  0.00    +0.000 C 
ATOM      5  C   UNL     1       6.994   1.419  20.716  0.00  0.00    +0.000 C 
ATOM      6  N   UNL     1       7.408   1.238  21.984  0.00  0.00    +0.000 NA
ENDROOT
BRANCH   4   7
ATOM      7  C   UNL     1       6.114   0.700  18.573  0.00  0.00    +0.000 C 
ATOM      8  N   UNL     1       6.433   0.861  17.466  0.00  0.00    +0.000 NA
ENDBRANCH   4   7
BRANCH   1   9
ATOM      9  N   UNL     1       9.363  -0.115  21.724  0.00  0.00    +0.000 NA
BRANCH   9  10
ATOM     10  C   UNL     1      10.426  -0.579  22.544  0.00  0.00    +0.000 C 
BRANCH  10  12
ATOM     11  C   UNL     1      11.059   0.863  24.474  0.00  0.00    +0.000 C 
ATOM     12  C   UNL     1      10.157  -0.263  24.006  0.00  0.00    +0.000 C 
ENDBRANCH  10  12
ENDBRANCH   9  10
ENDBRANCH   1   9
BRANCH   2  13
ATOM     13  C   UNL     1       6.784  -2.185  22.527  0.00  0.00    +0.000 C 
BRANCH  13  14
ATOM     14  C   UNL     1       7.651  -3.272  22.602  0.00  0.00    +0.000 C 
ATOM     15  C   UNL     1       8.500  -3.520  23.803  0.00  0.00    +0.000 C 
ATOM     16  C   UNL     1       8.061  -5.074  24.197  0.00  0.00    +0.000 C 
ATOM     17  N   UNL     1       7.014  -5.184  24.980  0.00  0.00    +0.000 NA
ATOM     18  C   UNL     1       7.243  -5.089  26.208  0.00  0.00    +0.000 C 
ATOM     19  C   UNL     1       8.016  -3.759  26.306  0.00  0.00    +0.000 C 
ATOM     20  C   UNL     1       7.932  -2.851  25.094  0.00  0.00    +0.000 C 
ATOM     21  N   UNL     1       7.467  -5.599  23.060  0.00  0.00    +0.000 NA
ATOM     22  C   UNL     1       7.316  -4.610  21.967  0.00  0.00    +0.000 C 
ATOM     23  C   UNL     1       5.963  -4.660  21.364  0.00  0.00    +0.000 C 
ENDBRANCH  13  14
ENDBRANCH   2  13
TORSDOF 6
ENDMDL
MODEL 5
REMARK VINA RESULT:      -6.2      1.808      2.898
REMARK  Name = 
REMARK  6 active torsions:
REMARK  status: ('A' for Active; 'I' for Inactive)
REMARK    1  A    between atoms: C_2  and  C_3
REMARK    2  A    between atoms: C_3  and  N_4
REMARK    3  A    between atoms: N_4  and  C_5
REMARK    4  A    between atoms: C_6  and  C_7
REMARK    5  A    between atoms: C_7  and  C_8
REMARK    6  A    between atoms: C_19  and  C_20
REMARK                            x       y       z     vdW  Elec       q    Type
REMARK                         _______ _______ _______ _____ _____    ______ ____
ROOT
ATOM      1  C   UNL     1       8.166  -2.192  22.021  0.00  0.00    +0.000 C 
ATOM      2  C   UNL     1       8.336  -2.098  23.643  0.00  0.00    +0.000 C 
ATOM      3  C   UNL     1       8.909  -1.093  24.411  0.00  0.00    +0.000 C 
ATOM      4  C   UNL     1      10.234  -0.301  23.965  0.00  0.00    +0.000 C 
ATOM      5  C   UNL     1       9.844  -0.360  22.431  0.00  0.00    +0.000 C 
ATOM      6  N   UNL     1       9.495  -1.480  21.770  0.00  0.00    +0.000 NA
ENDROOT
BRANCH   4   7
ATOM      7  C   UNL     1       9.947   1.105  24.362  0.00  0.00    +0.000 C 
ATOM      8  N   UNL     1       9.610   2.192  24.603  0.00  0.00    +0.000 NA
ENDBRANCH   4   7
BRANCH   1   9
ATOM      9  N   UNL     1       7.109  -1.333  21.688  0.00  0.00    +0.000 NA
BRANCH   9  10
ATOM     10  C   UNL     1       6.153  -1.958  20.843  0.00  0.00    +0.000 C 
BRANCH  10  12
ATOM     11  C   UNL     1       6.831   0.070  19.565  0.00  0.00    +0.000 C 
ATOM     12  C   UNL     1       5.857  -1.091  19.630  0.00  0.00    +0.000 C 
ENDBRANCH  10  12
ENDBRANCH   9  10
ENDBRANCH   1   9
BRANCH   2  13
ATOM     13  C   UNL     1       7.919  -3.399  24.267  0.00  0.00    +0.000 C 
BRANCH  13  14
ATOM     14  C   UNL     1       7.782  -3.519  25.648  0.00  0.00    +0.000 C 
ATOM     15  C   UNL     1       6.443  -3.588  26.303  0.00  0.00    +0.000 C 
ATOM     16  C   UNL     1       6.574  -5.005  27.162  0.00  0.00    +0.000 C 
ATOM     17  N   UNL     1       6.252  -6.095  26.508  0.00  0.00    +0.000 NA
ATOM     18  C   UNL     1       5.032  -6.380  26.496  0.00  0.00    +0.000 C 
ATOM     19  C   UNL     1       4.384  -5.077  25.988  0.00  0.00    +0.000 C 
ATOM     20  C   UNL     1       5.322  -4.080  25.334  0.00  0.00    +0.000 C 
ATOM     21  N   UNL     1       7.932  -5.268  27.253  0.00  0.00    +0.000 NA
ATOM     22  C   UNL     1       8.767  -4.314  26.486  0.00  0.00    +0.000 C 
ATOM     23  C   UNL     1       9.802  -5.010  25.686  0.00  0.00    +0.000 C 
ENDBRANCH  13  14
ENDBRANCH   2  13
TORSDOF 6
ENDMDL
MODEL 6
REMARK VINA RESULT:      -6.1      1.806      7.049
REMARK  Name = 
REMARK  6 active torsions:
REMARK  status: ('A' for Active; 'I' for Inactive)
REMARK    1  A    between atoms: C_2  and  C_3
REMARK    2  A    between atoms: C_3  and  N_4
REMARK    3  A    between atoms: N_4  and  C_5
REMARK    4  A    between atoms: C_6  and  C_7
REMARK    5  A    between atoms: C_7  and  C_8
REMARK    6  A    between atoms: C_19  and  C_20
REMARK                            x       y       z     vdW  Elec       q    Type
REMARK                         _______ _______ _______ _____ _____    ______ ____
ROOT
ATOM      1  C   UNL     1       8.732  -3.347  25.163  0.00  0.00    +0.000 C 
ATOM      2  C   UNL     1       7.797  -2.524  24.106  0.00  0.00    +0.000 C 
ATOM      3  C   UNL     1       6.862  -3.004  23.199  0.00  0.00    +0.000 C 
ATOM      4  C   UNL     1       7.074  -4.356  22.358  0.00  0.00    +0.000 C 
ATOM      5  C   UNL     1       7.847  -5.063  23.546  0.00  0.00    +0.000 C 
ATOM      6  N   UNL     1       8.891  -4.530  24.208  0.00  0.00    +0.000 NA
ENDROOT
BRANCH   4   7
ATOM      7  C   UNL     1       5.726  -4.987  22.370  0.00  0.00    +0.000 C 
ATOM      8  N   UNL     1       4.623  -5.356  22.387  0.00  0.00    +0.000 NA
ENDBRANCH   4   7
BRANCH   1   9
ATOM      9  N   UNL     1       7.891  -3.716  26.223  0.00  0.00    +0.000 NA
BRANCH   9  10
ATOM     10  C   UNL     1       8.292  -4.939  26.826  0.00  0.00    +0.000 C 
BRANCH  10  12
ATOM     11  C   UNL     1       5.878  -5.483  26.534  0.00  0.00    +0.000 C 
ATOM     12  C   UNL     1       7.095  -5.663  27.422  0.00  0.00    +0.000 C 
ENDBRANCH  10  12
ENDBRANCH   9  10
ENDBRANCH   1   9
BRANCH   2  13
ATOM     13  C   UNL     1       8.204  -1.078  24.097  0.00  0.00    +0.000 C 
BRANCH  13  14
ATOM     14  C   UNL     1       9.014  -0.569  23.085  0.00  0.00    +0.000 C 
ATOM     15  C   UNL     1       8.441   0.033  21.847  0.00  0.00    +0.000 C 
ATOM     16  C   UNL     1       9.157   1.534  21.853  0.00  0.00    +0.000 C 
ATOM     17  N   UNL     1       8.525   2.460  22.532  0.00  0.00    +0.000 NA
ATOM     18  C   UNL     1       7.610   3.055  21.916  0.00  0.00    +0.000 C 
ATOM     19  C   UNL     1       6.740   1.894  21.395  0.00  0.00    +0.000 C 
ATOM     20  C   UNL     1       6.979   0.544  22.043  0.00  0.00    +0.000 C 
ATOM     21  N   UNL     1      10.247   1.429  22.701  0.00  0.00    +0.000 NA
ATOM     22  C   UNL     1      10.336   0.116  23.385  0.00  0.00    +0.000 C 
ATOM     23  C   UNL     1      10.613   0.268  24.832  0.00  0.00    +0.000 C 
ENDBRANCH  13  14
ENDBRANCH   2  13
TORSDOF 6
ENDMDL
MODEL 7
REMARK VINA RESULT:      -6.0      2.203      6.273
REMARK  Name = 
REMARK  6 active torsions:
REMARK  status: ('A' for Active; 'I' for Inactive)
REMARK    1  A    between atoms: C_2  and  C_3
REMARK    2  A    between atoms: C_3  and  N_4
REMARK    3  A    between atoms: N_4  and  C_5
REMARK    4  A    between atoms: C_6  and  C_7
REMARK    5  A    between atoms: C_7  and  C_8
REMARK    6  A    between atoms: C_19  and  C_20
REMARK                            x       y       z     vdW  Elec       q    Type
REMARK                         _______ _______ _______ _____ _____    ______ ____
ROOT
ATOM      1  C   UNL     1       5.167  -3.109  23.949  0.00  0.00    +0.000 C 
ATOM      2  C   UNL     1       6.551  -2.847  24.776  0.00  0.00    +0.000 C 
ATOM      3  C   UNL     1       6.985  -3.413  25.967  0.00  0.00    +0.000 C 
ATOM      4  C   UNL     1       6.001  -3.720  27.199  0.00  0.00    +0.000 C 
ATOM      5  C   UNL     1       4.792  -4.080  26.242  0.00  0.00    +0.000 C 
ATOM      6  N   UNL     1       4.357  -3.306  25.230  0.00  0.00    +0.000 NA
ENDROOT
BRANCH   4   7
ATOM      7  C   UNL     1       6.476  -5.038  27.703  0.00  0.00    +0.000 C 
ATOM      8  N   UNL     1       6.854  -6.010  28.217  0.00  0.00    +0.000 NA
ENDBRANCH   4   7
BRANCH   1   9
ATOM      9  N   UNL     1       5.324  -4.344  23.305  0.00  0.00    +0.000 NA
BRANCH   9  10
ATOM     10  C   UNL     1       5.620  -4.197  21.923  0.00  0.00    +0.000 C 
BRANCH  10  12
ATOM     11  C   UNL     1       7.492  -5.772  22.390  0.00  0.00    +0.000 C 
ATOM     12  C   UNL     1       6.399  -5.396  21.408  0.00  0.00    +0.000 C 
ENDBRANCH  10  12
ENDBRANCH   9  10
ENDBRANCH   1   9
BRANCH   2  13
ATOM     13  C   UNL     1       7.302  -1.707  24.148  0.00  0.00    +0.000 C 
BRANCH  13  14
ATOM     14  C   UNL     1       7.921  -1.854  22.909  0.00  0.00    +0.000 C 
ATOM     15  C   UNL     1       7.764  -0.841  21.826  0.00  0.00    +0.000 C 
ATOM     16  C   UNL     1       9.350  -0.470  21.494  0.00  0.00    +0.000 C 
ATOM     17  N   UNL     1       9.875   0.478  22.232  0.00  0.00    +0.000 NA
ATOM     18  C   UNL     1       9.667   1.650  21.839  0.00  0.00    +0.000 C 
ATOM     19  C   UNL     1       8.133   1.689  21.689  0.00  0.00    +0.000 C 
ATOM     20  C   UNL     1       7.370   0.569  22.369  0.00  0.00    +0.000 C 
ATOM     21  N   UNL     1      10.099  -1.513  22.016  0.00  0.00    +0.000 NA
ATOM     22  C   UNL     1       9.288  -2.500  22.768  0.00  0.00    +0.000 C 
ATOM     23  C   UNL     1       9.916  -2.854  24.063  0.00  0.00    +0.000 C 
ENDBRANCH  13  14
ENDBRANCH   2  13
TORSDOF 6
ENDMDL
MODEL 8
REMARK VINA RESULT:      -6.0      1.084      2.382
REMARK  Name = 
REMARK  6 active torsions:
REMARK  status: ('A' for Active; 'I' for Inactive)
REMARK    1  A    between atoms: C_2  and  C_3
REMARK    2  A    between atoms: C_3  and  N_4
REMARK    3  A    between atoms: N_4  and  C_5
REMARK    4  A    between atoms: C_6  and  C_7
REMARK    5  A    between atoms: C_7  and  C_8
REMARK    6  A    between atoms: C_19  and  C_20
REMARK                            x       y       z     vdW  Elec       q    Type
REMARK                         _______ _______ _______ _____ _____    ______ ____
ROOT
ATOM      1  C   UNL     1       8.748  -0.388  21.588  0.00  0.00    +0.000 C 
ATOM      2  C   UNL     1       8.591  -0.463  23.213  0.00  0.00    +0.000 C 
ATOM      3  C   UNL     1       8.735   0.543  24.158  0.00  0.00    +0.000 C 
ATOM      4  C   UNL     1       9.866   1.680  24.059  0.00  0.00    +0.000 C 
ATOM      5  C   UNL     1       9.789   1.725  22.478  0.00  0.00    +0.000 C 
ATOM      6  N   UNL     1       9.868   0.648  21.674  0.00  0.00    +0.000 NA
ENDROOT
BRANCH   4   7
ATOM      7  C   UNL     1       9.156   2.914  24.496  0.00  0.00    +0.000 C 
ATOM      8  N   UNL     1       8.589   3.907  24.709  0.00  0.00    +0.000 NA
ENDBRANCH   4   7
BRANCH   1   9
ATOM      9  N   UNL     1       7.582   0.228  21.111  0.00  0.00    +0.000 NA
BRANCH   9  10
ATOM     10  C   UNL     1       7.482   0.167  19.695  0.00  0.00    +0.000 C 
BRANCH  10  12
ATOM     11  C   UNL     1       5.969   0.997  17.899  0.00  0.00    +0.000 C 
ATOM     12  C   UNL     1       6.036   0.311  19.250  0.00  0.00    +0.000 C 
ENDBRANCH  10  12
ENDBRANCH   9  10
ENDBRANCH   1   9
BRANCH   2  13
ATOM     13  C   UNL     1       8.422  -1.895  23.634  0.00  0.00    +0.000 C 
BRANCH  13  14
ATOM     14  C   UNL     1       7.210  -2.351  24.149  0.00  0.00    +0.000 C 
ATOM     15  C   UNL     1       6.157  -2.944  23.276  0.00  0.00    +0.000 C 
ATOM     16  C   UNL     1       5.918  -4.417  24.009  0.00  0.00    +0.000 C 
ATOM     17  N   UNL     1       6.714  -5.381  23.613  0.00  0.00    +0.000 NA
ATOM     18  C   UNL     1       6.352  -5.995  22.582  0.00  0.00    +0.000 C 
ATOM     19  C   UNL     1       6.127  -4.853  21.570  0.00  0.00    +0.000 C 
ATOM     20  C   UNL     1       6.729  -3.511  21.939  0.00  0.00    +0.000 C 
ATOM     21  N   UNL     1       6.439  -4.292  25.286  0.00  0.00    +0.000 NA
ATOM     22  C   UNL     1       7.115  -2.994  25.521  0.00  0.00    +0.000 C 
ATOM     23  C   UNL     1       8.425  -3.170  26.189  0.00  0.00    +0.000 C 
ENDBRANCH  13  14
ENDBRANCH   2  13
TORSDOF 6
ENDMDL
MODEL 9
REMARK VINA RESULT:      -5.9      2.079      6.257
REMARK  Name = 
REMARK  6 active torsions:
REMARK  status: ('A' for Active; 'I' for Inactive)
REMARK    1  A    between atoms: C_2  and  C_3
REMARK    2  A    between atoms: C_3  and  N_4
REMARK    3  A    between atoms: N_4  and  C_5
REMARK    4  A    between atoms: C_6  and  C_7
REMARK    5  A    between atoms: C_7  and  C_8
REMARK    6  A    between atoms: C_19  and  C_20
REMARK                            x       y       z     vdW  Elec       q    Type
REMARK                         _______ _______ _______ _____ _____    ______ ____
ROOT
ATOM      1  C   UNL     1       6.634  -2.458  23.416  0.00  0.00    +0.000 C 
ATOM      2  C   UNL     1       7.733  -2.251  24.607  0.00  0.00    +0.000 C 
ATOM      3  C   UNL     1       7.872  -2.937  25.805  0.00  0.00    +0.000 C 
ATOM      4  C   UNL     1       6.619  -3.415  26.689  0.00  0.00    +0.000 C 
ATOM      5  C   UNL     1       5.729  -3.699  25.411  0.00  0.00    +0.000 C 
ATOM      6  N   UNL     1       5.529  -2.828  24.405  0.00  0.00    +0.000 NA
ENDROOT
BRANCH   4   7
ATOM      7  C   UNL     1       7.024  -4.766  27.164  0.00  0.00    +0.000 C 
ATOM      8  N   UNL     1       7.455  -5.766  27.574  0.00  0.00    +0.000 NA
ENDBRANCH   4   7
BRANCH   1   9
ATOM      9  N   UNL     1       7.030  -3.606  22.714  0.00  0.00    +0.000 NA
BRANCH   9  10
ATOM     10  C   UNL     1       6.131  -3.931  21.663  0.00  0.00    +0.000 C 
BRANCH  10  12
ATOM     11  C   UNL     1       7.122  -6.141  22.247  0.00  0.00    +0.000 C 
ATOM     12  C   UNL     1       6.329  -5.368  21.209  0.00  0.00    +0.000 C 
ENDBRANCH  10  12
ENDBRANCH   9  10
ENDBRANCH   1   9
BRANCH   2  13
ATOM     13  C   UNL     1       8.552  -1.023  24.324  0.00  0.00    +0.000 C 
BRANCH  13  14
ATOM     14  C   UNL     1       8.271  -0.213  23.227  0.00  0.00    +0.000 C 
ATOM     15  C   UNL     1       7.888   1.220  23.385  0.00  0.00    +0.000 C 
ATOM     16  C   UNL     1       9.023   1.968  22.427  0.00  0.00    +0.000 C 
ATOM     17  N   UNL     1      10.156   2.261  23.017  0.00  0.00    +0.000 NA
ATOM     18  C   UNL     1      10.178   3.346  23.644  0.00  0.00    +0.000 C 
ATOM     19  C   UNL     1       8.951   3.225  24.570  0.00  0.00    +0.000 C 
ATOM     20  C   UNL     1       8.377   1.831  24.735  0.00  0.00    +0.000 C 
ATOM     21  N   UNL     1       9.525   0.980  21.596  0.00  0.00    +0.000 NA
ATOM     22  C   UNL     1       9.001  -0.372  21.905  0.00  0.00    +0.000 C 
ATOM     23  C   UNL     1      10.082  -1.385  21.940  0.00  0.00    +0.000 C 
ENDBRANCH  13  14
ENDBRANCH   2  13
TORSDOF 6
ENDMDL
