MODEL 1
REMARK VINA RESULT:      -6.6      0.000      0.000
REMARK  Name = 
REMARK  7 active torsions:
REMARK  status: ('A' for Active; 'I' for Inactive)
REMARK    1  A    between atoms: O_2  and  C_3
REMARK    2  A    between atoms: C_4  and  N_5
REMARK    3  A    between atoms: N_5  and  C_6
REMARK    4  A    between atoms: C_6  and  C_7
REMARK    5  A    between atoms: C_7  and  N_8
REMARK    6  A    between atoms: C_9  and  C_10
REMARK    7  A    between atoms: C_10  and  C_11
REMARK                            x       y       z     vdW  Elec       q    Type
REMARK                         _______ _______ _______ _____ _____    ______ ____
ROOT
ATOM      1  N   UNL     1       6.658  -4.359  23.120  0.00  0.00    +0.000 N 
ATOM      2  C   UNL     1       6.855  -4.635  24.654  0.00  0.00    +0.000 C 
ATOM      3  C   UNL     1       5.905  -5.168  25.465  0.00  0.00    +0.000 C 
ATOM      4  C   UNL     1       5.079  -4.374  26.526  0.00  0.00    +0.000 C 
ATOM      5  C   UNL     1       4.968  -6.466  25.099  0.00  0.00    +0.000 C 
ATOM      6  C   UNL     1       4.913  -6.158  23.559  0.00  0.00    +0.000 C 
ATOM      7  C   UNL     1       5.924  -5.584  22.800  0.00  0.00    +0.000 C 
ATOM      8  C   UNL     1       6.280  -6.070  21.429  0.00  0.00    +0.000 C 
ENDROOT
BRANCH   2   9
ATOM      9  C   UNL     1       8.415  -4.822  24.676  0.00  0.00    +0.000 C 
ATOM     10  O   UNL     1       8.695  -5.546  25.839  0.00  0.00    +0.000 OA
BRANCH   9  11
ATOM     11  C   UNL     1       8.970  -3.400  24.854  0.00  0.00    +0.000 C 
ATOM     12  C   UNL     1       9.843  -2.758  24.007  0.00  0.00    +0.000 C 
ATOM     13  F   UNL     1      10.137  -1.470  24.373  0.00  0.00    +0.000 F 
ENDBRANCH   9  11
ENDBRANCH   2   9
BRANCH   1  14
ATOM     14  C   UNL     1       5.810  -3.186  22.992  0.00  0.00    +0.000 C 
BRANCH  14  15
ATOM     15  C   UNL     1       6.185  -2.292  21.878  0.00  0.00    +0.000 C 
BRANCH  15  16
ATOM     16  N   UNL     1       7.110  -1.272  22.197  0.00  0.00    +0.000 NA
BRANCH  16  18
ATOM     17  C   UNL     1       6.978   0.557  20.613  0.00  0.00    +0.000 C 
ATOM     18  C   UNL     1       7.713  -0.765  20.994  0.00  0.00    +0.000 C 
ATOM     19  C   UNL     1       9.198  -0.416  21.309  0.00  0.00    +0.000 C 
ATOM     20  C   UNL     1       9.191   1.100  21.549  0.00  0.00    +0.000 C 
ATOM     21  O   UNL     1      10.183   1.697  22.206  0.00  0.00    +0.000 OA
ATOM     22  C   UNL     1       7.893   1.673  21.253  0.00  0.00    +0.000 C 
BRANCH  17  24
ATOM     23  C   UNL     1       6.268  -0.198  18.594  0.00  0.00    +0.000 C 
ATOM     24  O   UNL     1       7.148   0.696  19.223  0.00  0.00    +0.000 OA
ENDBRANCH  17  24
ENDBRANCH  16  18
ENDBRANCH  15  16
ENDBRANCH  14  15
ENDBRANCH   1  14
TORSDOF 7
ENDMDL
MODEL 2
REMARK VINA RESULT:      -6.5      2.552      7.118
REMARK  Name = 
REMARK  7 active torsions:
REMARK  status: ('A' for Active; 'I' for Inactive)
REMARK    1  A    between atoms: O_2  and  C_3
REMARK    2  A    between atoms: C_4  and  N_5
REMARK    3  A    between atoms: N_5  and  C_6
REMARK    4  A    between atoms: C_6  and  C_7
REMARK    5  A    between atoms: C_7  and  N_8
REMARK    6  A    between atoms: C_9  and  C_10
REMARK    7  A    between atoms: C_10  and  C_11
REMARK                            x       y       z     vdW  Elec       q    Type
REMARK                         _______ _______ _______ _____ _____    ______ ____
ROOT
ATOM      1  N   UNL     1       8.097  -0.575  22.836  0.00  0.00    +0.000 N 
ATOM      2  C   UNL     1       7.826   0.683  21.934  0.00  0.00    +0.000 C 
ATOM      3  C   UNL     1       8.493   1.861  22.042  0.00  0.00    +0.000 C 
ATOM      4  C   UNL     1       7.914   3.170  22.663  0.00  0.00    +0.000 C 
ATOM      5  C   UNL     1      10.121   2.016  22.199  0.00  0.00    +0.000 C 
ATOM      6  C   UNL     1      10.301   0.683  23.013  0.00  0.00    +0.000 C 
ATOM      7  C   UNL     1       9.557  -0.479  22.861  0.00  0.00    +0.000 C 
ATOM      8  C   UNL     1      10.175  -1.843  22.879  0.00  0.00    +0.000 C 
ENDROOT
BRANCH   2   9
ATOM      9  C   UNL     1       7.263  -0.040  20.658  0.00  0.00    +0.000 C 
ATOM     10  O   UNL     1       8.345  -0.156  19.778  0.00  0.00    +0.000 OA
BRANCH   9  11
ATOM     11  C   UNL     1       6.265   0.961  20.057  0.00  0.00    +0.000 C 
ATOM     12  C   UNL     1       5.696   0.890  18.807  0.00  0.00    +0.000 C 
ATOM     13  F   UNL     1       4.794   1.887  18.541  0.00  0.00    +0.000 F 
ENDBRANCH   9  11
ENDBRANCH   2   9
BRANCH   1  14
ATOM     14  C   UNL     1       7.527  -0.307  24.145  0.00  0.00    +0.000 C 
BRANCH  14  15
ATOM     15  C   UNL     1       6.601  -1.352  24.624  0.00  0.00    +0.000 C 
BRANCH  15  16
ATOM     16  N   UNL     1       7.171  -2.340  25.458  0.00  0.00    +0.000 NA
BRANCH  16  18
ATOM     17  C   UNL     1       8.203  -4.317  24.514  0.00  0.00    +0.000 C 
ATOM     18  C   UNL     1       6.863  -3.648  24.948  0.00  0.00    +0.000 C 
ATOM     19  C   UNL     1       6.261  -4.490  26.111  0.00  0.00    +0.000 C 
ATOM     20  C   UNL     1       7.438  -5.330  26.625  0.00  0.00    +0.000 C 
ATOM     21  O   UNL     1       7.413  -5.882  27.836  0.00  0.00    +0.000 OA
ATOM     22  C   UNL     1       8.605  -5.171  25.779  0.00  0.00    +0.000 C 
BRANCH  17  24
ATOM     23  C   UNL     1       7.289  -4.565  22.451  0.00  0.00    +0.000 C 
ATOM     24  O   UNL     1       7.853  -5.262  23.530  0.00  0.00    +0.000 OA
ENDBRANCH  17  24
ENDBRANCH  16  18
ENDBRANCH  15  16
ENDBRANCH  14  15
ENDBRANCH   1  14
TORSDOF 7
ENDMDL
MODEL 3
REMARK VINA RESULT:      -6.4      2.433      6.765
REMARK  Name = 
REMARK  7 active torsions:
REMARK  status: ('A' for Active; 'I' for Inactive)
REMARK    1  A    between atoms: O_2  and  C_3
REMARK    2  A    between atoms: C_4  and  N_5
REMARK    3  A    between atoms: N_5  and  C_6
REMARK    4  A    between atoms: C_6  and  C_7
REMARK    5  A    between atoms: C_7  and  N_8
REMARK    6  A    between atoms: C_9  and  C_10
REMARK    7  A    between atoms: C_10  and  C_11
REMARK                            x       y       z     vdW  Elec       q    Type
REMARK                         _______ _______ _______ _____ _____    ______ ____
ROOT
ATOM      1  N   UNL     1       7.913  -0.830  22.528  0.00  0.00    +0.000 N 
ATOM      2  C   UNL     1       7.701   0.362  21.526  0.00  0.00    +0.000 C 
ATOM      3  C   UNL     1       8.307   1.572  21.636  0.00  0.00    +0.000 C 
ATOM      4  C   UNL     1       7.611   2.888  22.104  0.00  0.00    +0.000 C 
ATOM      5  C   UNL     1       9.898   1.808  21.967  0.00  0.00    +0.000 C 
ATOM      6  C   UNL     1      10.033   0.533  22.877  0.00  0.00    +0.000 C 
ATOM      7  C   UNL     1       9.355  -0.667  22.713  0.00  0.00    +0.000 C 
ATOM      8  C   UNL     1      10.018  -1.999  22.886  0.00  0.00    +0.000 C 
ENDROOT
BRANCH   2   9
ATOM      9  C   UNL     1       7.318  -0.458  20.241  0.00  0.00    +0.000 C 
ATOM     10  O   UNL     1       8.183  -0.014  19.235  0.00  0.00    +0.000 OA
BRANCH   9  11
ATOM     11  C   UNL     1       5.899   0.016  19.892  0.00  0.00    +0.000 C 
ATOM     12  C   UNL     1       5.574   1.131  19.155  0.00  0.00    +0.000 C 
ATOM     13  F   UNL     1       4.229   1.295  18.945  0.00  0.00    +0.000 F 
ENDBRANCH   9  11
ENDBRANCH   2   9
BRANCH   1  14
ATOM     14  C   UNL     1       7.185  -0.512  23.745  0.00  0.00    +0.000 C 
BRANCH  14  15
ATOM     15  C   UNL     1       6.241  -1.564  24.173  0.00  0.00    +0.000 C 
BRANCH  15  16
ATOM     16  N   UNL     1       5.800  -2.441  23.157  0.00  0.00    +0.000 NA
BRANCH  16  18
ATOM     17  C   UNL     1       5.570  -4.771  22.534  0.00  0.00    +0.000 C 
ATOM     18  C   UNL     1       5.555  -3.746  23.710  0.00  0.00    +0.000 C 
ATOM     19  C   UNL     1       6.735  -4.094  24.665  0.00  0.00    +0.000 C 
ATOM     20  C   UNL     1       7.658  -4.986  23.824  0.00  0.00    +0.000 C 
ATOM     21  O   UNL     1       8.933  -5.168  24.161  0.00  0.00    +0.000 OA
ATOM     22  C   UNL     1       7.054  -5.311  22.547  0.00  0.00    +0.000 C 
BRANCH  17  24
ATOM     23  C   UNL     1       3.506  -5.359  23.273  0.00  0.00    +0.000 C 
ATOM     24  O   UNL     1       4.783  -5.855  22.968  0.00  0.00    +0.000 OA
ENDBRANCH  17  24
ENDBRANCH  16  18
ENDBRANCH  15  16
ENDBRANCH  14  15
ENDBRANCH   1  14
TORSDOF 7
ENDMDL
MODEL 4
REMARK VINA RESULT:      -6.3      2.560      7.161
REMARK  Name = 
REMARK  7 active torsions:
REMARK  status: ('A' for Active; 'I' for Inactive)
REMARK    1  A    between atoms: O_2  and  C_3
REMARK    2  A    between atoms: C_4  and  N_5
REMARK    3  A    between atoms: N_5  and  C_6
REMARK    4  A    between atoms: C_6  and  C_7
REMARK    5  A    between atoms: C_7  and  N_8
REMARK    6  A    between atoms: C_9  and  C_10
REMARK    7  A    between atoms: C_10  and  C_11
REMARK                            x       y       z     vdW  Elec       q    Type
REMARK                         _______ _______ _______ _____ _____    ______ ____
ROOT
ATOM      1  N   UNL     1       8.086  -0.583  22.802  0.00  0.00    +0.000 N 
ATOM      2  C   UNL     1       7.817   0.694  21.927  0.00  0.00    +0.000 C 
ATOM      3  C   UNL     1       8.492   1.866  22.053  0.00  0.00    +0.000 C 
ATOM      4  C   UNL     1       7.923   3.167  22.703  0.00  0.00    +0.000 C 
ATOM      5  C   UNL     1      10.121   2.009  22.203  0.00  0.00    +0.000 C 
ATOM      6  C   UNL     1      10.298   0.660  22.990  0.00  0.00    +0.000 C 
ATOM      7  C   UNL     1       9.547  -0.495  22.820  0.00  0.00    +0.000 C 
ATOM      8  C   UNL     1      10.157  -1.862  22.808  0.00  0.00    +0.000 C 
ENDROOT
BRANCH   2   9
ATOM      9  C   UNL     1       7.243  -0.001  20.640  0.00  0.00    +0.000 C 
ATOM     10  O   UNL     1       8.323  -0.125  19.760  0.00  0.00    +0.000 OA
BRANCH   9  11
ATOM     11  C   UNL     1       6.264   1.027  20.051  0.00  0.00    +0.000 C 
ATOM     12  C   UNL     1       5.442   0.836  18.966  0.00  0.00    +0.000 C 
ATOM     13  F   UNL     1       4.626   1.902  18.683  0.00  0.00    +0.000 F 
ENDBRANCH   9  11
ENDBRANCH   2   9
BRANCH   1  14
ATOM     14  C   UNL     1       7.525  -0.336  24.119  0.00  0.00    +0.000 C 
BRANCH  14  15
ATOM     15  C   UNL     1       6.861  -1.510  24.720  0.00  0.00    +0.000 C 
BRANCH  15  16
ATOM     16  N   UNL     1       6.557  -2.565  23.828  0.00  0.00    +0.000 NA
BRANCH  16  18
ATOM     17  C   UNL     1       6.167  -4.615  25.058  0.00  0.00    +0.000 C 
ATOM     18  C   UNL     1       7.209  -3.772  24.259  0.00  0.00    +0.000 C 
ATOM     19  C   UNL     1       7.611  -4.582  22.991  0.00  0.00    +0.000 C 
ATOM     20  C   UNL     1       6.499  -5.629  22.837  0.00  0.00    +0.000 C 
ATOM     21  O   UNL     1       6.292  -6.247  21.677  0.00  0.00    +0.000 OA
ATOM     22  C   UNL     1       5.593  -5.602  23.968  0.00  0.00    +0.000 C 
BRANCH  17  24
ATOM     23  C   UNL     1       7.656  -4.581  26.771  0.00  0.00    +0.000 C 
ATOM     24  O   UNL     1       6.924  -5.427  25.925  0.00  0.00    +0.000 OA
ENDBRANCH  17  24
ENDBRANCH  16  18
ENDBRANCH  15  16
ENDBRANCH  14  15
ENDBRANCH   1  14
TORSDOF 7
ENDMDL
MODEL 5
REMARK VINA RESULT:      -6.1      2.596      6.933
REMARK  Name = 
REMARK  7 active torsions:
REMARK  status: ('A' for Active; 'I' for Inactive)
REMARK    1  A    between atoms: O_2  and  C_3
REMARK    2  A    between atoms: C_4  and  N_5
REMARK    3  A    between atoms: N_5  and  C_6
REMARK    4  A    between atoms: C_6  and  C_7
REMARK    5  A    between atoms: C_7  and  N_8
REMARK    6  A    between atoms: C_9  and  C_10
REMARK    7  A    between atoms: C_10  and  C_11
REMARK                            x       y       z     vdW  Elec       q    Type
REMARK                         _______ _______ _______ _____ _____    ______ ____
ROOT
ATOM      1  N   UNL     1       8.480  -0.578  24.485  0.00  0.00    +0.000 N 
ATOM      2  C   UNL     1       8.027   0.808  23.898  0.00  0.00    +0.000 C 
ATOM      3  C   UNL     1       8.850   1.875  23.730  0.00  0.00    +0.000 C 
ATOM      4  C   UNL     1       8.858   3.155  24.624  0.00  0.00    +0.000 C 
ATOM      5  C   UNL     1      10.359   1.814  23.084  0.00  0.00    +0.000 C 
ATOM      6  C   UNL     1      10.680   0.378  23.635  0.00  0.00    +0.000 C 
ATOM      7  C   UNL     1       9.772  -0.659  23.802  0.00  0.00    +0.000 C 
ATOM      8  C   UNL     1      10.090  -2.078  23.444  0.00  0.00    +0.000 C 
ENDROOT
BRANCH   2   9
ATOM      9  C   UNL     1       6.818   0.324  23.020  0.00  0.00    +0.000 C 
ATOM     10  O   UNL     1       6.764  -1.065  23.178  0.00  0.00    +0.000 OA
BRANCH   9  11
ATOM     11  C   UNL     1       7.248   0.623  21.575  0.00  0.00    +0.000 C 
ATOM     12  C   UNL     1       7.874  -0.251  20.718  0.00  0.00    +0.000 C 
ATOM     13  F   UNL     1       8.099   0.255  19.463  0.00  0.00    +0.000 F 
ENDBRANCH   9  11
ENDBRANCH   2   9
BRANCH   1  14
ATOM     14  C   UNL     1       8.650  -0.411  25.919  0.00  0.00    +0.000 C 
BRANCH  14  15
ATOM     15  C   UNL     1       8.254  -1.591  26.712  0.00  0.00    +0.000 C 
BRANCH  15  16
ATOM     16  N   UNL     1       7.147  -2.319  26.218  0.00  0.00    +0.000 NA
BRANCH  16  18
ATOM     17  C   UNL     1       6.178  -4.515  25.893  0.00  0.00    +0.000 C 
ATOM     18  C   UNL     1       7.172  -3.660  26.737  0.00  0.00    +0.000 C 
ATOM     19  C   UNL     1       8.603  -4.234  26.522  0.00  0.00    +0.000 C 
ATOM     20  C   UNL     1       8.487  -5.083  25.249  0.00  0.00    +0.000 C 
ATOM     21  O   UNL     1       9.566  -5.419  24.545  0.00  0.00    +0.000 OA
ATOM     22  C   UNL     1       7.111  -5.179  24.806  0.00  0.00    +0.000 C 
BRANCH  17  24
ATOM     23  C   UNL     1       5.049  -6.483  25.956  0.00  0.00    +0.000 C 
ATOM     24  O   UNL     1       5.784  -5.574  26.733  0.00  0.00    +0.000 OA
ENDBRANCH  17  24
ENDBRANCH  16  18
ENDBRANCH  15  16
ENDBRANCH  14  15
ENDBRANCH   1  14
TORSDOF 7
ENDMDL
MODEL 6
REMARK VINA RESULT:      -6.1      2.357      4.338
REMARK  Name = 
REMARK  7 active torsions:
REMARK  status: ('A' for Active; 'I' for Inactive)
REMARK    1  A    between atoms: O_2  and  C_3
REMARK    2  A    between atoms: C_4  and  N_5
REMARK    3  A    between atoms: N_5  and  C_6
REMARK    4  A    between atoms: C_6  and  C_7
REMARK    5  A    between atoms: C_7  and  N_8
REMARK    6  A    between atoms: C_9  and  C_10
REMARK    7  A    between atoms: C_10  and  C_11
REMARK                            x       y       z     vdW  Elec       q    Type
REMARK                         _______ _______ _______ _____ _____    ______ ____
ROOT
ATOM      1  N   UNL     1       7.291  -2.989  23.724  0.00  0.00    +0.000 N 
ATOM      2  C   UNL     1       6.668  -3.541  22.391  0.00  0.00    +0.000 C 
ATOM      3  C   UNL     1       6.199  -4.806  22.231  0.00  0.00    +0.000 C 
ATOM      4  C   UNL     1       6.916  -5.937  21.429  0.00  0.00    +0.000 C 
ATOM      5  C   UNL     1       5.241  -5.603  23.300  0.00  0.00    +0.000 C 
ATOM      6  C   UNL     1       5.865  -4.919  24.570  0.00  0.00    +0.000 C 
ATOM      7  C   UNL     1       6.349  -3.620  24.649  0.00  0.00    +0.000 C 
ATOM      8  C   UNL     1       6.092  -2.732  25.827  0.00  0.00    +0.000 C 
ENDROOT
BRANCH   2   9
ATOM      9  C   UNL     1       6.145  -2.191  21.782  0.00  0.00    +0.000 C 
ATOM     10  O   UNL     1       5.543  -2.530  20.566  0.00  0.00    +0.000 OA
BRANCH   9  11
ATOM     11  C   UNL     1       7.420  -1.389  21.475  0.00  0.00    +0.000 C 
ATOM     12  C   UNL     1       7.531  -0.355  20.575  0.00  0.00    +0.000 C 
ATOM     13  F   UNL     1       8.773   0.225  20.535  0.00  0.00    +0.000 F 
ENDBRANCH   9  11
ENDBRANCH   2   9
BRANCH   1  14
ATOM     14  C   UNL     1       8.621  -3.560  23.853  0.00  0.00    +0.000 C 
BRANCH  14  15
ATOM     15  C   UNL     1       9.618  -2.636  24.430  0.00  0.00    +0.000 C 
BRANCH  15  16
ATOM     16  N   UNL     1       9.999  -1.553  23.606  0.00  0.00    +0.000 NA
BRANCH  16  18
ATOM     17  C   UNL     1      10.096   0.865  23.509  0.00  0.00    +0.000 C 
ATOM     18  C   UNL     1      10.266  -0.394  24.413  0.00  0.00    +0.000 C 
ATOM     19  C   UNL     1       9.188  -0.329  25.535  0.00  0.00    +0.000 C 
ATOM     20  C   UNL     1       8.155   0.680  25.015  0.00  0.00    +0.000 C 
ATOM     21  O   UNL     1       6.920   0.716  25.509  0.00  0.00    +0.000 OA
ATOM     22  C   UNL     1       8.608   1.311  23.791  0.00  0.00    +0.000 C 
BRANCH  17  24
ATOM     23  C   UNL     1      10.689   3.052  23.379  0.00  0.00    +0.000 C 
ATOM     24  O   UNL     1      10.895   1.864  24.097  0.00  0.00    +0.000 OA
ENDBRANCH  17  24
ENDBRANCH  16  18
ENDBRANCH  15  16
ENDBRANCH  14  15
ENDBRANCH   1  14
TORSDOF 7
ENDMDL
MODEL 7
REMARK VINA RESULT:      -6.1      2.488      3.528
REMARK  Name = 
REMARK  7 active torsions:
REMARK  status: ('A' for Active; 'I' for Inactive)
REMARK    1  A    between atoms: O_2  and  C_3
REMARK    2  A    between atoms: C_4  and  N_5
REMARK    3  A    between atoms: N_5  and  C_6
REMARK    4  A    between atoms: C_6  and  C_7
REMARK    5  A    between atoms: C_7  and  N_8
REMARK    6  A    between atoms: C_9  and  C_10
REMARK    7  A    between atoms: C_10  and  C_11
REMARK                            x       y       z     vdW  Elec       q    Type
REMARK                         _______ _______ _______ _____ _____    ______ ____
ROOT
ATOM      1  N   UNL     1       7.117  -2.979  23.874  0.00  0.00    +0.000 N 
ATOM      2  C   UNL     1       7.772  -4.407  23.846  0.00  0.00    +0.000 C 
ATOM      3  C   UNL     1       8.198  -5.077  24.948  0.00  0.00    +0.000 C 
ATOM      4  C   UNL     1       9.690  -5.273  25.362  0.00  0.00    +0.000 C 
ATOM      5  C   UNL     1       7.359  -5.218  26.353  0.00  0.00    +0.000 C 
ATOM      6  C   UNL     1       6.675  -3.807  26.239  0.00  0.00    +0.000 C 
ATOM      7  C   UNL     1       6.289  -3.175  25.065  0.00  0.00    +0.000 C 
ATOM      8  C   UNL     1       4.993  -2.436  24.933  0.00  0.00    +0.000 C 
ENDROOT
BRANCH   2   9
ATOM      9  C   UNL     1       7.118  -4.956  22.527  0.00  0.00    +0.000 C 
ATOM     10  O   UNL     1       6.516  -3.854  21.913  0.00  0.00    +0.000 OA
BRANCH   9  11
ATOM     11  C   UNL     1       6.006  -5.899  23.013  0.00  0.00    +0.000 C 
ATOM     12  C   UNL     1       4.654  -5.647  22.973  0.00  0.00    +0.000 C 
ATOM     13  F   UNL     1       3.875  -6.682  23.422  0.00  0.00    +0.000 F 
ENDBRANCH   9  11
ENDBRANCH   2   9
BRANCH   1  14
ATOM     14  C   UNL     1       8.177  -2.017  24.119  0.00  0.00    +0.000 C 
BRANCH  14  15
ATOM     15  C   UNL     1       9.027  -1.745  22.943  0.00  0.00    +0.000 C 
BRANCH  15  16
ATOM     16  N   UNL     1       9.731  -0.520  22.966  0.00  0.00    +0.000 NA
BRANCH  16  18
ATOM     17  C   UNL     1       8.224  -0.159  21.104  0.00  0.00    +0.000 C 
ATOM     18  C   UNL     1       9.647   0.116  21.678  0.00  0.00    +0.000 C 
ATOM     19  C   UNL     1       9.792   1.652  21.889  0.00  0.00    +0.000 C 
ATOM     20  C   UNL     1       8.351   2.178  21.874  0.00  0.00    +0.000 C 
ATOM     21  O   UNL     1       8.046   3.365  22.394  0.00  0.00    +0.000 OA
ATOM     22  C   UNL     1       7.413   1.130  21.522  0.00  0.00    +0.000 C 
BRANCH  17  24
ATOM     23  C   UNL     1       7.077   0.129  19.166  0.00  0.00    +0.000 C 
ATOM     24  O   UNL     1       8.357  -0.069  19.705  0.00  0.00    +0.000 OA
ENDBRANCH  17  24
ENDBRANCH  16  18
ENDBRANCH  15  16
ENDBRANCH  14  15
ENDBRANCH   1  14
TORSDOF 7
ENDMDL
MODEL 8
REMARK VINA RESULT:      -6.0      1.598      2.314
REMARK  Name = 
REMARK  7 active torsions:
REMARK  status: ('A' for Active; 'I' for Inactive)
REMARK    1  A    between atoms: O_2  and  C_3
REMARK    2  A    between atoms: C_4  and  N_5
REMARK    3  A    between atoms: N_5  and  C_6
REMARK    4  A    between atoms: C_6  and  C_7
REMARK    5  A    between atoms: C_7  and  N_8
REMARK    6  A    between atoms: C_9  and  C_10
REMARK    7  A    between atoms: C_10  and  C_11
REMARK                            x       y       z     vdW  Elec       q    Type
REMARK                         _______ _______ _______ _____ _____    ______ ____
ROOT
ATOM      1  N   UNL     1       6.614  -4.254  23.202  0.00  0.00    +0.000 N 
ATOM      2  C   UNL     1       6.528  -4.718  24.700  0.00  0.00    +0.000 C 
ATOM      3  C   UNL     1       5.444  -5.319  25.256  0.00  0.00    +0.000 C 
ATOM      4  C   UNL     1       4.444  -4.637  26.241  0.00  0.00    +0.000 C 
ATOM      5  C   UNL     1       4.582  -6.537  24.570  0.00  0.00    +0.000 C 
ATOM      6  C   UNL     1       4.809  -6.044  23.095  0.00  0.00    +0.000 C 
ATOM      7  C   UNL     1       5.943  -5.411  22.607  0.00  0.00    +0.000 C 
ATOM      8  C   UNL     1       6.540  -5.736  21.272  0.00  0.00    +0.000 C 
ENDROOT
BRANCH   2   9
ATOM      9  C   UNL     1       8.057  -4.949  24.978  0.00  0.00    +0.000 C 
ATOM     10  O   UNL     1       8.121  -5.716  26.146  0.00  0.00    +0.000 OA
BRANCH   9  11
ATOM     11  C   UNL     1       8.606  -3.550  25.297  0.00  0.00    +0.000 C 
ATOM     12  C   UNL     1       8.200  -2.734  26.327  0.00  0.00    +0.000 C 
ATOM     13  F   UNL     1       8.893  -1.555  26.419  0.00  0.00    +0.000 F 
ENDBRANCH   9  11
ENDBRANCH   2   9
BRANCH   1  14
ATOM     14  C   UNL     1       5.809  -3.051  23.070  0.00  0.00    +0.000 C 
BRANCH  14  15
ATOM     15  C   UNL     1       6.440  -1.991  22.259  0.00  0.00    +0.000 C 
BRANCH  15  16
ATOM     16  N   UNL     1       6.878  -0.853  22.973  0.00  0.00    +0.000 NA
BRANCH  16  18
ATOM     17  C   UNL     1       8.700   0.722  23.239  0.00  0.00    +0.000 C 
ATOM     18  C   UNL     1       7.918  -0.185  22.239  0.00  0.00    +0.000 C 
ATOM     19  C   UNL     1       8.900  -1.267  21.702  0.00  0.00    +0.000 C 
ATOM     20  C   UNL     1      10.062  -1.261  22.705  0.00  0.00    +0.000 C 
ATOM     21  O   UNL     1      10.897  -2.293  22.798  0.00  0.00    +0.000 OA
ATOM     22  C   UNL     1       9.919  -0.185  23.666  0.00  0.00    +0.000 C 
BRANCH  17  24
ATOM     23  C   UNL     1      10.012   2.572  23.311  0.00  0.00    +0.000 C 
ATOM     24  O   UNL     1       9.263   1.748  22.457  0.00  0.00    +0.000 OA
ENDBRANCH  17  24
ENDBRANCH  16  18
ENDBRANCH  15  16
ENDBRANCH  14  15
ENDBRANCH   1  14
TORSDOF 7
ENDMDL
MODEL 9
REMARK VINA RESULT:      -6.0      2.251      6.395
REMARK  Name = 
REMARK  7 active torsions:
REMARK  status: ('A' for Active; 'I' for Inactive)
REMARK    1  A    between atoms: O_2  and  C_3
REMARK    2  A    between atoms: C_4  and  N_5
REMARK    3  A    between atoms: N_5  and  C_6
REMARK    4  A    between atoms: C_6  and  C_7
REMARK    5  A    between atoms: C_7  and  N_8
REMARK    6  A    between atoms: C_9  and  C_10
REMARK    7  A    between atoms: C_10  and  C_11
REMARK                            x       y       z     vdW  Elec       q    Type
REMARK                         _______ _______ _______ _____ _____    ______ ____
ROOT
ATOM      1  N   UNL     1       6.939  -0.259  22.497  0.00  0.00    +0.000 N 
ATOM      2  C   UNL     1       8.214  -0.502  23.383  0.00  0.00    +0.000 C 
ATOM      3  C   UNL     1       9.490  -0.422  22.927  0.00  0.00    +0.000 C 
ATOM      4  C   UNL     1      10.426  -1.641  22.653  0.00  0.00    +0.000 C 
ATOM      5  C   UNL     1      10.080   0.774  21.968  0.00  0.00    +0.000 C 
ATOM      6  C   UNL     1       8.727   1.009  21.205  0.00  0.00    +0.000 C 
ATOM      7  C   UNL     1       7.451   0.882  21.738  0.00  0.00    +0.000 C 
ATOM      8  C   UNL     1       6.351   1.855  21.442  0.00  0.00    +0.000 C 
ENDROOT
BRANCH   2   9
ATOM      9  C   UNL     1       7.621  -0.112  24.785  0.00  0.00    +0.000 C 
ATOM     10  O   UNL     1       8.541   0.775  25.354  0.00  0.00    +0.000 OA
BRANCH   9  11
ATOM     11  C   UNL     1       7.656  -1.418  25.594  0.00  0.00    +0.000 C 
ATOM     12  C   UNL     1       6.711  -1.838  26.500  0.00  0.00    +0.000 C 
ATOM     13  F   UNL     1       6.959  -3.072  27.043  0.00  0.00    +0.000 F 
ENDBRANCH   9  11
ENDBRANCH   2   9
BRANCH   1  14
ATOM     14  C   UNL     1       6.769  -1.426  21.648  0.00  0.00    +0.000 C 
BRANCH  14  15
ATOM     15  C   UNL     1       6.224  -2.606  22.348  0.00  0.00    +0.000 C 
BRANCH  15  16
ATOM     16  N   UNL     1       6.061  -3.766  21.557  0.00  0.00    +0.000 NA
BRANCH  16  18
ATOM     17  C   UNL     1       7.337  -4.461  23.495  0.00  0.00    +0.000 C 
ATOM     18  C   UNL     1       6.933  -4.807  22.029  0.00  0.00    +0.000 C 
ATOM     19  C   UNL     1       6.125  -6.138  22.054  0.00  0.00    +0.000 C 
ATOM     20  C   UNL     1       5.691  -6.294  23.518  0.00  0.00    +0.000 C 
ATOM     21  O   UNL     1       4.681  -7.093  23.855  0.00  0.00    +0.000 OA
ATOM     22  C   UNL     1       6.295  -5.277  24.356  0.00  0.00    +0.000 C 
BRANCH  17  24
ATOM     23  C   UNL     1       8.905  -4.946  25.062  0.00  0.00    +0.000 C 
ATOM     24  O   UNL     1       8.572  -5.103  23.708  0.00  0.00    +0.000 OA
ENDBRANCH  17  24
ENDBRANCH  16  18
ENDBRANCH  15  16
ENDBRANCH  14  15
ENDBRANCH   1  14
TORSDOF 7
ENDMDL
