MODEL 1
REMARK VINA RESULT:      -6.7      0.000      0.000
REMARK  Name = 
REMARK  5 active torsions:
REMARK  status: ('A' for Active; 'I' for Inactive)
REMARK    1  A    between atoms: C_2  and  N_3
REMARK    2  A    between atoms: N_3  and  C_4
REMARK    3  A    between atoms: C_5  and  C_6
REMARK    4  A    between atoms: C_6  and  C_7
REMARK    5  A    between atoms: C_7  and  C_13
REMARK                            x       y       z     vdW  Elec       q    Type
REMARK                         _______ _______ _______ _____ _____    ______ ____
ROOT
ATOM      1  C   UNL     1       7.957  -3.544  23.703  0.00  0.00    +0.000 C 
ATOM      2  C   UNL     1       6.804  -2.781  24.350  0.00  0.00    +0.000 C 
ATOM      3  N   UNL     1       7.366  -1.845  25.305  0.00  0.00    +0.000 NA
ATOM      4  C   UNL     1       6.519  -1.836  26.461  0.00  0.00    +0.000 C 
ATOM      5  C   UNL     1       8.666  -2.336  25.704  0.00  0.00    +0.000 C 
ATOM      6  C   UNL     1       9.212  -3.203  24.544  0.00  0.00    +0.000 C 
ENDROOT
BRANCH   1   7
ATOM      7  C   UNL     1       7.730  -5.024  23.746  0.00  0.00    +0.000 C 
ATOM      8  C   UNL     1       7.599  -5.603  22.354  0.00  0.00    +0.000 C 
ATOM      9  C   UNL     1       6.194  -5.470  21.860  0.00  0.00    +0.000 C 
ATOM     10  F   UNL     1       6.038  -5.107  20.575  0.00  0.00    +0.000 F 
ATOM     11  C   UNL     1       5.215  -4.857  22.682  0.00  0.00    +0.000 C 
ATOM     12  C   UNL     1       5.490  -4.709  24.162  0.00  0.00    +0.000 C 
ATOM     13  O   UNL     1       6.642  -5.366  24.518  0.00  0.00    +0.000 OA
ATOM     14  O   UNL     1       8.890  -5.601  24.329  0.00  0.00    +0.000 OA
ENDBRANCH   1   7
BRANCH   1  15
ATOM     15  C   UNL     1       8.162  -3.061  22.288  0.00  0.00    +0.000 C 
BRANCH  15  17
ATOM     16  C   UNL     1       8.716  -0.653  21.979  0.00  0.00    +0.000 C 
ATOM     17  C   UNL     1       7.665  -1.646  22.111  0.00  0.00    +0.000 C 
ATOM     18  C   UNL     1       6.465  -1.554  21.256  0.00  0.00    +0.000 C 
ATOM     19  C   UNL     1       6.554  -0.494  20.214  0.00  0.00    +0.000 C 
ATOM     20  C   UNL     1       7.818   0.016  19.813  0.00  0.00    +0.000 C 
ATOM     21  N   UNL     1       8.821   0.028  20.736  0.00  0.00    +0.000 NA
BRANCH  16  22
ATOM     22  N   UNL     1       8.832   0.244  23.085  0.00  0.00    +0.000 NA
BRANCH  22  24
ATOM     23  C   UNL     1      10.618   0.566  24.687  0.00  0.00    +0.000 C 
ATOM     24  C   UNL     1      10.211   0.628  23.221  0.00  0.00    +0.000 C 
ENDBRANCH  22  24
ENDBRANCH  16  22
ENDBRANCH  15  17
ENDBRANCH   1  15
TORSDOF 5
ENDMDL
MODEL 2
REMARK VINA RESULT:      -6.2      3.145      5.341
REMARK  Name = 
REMARK  5 active torsions:
REMARK  status: ('A' for Active; 'I' for Inactive)
REMARK    1  A    between atoms: C_2  and  N_3
REMARK    2  A    between atoms: N_3  and  C_4
REMARK    3  A    between atoms: C_5  and  C_6
REMARK    4  A    between atoms: C_6  and  C_7
REMARK    5  A    between atoms: C_7  and  C_13
REMARK                            x       y       z     vdW  Elec       q    Type
REMARK                         _______ _______ _______ _____ _____    ______ ____
ROOT
ATOM      1  C   UNL     1       7.881  -0.204  23.892  0.00  0.00    +0.000 C 
ATOM      2  C   UNL     1       9.014  -1.133  23.466  0.00  0.00    +0.000 C 
ATOM      3  N   UNL     1       8.635  -2.490  23.813  0.00  0.00    +0.000 NA
ATOM      4  C   UNL     1       9.802  -3.158  24.310  0.00  0.00    +0.000 C 
ATOM      5  C   UNL     1       7.664  -2.426  24.881  0.00  0.00    +0.000 C 
ATOM      6  C   UNL     1       6.939  -1.064  24.771  0.00  0.00    +0.000 C 
ENDROOT
BRANCH   1   7
ATOM      7  C   UNL     1       8.390   0.947  24.705  0.00  0.00    +0.000 C 
ATOM      8  C   UNL     1       7.986   2.273  24.097  0.00  0.00    +0.000 C 
ATOM      9  C   UNL     1       8.957   2.681  23.035  0.00  0.00    +0.000 C 
ATOM     10  F   UNL     1       8.438   3.217  21.917  0.00  0.00    +0.000 F 
ATOM     11  C   UNL     1      10.060   1.844  22.731  0.00  0.00    +0.000 C 
ATOM     12  C   UNL     1      10.464   0.776  23.723  0.00  0.00    +0.000 C 
ATOM     13  O   UNL     1       9.753   0.895  24.893  0.00  0.00    +0.000 OA
ATOM     14  O   UNL     1       7.760   0.863  25.975  0.00  0.00    +0.000 OA
ENDBRANCH   1   7
BRANCH   1  15
ATOM     15  C   UNL     1       7.125   0.274  22.676  0.00  0.00    +0.000 C 
BRANCH  15  17
ATOM     16  C   UNL     1       6.300  -1.461  21.092  0.00  0.00    +0.000 C 
ATOM     17  C   UNL     1       7.404  -0.599  21.476  0.00  0.00    +0.000 C 
ATOM     18  C   UNL     1       8.191   0.085  20.430  0.00  0.00    +0.000 C 
ATOM     19  C   UNL     1       7.636  -0.084  19.058  0.00  0.00    +0.000 C 
ATOM     20  C   UNL     1       6.276  -0.451  18.873  0.00  0.00    +0.000 C 
ATOM     21  N   UNL     1       5.688  -1.220  19.832  0.00  0.00    +0.000 NA
BRANCH  16  22
ATOM     22  N   UNL     1       6.528  -2.854  21.312  0.00  0.00    +0.000 NA
BRANCH  22  24
ATOM     23  C   UNL     1       5.816  -4.774  22.603  0.00  0.00    +0.000 C 
ATOM     24  C   UNL     1       5.469  -3.367  22.138  0.00  0.00    +0.000 C 
ENDBRANCH  22  24
ENDBRANCH  16  22
ENDBRANCH  15  17
ENDBRANCH   1  15
TORSDOF 5
ENDMDL
MODEL 3
REMARK VINA RESULT:      -6.1      1.513      1.793
REMARK  Name = 
REMARK  5 active torsions:
REMARK  status: ('A' for Active; 'I' for Inactive)
REMARK    1  A    between atoms: C_2  and  N_3
REMARK    2  A    between atoms: N_3  and  C_4
REMARK    3  A    between atoms: C_5  and  C_6
REMARK    4  A    between atoms: C_6  and  C_7
REMARK    5  A    between atoms: C_7  and  C_13
REMARK                            x       y       z     vdW  Elec       q    Type
REMARK                         _______ _______ _______ _____ _____    ______ ____
ROOT
ATOM      1  C   UNL     1       6.386  -3.402  24.199  0.00  0.00    +0.000 C 
ATOM      2  C   UNL     1       4.863  -3.389  24.287  0.00  0.00    +0.000 C 
ATOM      3  N   UNL     1       4.474  -2.299  25.161  0.00  0.00    +0.000 NA
ATOM      4  C   UNL     1       3.380  -2.753  25.969  0.00  0.00    +0.000 C 
ATOM      5  C   UNL     1       5.587  -2.005  26.035  0.00  0.00    +0.000 C 
ATOM      6  C   UNL     1       6.880  -2.434  25.303  0.00  0.00    +0.000 C 
ENDROOT
BRANCH   1   7
ATOM      7  C   UNL     1       6.942  -4.768  24.465  0.00  0.00    +0.000 C 
ATOM      8  C   UNL     1       7.734  -5.281  23.283  0.00  0.00    +0.000 C 
ATOM      9  C   UNL     1       6.826  -5.920  22.280  0.00  0.00    +0.000 C 
ATOM     10  F   UNL     1       7.081  -5.661  20.985  0.00  0.00    +0.000 F 
ATOM     11  C   UNL     1       5.430  -5.964  22.522  0.00  0.00    +0.000 C 
ATOM     12  C   UNL     1       4.924  -5.735  23.930  0.00  0.00    +0.000 C 
ATOM     13  O   UNL     1       5.965  -5.670  24.824  0.00  0.00    +0.000 OA
ATOM     14  O   UNL     1       7.850  -4.638  25.549  0.00  0.00    +0.000 OA
ENDBRANCH   1   7
BRANCH   1  15
ATOM     15  C   UNL     1       6.827  -2.883  22.851  0.00  0.00    +0.000 C 
BRANCH  15  17
ATOM     16  C   UNL     1       9.012  -1.736  22.520  0.00  0.00    +0.000 C 
ATOM     17  C   UNL     1       7.642  -1.619  22.988  0.00  0.00    +0.000 C 
ATOM     18  C   UNL     1       6.872  -0.396  22.686  0.00  0.00    +0.000 C 
ATOM     19  C   UNL     1       7.578   0.544  21.772  0.00  0.00    +0.000 C 
ATOM     20  C   UNL     1       8.634   0.083  20.941  0.00  0.00    +0.000 C 
ATOM     21  N   UNL     1       9.387  -0.961  21.390  0.00  0.00    +0.000 NA
BRANCH  16  22
ATOM     22  N   UNL     1      10.000  -1.680  23.551  0.00  0.00    +0.000 NA
BRANCH  22  24
ATOM     23  C   UNL     1      10.180   0.294  24.942  0.00  0.00    +0.000 C 
ATOM     24  C   UNL     1      10.531  -0.345  23.605  0.00  0.00    +0.000 C 
ENDBRANCH  22  24
ENDBRANCH  16  22
ENDBRANCH  15  17
ENDBRANCH   1  15
TORSDOF 5
ENDMDL
MODEL 4
REMARK VINA RESULT:      -6.1      2.147      4.018
REMARK  Name = 
REMARK  5 active torsions:
REMARK  status: ('A' for Active; 'I' for Inactive)
REMARK    1  A    between atoms: C_2  and  N_3
REMARK    2  A    between atoms: N_3  and  C_4
REMARK    3  A    between atoms: C_5  and  C_6
REMARK    4  A    between atoms: C_6  and  C_7
REMARK    5  A    between atoms: C_7  and  C_13
REMARK                            x       y       z     vdW  Elec       q    Type
REMARK                         _______ _______ _______ _____ _____    ______ ____
ROOT
ATOM      1  C   UNL     1       7.108  -3.640  23.638  0.00  0.00    +0.000 C 
ATOM      2  C   UNL     1       7.312  -4.190  22.229  0.00  0.00    +0.000 C 
ATOM      3  N   UNL     1       6.006  -4.469  21.663  0.00  0.00    +0.000 NA
ATOM      4  C   UNL     1       6.100  -5.695  20.926  0.00  0.00    +0.000 C 
ATOM      5  C   UNL     1       5.078  -4.670  22.753  0.00  0.00    +0.000 C 
ATOM      6  C   UNL     1       5.615  -3.885  23.973  0.00  0.00    +0.000 C 
ENDROOT
BRANCH   1   7
ATOM      7  C   UNL     1       7.956  -4.363  24.639  0.00  0.00    +0.000 C 
ATOM      8  C   UNL     1       7.108  -5.115  25.641  0.00  0.00    +0.000 C 
ATOM      9  C   UNL     1       6.684  -4.211  26.754  0.00  0.00    +0.000 C 
ATOM     10  F   UNL     1       5.416  -4.337  27.183  0.00  0.00    +0.000 F 
ATOM     11  C   UNL     1       7.084  -2.851  26.746  0.00  0.00    +0.000 C 
ATOM     12  C   UNL     1       8.234  -2.431  25.857  0.00  0.00    +0.000 C 
ATOM     13  O   UNL     1       8.838  -3.524  25.283  0.00  0.00    +0.000 OA
ATOM     14  O   UNL     1       8.706  -5.331  23.919  0.00  0.00    +0.000 OA
ENDBRANCH   1   7
BRANCH   1  15
ATOM     15  C   UNL     1       7.382  -2.156  23.655  0.00  0.00    +0.000 C 
BRANCH  15  17
ATOM     16  C   UNL     1       7.227  -0.641  21.685  0.00  0.00    +0.000 C 
ATOM     17  C   UNL     1       7.980  -1.692  22.348  0.00  0.00    +0.000 C 
ATOM     18  C   UNL     1       9.455  -1.624  22.375  0.00  0.00    +0.000 C 
ATOM     19  C   UNL     1      10.004  -0.355  21.823  0.00  0.00    +0.000 C 
ATOM     20  C   UNL     1       9.189   0.806  21.738  0.00  0.00    +0.000 C 
ATOM     21  N   UNL     1       7.850   0.630  21.557  0.00  0.00    +0.000 NA
BRANCH  16  22
ATOM     22  N   UNL     1       6.586  -1.042  20.473  0.00  0.00    +0.000 NA
BRANCH  22  24
ATOM     23  C   UNL     1       5.467   0.280  18.782  0.00  0.00    +0.000 C 
ATOM     24  C   UNL     1       6.783  -0.013  19.489  0.00  0.00    +0.000 C 
ENDBRANCH  22  24
ENDBRANCH  16  22
ENDBRANCH  15  17
ENDBRANCH   1  15
TORSDOF 5
ENDMDL
MODEL 5
REMARK VINA RESULT:      -6.1      3.089      6.214
REMARK  Name = 
REMARK  5 active torsions:
REMARK  status: ('A' for Active; 'I' for Inactive)
REMARK    1  A    between atoms: C_2  and  N_3
REMARK    2  A    between atoms: N_3  and  C_4
REMARK    3  A    between atoms: C_5  and  C_6
REMARK    4  A    between atoms: C_6  and  C_7
REMARK    5  A    between atoms: C_7  and  C_13
REMARK                            x       y       z     vdW  Elec       q    Type
REMARK                         _______ _______ _______ _____ _____    ______ ____
ROOT
ATOM      1  C   UNL     1       8.424  -0.383  22.929  0.00  0.00    +0.000 C 
ATOM      2  C   UNL     1       7.134  -0.790  22.223  0.00  0.00    +0.000 C 
ATOM      3  N   UNL     1       7.409  -0.875  20.802  0.00  0.00    +0.000 NA
ATOM      4  C   UNL     1       6.279  -0.337  20.103  0.00  0.00    +0.000 C 
ATOM      5  C   UNL     1       8.554  -0.041  20.515  0.00  0.00    +0.000 C 
ATOM      6  C   UNL     1       9.400   0.048  21.807  0.00  0.00    +0.000 C 
ENDROOT
BRANCH   1   7
ATOM      7  C   UNL     1       8.203   0.776  23.853  0.00  0.00    +0.000 C 
ATOM      8  C   UNL     1       8.722   2.065  23.255  0.00  0.00    +0.000 C 
ATOM      9  C   UNL     1      10.185   2.217  23.523  0.00  0.00    +0.000 C 
ATOM     10  F   UNL     1      10.938   2.687  22.512  0.00  0.00    +0.000 F 
ATOM     11  C   UNL     1      10.876   1.212  24.245  0.00  0.00    +0.000 C 
ATOM     12  C   UNL     1      10.079   0.220  25.063  0.00  0.00    +0.000 C 
ATOM     13  O   UNL     1       8.750   0.565  25.099  0.00  0.00    +0.000 OA
ATOM     14  O   UNL     1       6.798   0.922  24.001  0.00  0.00    +0.000 OA
ENDBRANCH   1   7
BRANCH   1  15
ATOM     15  C   UNL     1       9.003  -1.567  23.664  0.00  0.00    +0.000 C 
BRANCH  15  17
ATOM     16  C   UNL     1       8.194  -3.884  23.247  0.00  0.00    +0.000 C 
ATOM     17  C   UNL     1       7.954  -2.621  23.923  0.00  0.00    +0.000 C 
ATOM     18  C   UNL     1       7.463  -2.623  25.316  0.00  0.00    +0.000 C 
ATOM     19  C   UNL     1       7.415  -3.978  25.931  0.00  0.00    +0.000 C 
ATOM     20  C   UNL     1       8.193  -5.039  25.395  0.00  0.00    +0.000 C 
ATOM     21  N   UNL     1       8.459  -5.021  24.058  0.00  0.00    +0.000 NA
BRANCH  16  22
ATOM     22  N   UNL     1       7.269  -4.185  22.201  0.00  0.00    +0.000 NA
BRANCH  22  24
ATOM     23  C   UNL     1       6.080  -5.985  21.102  0.00  0.00    +0.000 C 
ATOM     24  C   UNL     1       7.249  -5.609  22.002  0.00  0.00    +0.000 C 
ENDBRANCH  22  24
ENDBRANCH  16  22
ENDBRANCH  15  17
ENDBRANCH   1  15
TORSDOF 5
ENDMDL
MODEL 6
REMARK VINA RESULT:      -6.1      2.456      3.810
REMARK  Name = 
REMARK  5 active torsions:
REMARK  status: ('A' for Active; 'I' for Inactive)
REMARK    1  A    between atoms: C_2  and  N_3
REMARK    2  A    between atoms: N_3  and  C_4
REMARK    3  A    between atoms: C_5  and  C_6
REMARK    4  A    between atoms: C_6  and  C_7
REMARK    5  A    between atoms: C_7  and  C_13
REMARK                            x       y       z     vdW  Elec       q    Type
REMARK                         _______ _______ _______ _____ _____    ______ ____
ROOT
ATOM      1  C   UNL     1       7.755  -2.538  23.479  0.00  0.00    +0.000 C 
ATOM      2  C   UNL     1       6.989  -3.851  23.344  0.00  0.00    +0.000 C 
ATOM      3  N   UNL     1       5.592  -3.586  23.629  0.00  0.00    +0.000 NA
ATOM      4  C   UNL     1       5.084  -4.687  24.394  0.00  0.00    +0.000 C 
ATOM      5  C   UNL     1       5.518  -2.397  24.449  0.00  0.00    +0.000 C 
ATOM      6  C   UNL     1       6.771  -1.543  24.143  0.00  0.00    +0.000 C 
ENDROOT
BRANCH   1   7
ATOM      7  C   UNL     1       8.960  -2.691  24.357  0.00  0.00    +0.000 C 
ATOM      8  C   UNL     1       9.044  -1.577  25.377  0.00  0.00    +0.000 C 
ATOM      9  C   UNL     1       9.710  -0.375  24.788  0.00  0.00    +0.000 C 
ATOM     10  F   UNL     1       9.177   0.821  25.095  0.00  0.00    +0.000 F 
ATOM     11  C   UNL     1      10.149  -0.403  23.440  0.00  0.00    +0.000 C 
ATOM     12  C   UNL     1      10.302  -1.740  22.749  0.00  0.00    +0.000 C 
ATOM     13  O   UNL     1      10.128  -2.776  23.634  0.00  0.00    +0.000 OA
ATOM     14  O   UNL     1       8.791  -3.903  25.078  0.00  0.00    +0.000 OA
ENDBRANCH   1   7
BRANCH   1  15
ATOM     15  C   UNL     1       8.135  -2.022  22.112  0.00  0.00    +0.000 C 
BRANCH  15  17
ATOM     16  C   UNL     1       7.573   0.240  21.235  0.00  0.00    +0.000 C 
ATOM     17  C   UNL     1       7.082  -1.087  21.565  0.00  0.00    +0.000 C 
ATOM     18  C   UNL     1       6.125  -1.755  20.661  0.00  0.00    +0.000 C 
ATOM     19  C   UNL     1       5.885  -1.014  19.392  0.00  0.00    +0.000 C 
ATOM     20  C   UNL     1       6.824  -0.052  18.932  0.00  0.00    +0.000 C 
ATOM     21  N   UNL     1       7.551   0.624  19.866  0.00  0.00    +0.000 NA
BRANCH  16  22
ATOM     22  N   UNL     1       7.091   1.282  22.085  0.00  0.00    +0.000 NA
BRANCH  22  24
ATOM     23  C   UNL     1       7.306   3.692  22.170  0.00  0.00    +0.000 C 
ATOM     24  C   UNL     1       8.040   2.362  22.068  0.00  0.00    +0.000 C 
ENDBRANCH  22  24
ENDBRANCH  16  22
ENDBRANCH  15  17
ENDBRANCH   1  15
TORSDOF 5
ENDMDL
MODEL 7
REMARK VINA RESULT:      -6.0      3.277      4.736
REMARK  Name = 
REMARK  5 active torsions:
REMARK  status: ('A' for Active; 'I' for Inactive)
REMARK    1  A    between atoms: C_2  and  N_3
REMARK    2  A    between atoms: N_3  and  C_4
REMARK    3  A    between atoms: C_5  and  C_6
REMARK    4  A    between atoms: C_6  and  C_7
REMARK    5  A    between atoms: C_7  and  C_13
REMARK                            x       y       z     vdW  Elec       q    Type
REMARK                         _______ _______ _______ _____ _____    ______ ____
ROOT
ATOM      1  C   UNL     1       8.719  -0.078  23.679  0.00  0.00    +0.000 C 
ATOM      2  C   UNL     1       7.560  -0.857  24.294  0.00  0.00    +0.000 C 
ATOM      3  N   UNL     1       7.779  -0.930  25.725  0.00  0.00    +0.000 NA
ATOM      4  C   UNL     1       7.397  -2.242  26.161  0.00  0.00    +0.000 C 
ATOM      5  C   UNL     1       9.194  -0.769  25.972  0.00  0.00    +0.000 C 
ATOM      6  C   UNL     1       9.780   0.052  24.799  0.00  0.00    +0.000 C 
ENDROOT
BRANCH   1   7
ATOM      7  C   UNL     1       9.322  -0.812  22.520  0.00  0.00    +0.000 C 
ATOM      8  C   UNL     1       9.349   0.048  21.276  0.00  0.00    +0.000 C 
ATOM      9  C   UNL     1       8.040  -0.028  20.556  0.00  0.00    +0.000 C 
ATOM     10  F   UNL     1       7.560   1.124  20.056  0.00  0.00    +0.000 F 
ATOM     11  C   UNL     1       6.995  -0.829  21.080  0.00  0.00    +0.000 C 
ATOM     12  C   UNL     1       7.328  -1.885  22.111  0.00  0.00    +0.000 C 
ATOM     13  O   UNL     1       8.687  -2.008  22.269  0.00  0.00    +0.000 OA
ATOM     14  O   UNL     1      10.672  -1.087  22.865  0.00  0.00    +0.000 OA
ENDBRANCH   1   7
BRANCH   1  15
ATOM     15  C   UNL     1       8.254   1.300  23.274  0.00  0.00    +0.000 C 
BRANCH  15  17
ATOM     16  C   UNL     1       9.529   3.434  23.406  0.00  0.00    +0.000 C 
ATOM     17  C   UNL     1       8.874   2.368  24.143  0.00  0.00    +0.000 C 
ATOM     18  C   UNL     1       8.060   2.696  25.330  0.00  0.00    +0.000 C 
ATOM     19  C   UNL     1       7.882   4.159  25.546  0.00  0.00    +0.000 C 
ATOM     20  C   UNL     1       8.073   5.073  24.474  0.00  0.00    +0.000 C 
ATOM     21  N   UNL     1       8.970   4.737  23.505  0.00  0.00    +0.000 NA
BRANCH  16  22
ATOM     22  N   UNL     1      10.952   3.458  23.530  0.00  0.00    +0.000 NA
BRANCH  22  24
ATOM     23  C   UNL     1      12.872   4.889  23.173  0.00  0.00    +0.000 C 
ATOM     24  C   UNL     1      11.390   4.827  23.517  0.00  0.00    +0.000 C 
ENDBRANCH  22  24
ENDBRANCH  16  22
ENDBRANCH  15  17
ENDBRANCH   1  15
TORSDOF 5
ENDMDL
MODEL 8
REMARK VINA RESULT:      -5.9      2.896      5.522
REMARK  Name = 
REMARK  5 active torsions:
REMARK  status: ('A' for Active; 'I' for Inactive)
REMARK    1  A    between atoms: C_2  and  N_3
REMARK    2  A    between atoms: N_3  and  C_4
REMARK    3  A    between atoms: C_5  and  C_6
REMARK    4  A    between atoms: C_6  and  C_7
REMARK    5  A    between atoms: C_7  and  C_13
REMARK                            x       y       z     vdW  Elec       q    Type
REMARK                         _______ _______ _______ _____ _____    ______ ____
ROOT
ATOM      1  C   UNL     1       7.478  -0.888  23.813  0.00  0.00    +0.000 C 
ATOM      2  C   UNL     1       7.658   0.520  24.373  0.00  0.00    +0.000 C 
ATOM      3  N   UNL     1       6.644   0.732  25.387  0.00  0.00    +0.000 NA
ATOM      4  C   UNL     1       6.164   2.077  25.254  0.00  0.00    +0.000 C 
ATOM      5  C   UNL     1       5.544  -0.166  25.118  0.00  0.00    +0.000 C 
ATOM      6  C   UNL     1       6.115  -1.385  24.356  0.00  0.00    +0.000 C 
ENDROOT
BRANCH   1   7
ATOM      7  C   UNL     1       7.432  -0.883  22.315  0.00  0.00    +0.000 C 
ATOM      8  C   UNL     1       8.607  -1.631  21.725  0.00  0.00    +0.000 C 
ATOM      9  C   UNL     1       9.802  -0.737  21.624  0.00  0.00    +0.000 C 
ATOM     10  F   UNL     1      10.988  -1.275  21.957  0.00  0.00    +0.000 F 
ATOM     11  C   UNL     1       9.714   0.608  22.066  0.00  0.00    +0.000 C 
ATOM     12  C   UNL     1       8.347   1.228  22.255  0.00  0.00    +0.000 C 
ATOM     13  O   UNL     1       7.358   0.391  21.797  0.00  0.00    +0.000 OA
ATOM     14  O   UNL     1       6.258  -1.587  21.937  0.00  0.00    +0.000 OA
ENDBRANCH   1   7
BRANCH   1  15
ATOM     15  C   UNL     1       8.575  -1.789  24.325  0.00  0.00    +0.000 C 
BRANCH  15  17
ATOM     16  C   UNL     1       8.195  -4.219  23.938  0.00  0.00    +0.000 C 
ATOM     17  C   UNL     1       8.019  -3.095  24.841  0.00  0.00    +0.000 C 
ATOM     18  C   UNL     1       8.229  -3.285  26.290  0.00  0.00    +0.000 C 
ATOM     19  C   UNL     1       8.765  -4.628  26.644  0.00  0.00    +0.000 C 
ATOM     20  C   UNL     1       9.426  -5.421  25.667  0.00  0.00    +0.000 C 
ATOM     21  N   UNL     1       9.042  -5.277  24.367  0.00  0.00    +0.000 NA
BRANCH  16  22
ATOM     22  N   UNL     1       6.987  -4.712  23.356  0.00  0.00    +0.000 NA
BRANCH  22  24
ATOM     23  C   UNL     1       6.026  -5.828  21.435  0.00  0.00    +0.000 C 
ATOM     24  C   UNL     1       7.303  -5.329  22.097  0.00  0.00    +0.000 C 
ENDBRANCH  22  24
ENDBRANCH  16  22
ENDBRANCH  15  17
ENDBRANCH   1  15
TORSDOF 5
ENDMDL
MODEL 9
REMARK VINA RESULT:      -5.9      3.670      6.377
REMARK  Name = 
REMARK  5 active torsions:
REMARK  status: ('A' for Active; 'I' for Inactive)
REMARK    1  A    between atoms: C_2  and  N_3
REMARK    2  A    between atoms: N_3  and  C_4
REMARK    3  A    between atoms: C_5  and  C_6
REMARK    4  A    between atoms: C_6  and  C_7
REMARK    5  A    between atoms: C_7  and  C_13
REMARK                            x       y       z     vdW  Elec       q    Type
REMARK                         _______ _______ _______ _____ _____    ______ ____
ROOT
ATOM      1  C   UNL     1       8.383   0.633  22.382  0.00  0.00    +0.000 C 
ATOM      2  C   UNL     1       6.994   0.820  21.780  0.00  0.00    +0.000 C 
ATOM      3  N   UNL     1       6.916   0.017  20.575  0.00  0.00    +0.000 NA
ATOM      4  C   UNL     1       6.198   0.772  19.590  0.00  0.00    +0.000 C 
ATOM      5  C   UNL     1       8.260  -0.194  20.087  0.00  0.00    +0.000 C 
ATOM      6  C   UNL     1       9.215  -0.102  21.301  0.00  0.00    +0.000 C 
ENDROOT
BRANCH   1   7
ATOM      7  C   UNL     1       9.033   1.949  22.685  0.00  0.00    +0.000 C 
ATOM      8  C   UNL     1       9.346   2.083  24.159  0.00  0.00    +0.000 C 
ATOM      9  C   UNL     1       8.149   2.579  24.906  0.00  0.00    +0.000 C 
ATOM     10  F   UNL     1       7.901   2.004  26.097  0.00  0.00    +0.000 F 
ATOM     11  C   UNL     1       6.943   2.841  24.209  0.00  0.00    +0.000 C 
ATOM     12  C   UNL     1       6.987   3.000  22.705  0.00  0.00    +0.000 C 
ATOM     13  O   UNL     1       8.282   3.018  22.249  0.00  0.00    +0.000 OA
ATOM     14  O   UNL     1      10.274   1.963  21.993  0.00  0.00    +0.000 OA
ENDBRANCH   1   7
BRANCH   1  15
ATOM     15  C   UNL     1       8.297  -0.233  23.615  0.00  0.00    +0.000 C 
BRANCH  15  17
ATOM     16  C   UNL     1       7.398  -2.548  23.439  0.00  0.00    +0.000 C 
ATOM     17  C   UNL     1       7.087  -1.136  23.570  0.00  0.00    +0.000 C 
ATOM     18  C   UNL     1       6.009  -0.709  24.484  0.00  0.00    +0.000 C 
ATOM     19  C   UNL     1       5.450  -1.818  25.306  0.00  0.00    +0.000 C 
ATOM     20  C   UNL     1       6.197  -3.009  25.511  0.00  0.00    +0.000 C 
ATOM     21  N   UNL     1       7.056  -3.397  24.527  0.00  0.00    +0.000 NA
BRANCH  16  22
ATOM     22  N   UNL     1       7.036  -3.125  22.183  0.00  0.00    +0.000 NA
BRANCH  22  24
ATOM     23  C   UNL     1       6.259  -5.241  21.299  0.00  0.00    +0.000 C 
ATOM     24  C   UNL     1       7.212  -4.550  22.265  0.00  0.00    +0.000 C 
ENDBRANCH  22  24
ENDBRANCH  16  22
ENDBRANCH  15  17
ENDBRANCH   1  15
TORSDOF 5
ENDMDL
