MODEL 1
REMARK VINA RESULT:      -6.3      0.000      0.000
REMARK  Name = 
REMARK  7 active torsions:
REMARK  status: ('A' for Active; 'I' for Inactive)
REMARK    1  A    between atoms: C_2  and  C_3
REMARK    2  A    between atoms: C_3  and  C_4
REMARK    3  A    between atoms: C_3  and  C_11
REMARK    4  A    between atoms: C_5  and  C_6
REMARK    5  A    between atoms: C_11  and  C_12
REMARK    6  A    between atoms: C_12  and  C_13
REMARK    7  A    between atoms: CA_19  and  C_20
REMARK                            x       y       z     vdW  Elec       q    Type
REMARK                         _______ _______ _______ _____ _____    ______ ____
ROOT
ATOM      1  C   UNL     1       7.742  -3.088  23.439  0.00  0.00    +0.000 C 
ATOM      2  C   UNL     1       8.153  -3.748  24.497  0.00  0.00    +0.000 C 
ATOM      3 CL   UNL     1       9.886  -4.120  24.844  0.00  0.00    +0.000 Cl
ATOM      4  C   UNL     1       7.407  -4.346  25.756  0.00  0.00    +0.000 C 
ENDROOT
BRANCH   1   5
ATOM      5  C   UNL     1       7.267  -3.694  21.981  0.00  0.00    +0.000 C 
ATOM      6  C   UNL     1       7.198  -5.197  22.338  0.00  0.00    +0.000 C 
ATOM      7  C   UNL     1       5.894  -5.588  22.949  0.00  0.00    +0.000 C 
ATOM      8  C   UNL     1       5.078  -4.419  23.395  0.00  0.00    +0.000 C 
ATOM      9  O   UNL     1       4.601  -4.283  24.486  0.00  0.00    +0.000 OA
ATOM     10  N   UNL     1       4.884  -3.451  22.426  0.00  0.00    +0.000 NA
ATOM     11  CA  UNL     1       5.993  -3.195  21.584  0.00  0.00    +0.000 C 
BRANCH  11  12
ATOM     12  C   UNL     1       5.792  -2.453  20.350  0.00  0.00    +0.000 C 
ATOM     13  O   UNL     1       5.536  -3.317  19.267  0.00  0.00    +0.000 OA
ENDBRANCH  11  12
ENDBRANCH   1   5
BRANCH   1  14
ATOM     14  C   UNL     1       7.496  -1.507  23.216  0.00  0.00    +0.000 C 
ATOM     15  O   UNL     1       6.714  -1.083  24.255  0.00  0.00    +0.000 OA
BRANCH  14  16
ATOM     16  C   UNL     1       8.613  -0.793  22.824  0.00  0.00    +0.000 C 
BRANCH  16  17
ATOM     17  C   UNL     1       8.696  -0.143  21.452  0.00  0.00    +0.000 C 
ATOM     18  C   UNL     1       7.330   0.644  21.266  0.00  0.00    +0.000 C 
ATOM     19  C   UNL     1       7.559   1.906  22.020  0.00  0.00    +0.000 C 
ATOM     20  C   UNL     1       8.985   1.759  22.613  0.00  0.00    +0.000 C 
ATOM     21  N   UNL     1       9.628   1.046  21.676  0.00  0.00    +0.000 NA
BRANCH  18  22
ATOM     22  C   UNL     1       6.870   0.691  19.792  0.00  0.00    +0.000 C 
ATOM     23  O   UNL     1       7.894  -0.000  19.070  0.00  0.00    +0.000 OA
ENDBRANCH  18  22
ENDBRANCH  16  17
BRANCH  16  25
ATOM     24  C   UNL     1      10.011  -0.490  24.851  0.00  0.00    +0.000 C 
ATOM     25  C   UNL     1       9.961  -0.989  23.412  0.00  0.00    +0.000 C 
ENDBRANCH  16  25
ENDBRANCH  14  16
ENDBRANCH   1  14
TORSDOF 7
ENDMDL
MODEL 2
REMARK VINA RESULT:      -6.1      2.456      5.516
REMARK  Name = 
REMARK  7 active torsions:
REMARK  status: ('A' for Active; 'I' for Inactive)
REMARK    1  A    between atoms: C_2  and  C_3
REMARK    2  A    between atoms: C_3  and  C_4
REMARK    3  A    between atoms: C_3  and  C_11
REMARK    4  A    between atoms: C_5  and  C_6
REMARK    5  A    between atoms: C_11  and  C_12
REMARK    6  A    between atoms: C_12  and  C_13
REMARK    7  A    between atoms: CA_19  and  C_20
REMARK                            x       y       z     vdW  Elec       q    Type
REMARK                         _______ _______ _______ _____ _____    ______ ____
ROOT
ATOM      1  C   UNL     1       7.866  -0.129  24.263  0.00  0.00    +0.000 C 
ATOM      2  C   UNL     1       8.251   0.983  24.844  0.00  0.00    +0.000 C 
ATOM      3 CL   UNL     1       7.514   1.638  26.358  0.00  0.00    +0.000 Cl
ATOM      4  C   UNL     1       9.402   2.022  24.536  0.00  0.00    +0.000 C 
ENDROOT
BRANCH   1   5
ATOM      5  C   UNL     1       6.744  -0.318  23.069  0.00  0.00    +0.000 C 
ATOM      6  C   UNL     1       6.739   1.116  22.492  0.00  0.00    +0.000 C 
ATOM      7  C   UNL     1       7.811   1.336  21.478  0.00  0.00    +0.000 C 
ATOM      8  C   UNL     1       8.854   0.266  21.481  0.00  0.00    +0.000 C 
ATOM      9  O   UNL     1      10.036   0.451  21.552  0.00  0.00    +0.000 OA
ATOM     10  N   UNL     1       8.357  -1.021  21.384  0.00  0.00    +0.000 NA
ATOM     11  CA  UNL     1       7.157  -1.270  22.093  0.00  0.00    +0.000 C 
BRANCH  11  12
ATOM     12  C   UNL     1       6.390  -2.468  21.793  0.00  0.00    +0.000 C 
ATOM     13  O   UNL     1       5.672  -2.331  20.590  0.00  0.00    +0.000 OA
ENDBRANCH  11  12
ENDBRANCH   1   5
BRANCH   1  14
ATOM     14  C   UNL     1       8.382  -1.648  24.451  0.00  0.00    +0.000 C 
ATOM     15  O   UNL     1       9.748  -1.604  24.404  0.00  0.00    +0.000 OA
BRANCH  14  16
ATOM     16  C   UNL     1       7.723  -2.371  25.427  0.00  0.00    +0.000 C 
BRANCH  16  17
ATOM     17  C   UNL     1       7.219  -3.782  25.163  0.00  0.00    +0.000 C 
ATOM     18  C   UNL     1       8.307  -4.458  24.225  0.00  0.00    +0.000 C 
ATOM     19  C   UNL     1       9.368  -4.877  25.181  0.00  0.00    +0.000 C 
ATOM     20  C   UNL     1       8.863  -4.395  26.567  0.00  0.00    +0.000 C 
ATOM     21  N   UNL     1       7.531  -4.522  26.462  0.00  0.00    +0.000 NA
BRANCH  18  22
ATOM     22  C   UNL     1       7.691  -5.484  23.248  0.00  0.00    +0.000 C 
ATOM     23  O   UNL     1       6.295  -5.489  23.561  0.00  0.00    +0.000 OA
ENDBRANCH  18  22
ENDBRANCH  16  17
BRANCH  16  25
ATOM     24  C   UNL     1       5.507  -1.730  26.338  0.00  0.00    +0.000 C 
ATOM     25  C   UNL     1       7.013  -1.750  26.571  0.00  0.00    +0.000 C 
ENDBRANCH  16  25
ENDBRANCH  14  16
ENDBRANCH   1  14
TORSDOF 7
ENDMDL
MODEL 3
REMARK VINA RESULT:      -6.1      2.703      6.070
REMARK  Name = 
REMARK  7 active torsions:
REMARK  status: ('A' for Active; 'I' for Inactive)
REMARK    1  A    between atoms: C_2  and  C_3
REMARK    2  A    between atoms: C_3  and  C_4
REMARK    3  A    between atoms: C_3  and  C_11
REMARK    4  A    between atoms: C_5  and  C_6
REMARK    5  A    between atoms: C_11  and  C_12
REMARK    6  A    between atoms: C_12  and  C_13
REMARK    7  A    between atoms: CA_19  and  C_20
REMARK                            x       y       z     vdW  Elec       q    Type
REMARK                         _______ _______ _______ _____ _____    ______ ____
ROOT
ATOM      1  C   UNL     1       7.373  -1.567  22.677  0.00  0.00    +0.000 C 
ATOM      2  C   UNL     1       7.093  -0.670  21.762  0.00  0.00    +0.000 C 
ATOM      3 CL   UNL     1       6.311  -1.053  20.179  0.00  0.00    +0.000 Cl
ATOM      4  C   UNL     1       7.244   0.903  21.706  0.00  0.00    +0.000 C 
ENDROOT
BRANCH   1   5
ATOM      5  C   UNL     1       8.778  -2.407  22.884  0.00  0.00    +0.000 C 
ATOM      6  C   UNL     1       9.750  -1.473  22.126  0.00  0.00    +0.000 C 
ATOM      7  C   UNL     1      10.265  -0.361  22.978  0.00  0.00    +0.000 C 
ATOM      8  C   UNL     1       9.493  -0.182  24.245  0.00  0.00    +0.000 C 
ATOM      9  O   UNL     1       9.024   0.852  24.630  0.00  0.00    +0.000 OA
ATOM     10  N   UNL     1       9.347  -1.334  24.995  0.00  0.00    +0.000 NA
ATOM     11  CA  UNL     1       9.134  -2.524  24.258  0.00  0.00    +0.000 C 
BRANCH  11  12
ATOM     12  C   UNL     1       9.297  -3.808  24.919  0.00  0.00    +0.000 C 
ATOM     13  O   UNL     1       8.969  -4.874  24.059  0.00  0.00    +0.000 OA
ENDBRANCH  11  12
ENDBRANCH   1   5
BRANCH   1  14
ATOM     14  C   UNL     1       6.502  -2.103  23.927  0.00  0.00    +0.000 C 
ATOM     15  O   UNL     1       5.968  -0.998  24.532  0.00  0.00    +0.000 OA
BRANCH  14  16
ATOM     16  C   UNL     1       5.729  -3.218  23.663  0.00  0.00    +0.000 C 
BRANCH  16  17
ATOM     17  C   UNL     1       5.658  -4.382  24.640  0.00  0.00    +0.000 C 
ATOM     18  C   UNL     1       5.739  -3.734  26.087  0.00  0.00    +0.000 C 
ATOM     19  C   UNL     1       4.345  -3.275  26.333  0.00  0.00    +0.000 C 
ATOM     20  C   UNL     1       3.575  -3.637  25.035  0.00  0.00    +0.000 C 
ATOM     21  N   UNL     1       4.180  -4.766  24.633  0.00  0.00    +0.000 NA
BRANCH  18  22
ATOM     22  C   UNL     1       6.448  -4.651  27.108  0.00  0.00    +0.000 C 
ATOM     23  O   UNL     1       6.755  -5.841  26.374  0.00  0.00    +0.000 OA
ENDBRANCH  18  22
ENDBRANCH  16  17
BRANCH  16  25
ATOM     24  C   UNL     1       6.142  -4.830  21.824  0.00  0.00    +0.000 C 
ATOM     25  C   UNL     1       5.325  -3.634  22.298  0.00  0.00    +0.000 C 
ENDBRANCH  16  25
ENDBRANCH  14  16
ENDBRANCH   1  14
TORSDOF 7
ENDMDL
MODEL 4
REMARK VINA RESULT:      -6.0      3.130      6.704
REMARK  Name = 
REMARK  7 active torsions:
REMARK  status: ('A' for Active; 'I' for Inactive)
REMARK    1  A    between atoms: C_2  and  C_3
REMARK    2  A    between atoms: C_3  and  C_4
REMARK    3  A    between atoms: C_3  and  C_11
REMARK    4  A    between atoms: C_5  and  C_6
REMARK    5  A    between atoms: C_11  and  C_12
REMARK    6  A    between atoms: C_12  and  C_13
REMARK    7  A    between atoms: CA_19  and  C_20
REMARK                            x       y       z     vdW  Elec       q    Type
REMARK                         _______ _______ _______ _____ _____    ______ ____
ROOT
ATOM      1  C   UNL     1       7.109  -3.811  25.210  0.00  0.00    +0.000 C 
ATOM      2  C   UNL     1       6.588  -2.672  25.603  0.00  0.00    +0.000 C 
ATOM      3 CL   UNL     1       5.235  -1.834  24.748  0.00  0.00    +0.000 Cl
ATOM      4  C   UNL     1       6.850  -1.734  26.848  0.00  0.00    +0.000 C 
ENDROOT
BRANCH   1   5
ATOM      5  C   UNL     1       8.404  -4.050  24.218  0.00  0.00    +0.000 C 
ATOM      6  C   UNL     1       7.966  -5.367  23.536  0.00  0.00    +0.000 C 
ATOM      7  C   UNL     1       7.078  -5.140  22.357  0.00  0.00    +0.000 C 
ATOM      8  C   UNL     1       6.532  -3.751  22.289  0.00  0.00    +0.000 C 
ATOM      9  O   UNL     1       5.374  -3.468  22.167  0.00  0.00    +0.000 OA
ATOM     10  N   UNL     1       7.487  -2.754  22.370  0.00  0.00    +0.000 NA
ATOM     11  CA  UNL     1       8.553  -2.997  23.270  0.00  0.00    +0.000 C 
BRANCH  11  12
ATOM     12  C   UNL     1       9.754  -2.183  23.185  0.00  0.00    +0.000 C 
ATOM     13  O   UNL     1       9.965  -1.714  21.874  0.00  0.00    +0.000 OA
ENDBRANCH  11  12
ENDBRANCH   1   5
BRANCH   1  14
ATOM     14  C   UNL     1       6.727  -5.332  25.598  0.00  0.00    +0.000 C 
ATOM     15  O   UNL     1       7.708  -5.777  26.442  0.00  0.00    +0.000 OA
BRANCH  14  16
ATOM     16  C   UNL     1       5.391  -5.544  25.880  0.00  0.00    +0.000 C 
BRANCH  16  17
ATOM     17  C   UNL     1       4.951  -6.223  27.168  0.00  0.00    +0.000 C 
ATOM     18  C   UNL     1       5.672  -5.430  28.340  0.00  0.00    +0.000 C 
ATOM     19  C   UNL     1       4.806  -4.233  28.523  0.00  0.00    +0.000 C 
ATOM     20  C   UNL     1       3.695  -4.382  27.451  0.00  0.00    +0.000 C 
ATOM     21  N   UNL     1       3.527  -5.711  27.374  0.00  0.00    +0.000 NA
BRANCH  18  22
ATOM     22  C   UNL     1       6.014  -6.334  29.544  0.00  0.00    +0.000 C 
ATOM     23  O   UNL     1       6.255  -7.624  28.972  0.00  0.00    +0.000 OA
ENDBRANCH  18  22
ENDBRANCH  16  17
BRANCH  16  25
ATOM     24  C   UNL     1       4.396  -6.945  24.092  0.00  0.00    +0.000 C 
ATOM     25  C   UNL     1       4.334  -5.620  24.842  0.00  0.00    +0.000 C 
ENDBRANCH  16  25
ENDBRANCH  14  16
ENDBRANCH   1  14
TORSDOF 7
ENDMDL
MODEL 5
REMARK VINA RESULT:      -6.0      2.583      6.011
REMARK  Name = 
REMARK  7 active torsions:
REMARK  status: ('A' for Active; 'I' for Inactive)
REMARK    1  A    between atoms: C_2  and  C_3
REMARK    2  A    between atoms: C_3  and  C_4
REMARK    3  A    between atoms: C_3  and  C_11
REMARK    4  A    between atoms: C_5  and  C_6
REMARK    5  A    between atoms: C_11  and  C_12
REMARK    6  A    between atoms: C_12  and  C_13
REMARK    7  A    between atoms: CA_19  and  C_20
REMARK                            x       y       z     vdW  Elec       q    Type
REMARK                         _______ _______ _______ _____ _____    ______ ____
ROOT
ATOM      1  C   UNL     1       8.961  -0.519  23.927  0.00  0.00    +0.000 C 
ATOM      2  C   UNL     1       8.489  -0.158  25.097  0.00  0.00    +0.000 C 
ATOM      3 CL   UNL     1       6.943   0.749  25.326  0.00  0.00    +0.000 Cl
ATOM      4  C   UNL     1       8.979  -0.394  26.581  0.00  0.00    +0.000 C 
ENDROOT
BRANCH   1   5
ATOM      5  C   UNL     1      10.012   0.300  22.956  0.00  0.00    +0.000 C 
ATOM      6  C   UNL     1       9.567  -0.245  21.579  0.00  0.00    +0.000 C 
ATOM      7  C   UNL     1       8.415   0.507  21.002  0.00  0.00    +0.000 C 
ATOM      8  C   UNL     1       7.726   1.384  21.997  0.00  0.00    +0.000 C 
ATOM      9  O   UNL     1       6.548   1.390  22.216  0.00  0.00    +0.000 OA
ATOM     10  N   UNL     1       8.566   2.242  22.684  0.00  0.00    +0.000 NA
ATOM     11  CA  UNL     1       9.829   1.711  23.040  0.00  0.00    +0.000 C 
BRANCH  11  12
ATOM     12  C   UNL     1      10.887   2.614  23.459  0.00  0.00    +0.000 C 
ATOM     13  O   UNL     1      10.403   3.925  23.637  0.00  0.00    +0.000 OA
ENDBRANCH  11  12
ENDBRANCH   1   5
BRANCH   1  14
ATOM     14  C   UNL     1       8.745  -1.877  23.079  0.00  0.00    +0.000 C 
ATOM     15  O   UNL     1       9.931  -2.557  23.124  0.00  0.00    +0.000 OA
BRANCH  14  16
ATOM     16  C   UNL     1       7.543  -2.520  23.305  0.00  0.00    +0.000 C 
BRANCH  16  17
ATOM     17  C   UNL     1       7.493  -3.978  23.737  0.00  0.00    +0.000 C 
ATOM     18  C   UNL     1       8.300  -4.048  25.102  0.00  0.00    +0.000 C 
ATOM     19  C   UNL     1       7.309  -3.582  26.109  0.00  0.00    +0.000 C 
ATOM     20  C   UNL     1       6.040  -3.240  25.284  0.00  0.00    +0.000 C 
ATOM     21  N   UNL     1       6.078  -4.139  24.289  0.00  0.00    +0.000 NA
BRANCH  18  22
ATOM     22  C   UNL     1       9.025  -5.399  25.292  0.00  0.00    +0.000 C 
ATOM     23  O   UNL     1      10.411  -5.096  25.112  0.00  0.00    +0.000 OA
ENDBRANCH  18  22
ENDBRANCH  16  17
BRANCH  16  25
ATOM     24  C   UNL     1       6.207  -2.421  21.217  0.00  0.00    +0.000 C 
ATOM     25  C   UNL     1       6.256  -2.091  22.704  0.00  0.00    +0.000 C 
ENDBRANCH  16  25
ENDBRANCH  14  16
ENDBRANCH   1  14
TORSDOF 7
ENDMDL
MODEL 6
REMARK VINA RESULT:      -5.9      2.741      4.290
REMARK  Name = 
REMARK  7 active torsions:
REMARK  status: ('A' for Active; 'I' for Inactive)
REMARK    1  A    between atoms: C_2  and  C_3
REMARK    2  A    between atoms: C_3  and  C_4
REMARK    3  A    between atoms: C_3  and  C_11
REMARK    4  A    between atoms: C_5  and  C_6
REMARK    5  A    between atoms: C_11  and  C_12
REMARK    6  A    between atoms: C_12  and  C_13
REMARK    7  A    between atoms: CA_19  and  C_20
REMARK                            x       y       z     vdW  Elec       q    Type
REMARK                         _______ _______ _______ _____ _____    ______ ____
ROOT
ATOM      1  C   UNL     1       7.653  -2.309  23.287  0.00  0.00    +0.000 C 
ATOM      2  C   UNL     1       7.096  -3.110  22.409  0.00  0.00    +0.000 C 
ATOM      3 CL   UNL     1       5.773  -2.611  21.285  0.00  0.00    +0.000 Cl
ATOM      4  C   UNL     1       7.363  -4.611  21.992  0.00  0.00    +0.000 C 
ENDROOT
BRANCH   1   5
ATOM      5  C   UNL     1       7.233  -2.077  24.865  0.00  0.00    +0.000 C 
ATOM      6  C   UNL     1       6.235  -3.245  25.039  0.00  0.00    +0.000 C 
ATOM      7  C   UNL     1       6.904  -4.533  25.385  0.00  0.00    +0.000 C 
ATOM      8  C   UNL     1       8.381  -4.509  25.158  0.00  0.00    +0.000 C 
ATOM      9  O   UNL     1       8.997  -5.318  24.524  0.00  0.00    +0.000 OA
ATOM     10  N   UNL     1       9.037  -3.450  25.758  0.00  0.00    +0.000 NA
ATOM     11  CA  UNL     1       8.349  -2.212  25.740  0.00  0.00    +0.000 C 
BRANCH  11  12
ATOM     12  C   UNL     1       8.792  -1.140  26.616  0.00  0.00    +0.000 C 
ATOM     13  O   UNL     1       7.718  -0.596  27.347  0.00  0.00    +0.000 OA
ENDBRANCH  11  12
ENDBRANCH   1   5
BRANCH   1  14
ATOM     14  C   UNL     1       8.946  -1.349  23.163  0.00  0.00    +0.000 C 
ATOM     15  O   UNL     1      10.036  -2.172  23.079  0.00  0.00    +0.000 OA
BRANCH  14  16
ATOM     16  C   UNL     1       8.794  -0.274  22.307  0.00  0.00    +0.000 C 
BRANCH  16  17
ATOM     17  C   UNL     1       8.206   1.044  22.788  0.00  0.00    +0.000 C 
ATOM     18  C   UNL     1       8.820   1.286  24.232  0.00  0.00    +0.000 C 
ATOM     19  C   UNL     1      10.168   1.845  23.940  0.00  0.00    +0.000 C 
ATOM     20  C   UNL     1      10.265   1.853  22.391  0.00  0.00    +0.000 C 
ATOM     21  N   UNL     1       9.000   2.093  22.012  0.00  0.00    +0.000 NA
BRANCH  18  22
ATOM     22  C   UNL     1       7.851   2.041  25.168  0.00  0.00    +0.000 C 
ATOM     23  O   UNL     1       8.351   3.381  25.202  0.00  0.00    +0.000 OA
ENDBRANCH  18  22
ENDBRANCH  16  17
BRANCH  16  25
ATOM     24  C   UNL     1       7.373   0.164  20.322  0.00  0.00    +0.000 C 
ATOM     25  C   UNL     1       8.691  -0.405  20.833  0.00  0.00    +0.000 C 
ENDBRANCH  16  25
ENDBRANCH  14  16
ENDBRANCH   1  14
TORSDOF 7
ENDMDL
MODEL 7
REMARK VINA RESULT:      -5.9      2.260      5.414
REMARK  Name = 
REMARK  7 active torsions:
REMARK  status: ('A' for Active; 'I' for Inactive)
REMARK    1  A    between atoms: C_2  and  C_3
REMARK    2  A    between atoms: C_3  and  C_4
REMARK    3  A    between atoms: C_3  and  C_11
REMARK    4  A    between atoms: C_5  and  C_6
REMARK    5  A    between atoms: C_11  and  C_12
REMARK    6  A    between atoms: C_12  and  C_13
REMARK    7  A    between atoms: CA_19  and  C_20
REMARK                            x       y       z     vdW  Elec       q    Type
REMARK                         _______ _______ _______ _____ _____    ______ ____
ROOT
ATOM      1  C   UNL     1       9.000  -1.237  24.607  0.00  0.00    +0.000 C 
ATOM      2  C   UNL     1       8.352  -0.655  25.589  0.00  0.00    +0.000 C 
ATOM      3 CL   UNL     1       6.804   0.251  25.379  0.00  0.00    +0.000 Cl
ATOM      4  C   UNL     1       8.595  -0.578  27.149  0.00  0.00    +0.000 C 
ENDROOT
BRANCH   1   5
ATOM      5  C   UNL     1      10.206  -0.612  23.671  0.00  0.00    +0.000 C 
ATOM      6  C   UNL     1       9.912  -1.353  22.346  0.00  0.00    +0.000 C 
ATOM      7  C   UNL     1       8.882  -0.666  21.514  0.00  0.00    +0.000 C 
ATOM      8  C   UNL     1       8.117   0.377  22.264  0.00  0.00    +0.000 C 
ATOM      9  O   UNL     1       6.923   0.453  22.321  0.00  0.00    +0.000 OA
ATOM     10  N   UNL     1       8.905   1.306  22.919  0.00  0.00    +0.000 NA
ATOM     11  CA  UNL     1      10.085   0.799  23.515  0.00  0.00    +0.000 C 
BRANCH  11  12
ATOM     12  C   UNL     1      11.126   1.725  23.930  0.00  0.00    +0.000 C 
ATOM     13  O   UNL     1      10.843   3.038  23.508  0.00  0.00    +0.000 OA
ENDBRANCH  11  12
ENDBRANCH   1   5
BRANCH   1  14
ATOM     14  C   UNL     1       8.903  -2.742  24.028  0.00  0.00    +0.000 C 
ATOM     15  O   UNL     1      10.167  -3.261  24.076  0.00  0.00    +0.000 OA
BRANCH  14  16
ATOM     16  C   UNL     1       7.814  -3.468  24.472  0.00  0.00    +0.000 C 
BRANCH  16  17
ATOM     17  C   UNL     1       6.484  -3.434  23.733  0.00  0.00    +0.000 C 
ATOM     18  C   UNL     1       6.851  -3.461  22.189  0.00  0.00    +0.000 C 
ATOM     19  C   UNL     1       7.108  -4.903  21.925  0.00  0.00    +0.000 C 
ATOM     20  C   UNL     1       6.922  -5.595  23.301  0.00  0.00    +0.000 C 
ATOM     21  N   UNL     1       5.959  -4.861  23.878  0.00  0.00    +0.000 NA
BRANCH  18  22
ATOM     22  C   UNL     1       5.834  -2.681  21.326  0.00  0.00    +0.000 C 
ATOM     23  O   UNL     1       5.671  -3.478  20.149  0.00  0.00    +0.000 OA
ENDBRANCH  18  22
ENDBRANCH  16  17
BRANCH  16  25
ATOM     24  C   UNL     1       8.797  -4.798  26.320  0.00  0.00    +0.000 C 
ATOM     25  C   UNL     1       7.640  -3.911  25.877  0.00  0.00    +0.000 C 
ENDBRANCH  16  25
ENDBRANCH  14  16
ENDBRANCH   1  14
TORSDOF 7
ENDMDL
MODEL 8
REMARK VINA RESULT:      -5.8      2.183      5.741
REMARK  Name = 
REMARK  7 active torsions:
REMARK  status: ('A' for Active; 'I' for Inactive)
REMARK    1  A    between atoms: C_2  and  C_3
REMARK    2  A    between atoms: C_3  and  C_4
REMARK    3  A    between atoms: C_3  and  C_11
REMARK    4  A    between atoms: C_5  and  C_6
REMARK    5  A    between atoms: C_11  and  C_12
REMARK    6  A    between atoms: C_12  and  C_13
REMARK    7  A    between atoms: CA_19  and  C_20
REMARK                            x       y       z     vdW  Elec       q    Type
REMARK                         _______ _______ _______ _____ _____    ______ ____
ROOT
ATOM      1  C   UNL     1       7.738  -0.377  23.506  0.00  0.00    +0.000 C 
ATOM      2  C   UNL     1       8.149   0.111  24.652  0.00  0.00    +0.000 C 
ATOM      3 CL   UNL     1       7.204   0.010  26.189  0.00  0.00    +0.000 Cl
ATOM      4  C   UNL     1       9.481   0.830  25.106  0.00  0.00    +0.000 C 
ENDROOT
BRANCH   1   5
ATOM      5  C   UNL     1       6.889   0.389  22.317  0.00  0.00    +0.000 C 
ATOM      6  C   UNL     1       7.020   1.849  22.809  0.00  0.00    +0.000 C 
ATOM      7  C   UNL     1       8.283   2.502  22.357  0.00  0.00    +0.000 C 
ATOM      8  C   UNL     1       9.292   1.533  21.831  0.00  0.00    +0.000 C 
ATOM      9  O   UNL     1      10.434   1.461  22.185  0.00  0.00    +0.000 OA
ATOM     10  N   UNL     1       8.813   0.682  20.851  0.00  0.00    +0.000 NA
ATOM     11  CA  UNL     1       7.488   0.216  21.036  0.00  0.00    +0.000 C 
BRANCH  11  12
ATOM     12  C   UNL     1       6.790  -0.401  19.921  0.00  0.00    +0.000 C 
ATOM     13  O   UNL     1       7.445  -0.147  18.700  0.00  0.00    +0.000 OA
ENDBRANCH  11  12
ENDBRANCH   1   5
BRANCH   1  14
ATOM     14  C   UNL     1       7.966  -1.831  22.839  0.00  0.00    +0.000 C 
ATOM     15  O   UNL     1       9.315  -2.055  22.846  0.00  0.00    +0.000 OA
BRANCH  14  16
ATOM     16  C   UNL     1       7.077  -2.807  23.250  0.00  0.00    +0.000 C 
BRANCH  16  17
ATOM     17  C   UNL     1       7.560  -4.102  23.885  0.00  0.00    +0.000 C 
ATOM     18  C   UNL     1       8.489  -3.666  25.096  0.00  0.00    +0.000 C 
ATOM     19  C   UNL     1       7.515  -3.349  26.175  0.00  0.00    +0.000 C 
ATOM     20  C   UNL     1       6.123  -3.574  25.529  0.00  0.00    +0.000 C 
ATOM     21  N   UNL     1       6.347  -4.585  24.677  0.00  0.00    +0.000 NA
BRANCH  18  22
ATOM     22  C   UNL     1       9.636  -4.669  25.352  0.00  0.00    +0.000 C 
ATOM     23  O   UNL     1       9.427  -5.711  24.394  0.00  0.00    +0.000 OA
ENDBRANCH  18  22
ENDBRANCH  16  17
BRANCH  16  25
ATOM     24  C   UNL     1       5.733  -3.589  21.317  0.00  0.00    +0.000 C 
ATOM     25  C   UNL     1       5.706  -2.952  22.702  0.00  0.00    +0.000 C 
ENDBRANCH  16  25
ENDBRANCH  14  16
ENDBRANCH   1  14
TORSDOF 7
ENDMDL
MODEL 9
REMARK VINA RESULT:      -5.8      3.052      6.189
REMARK  Name = 
REMARK  7 active torsions:
REMARK  status: ('A' for Active; 'I' for Inactive)
REMARK    1  A    between atoms: C_2  and  C_3
REMARK    2  A    between atoms: C_3  and  C_4
REMARK    3  A    between atoms: C_3  and  C_11
REMARK    4  A    between atoms: C_5  and  C_6
REMARK    5  A    between atoms: C_11  and  C_12
REMARK    6  A    between atoms: C_12  and  C_13
REMARK    7  A    between atoms: CA_19  and  C_20
REMARK                            x       y       z     vdW  Elec       q    Type
REMARK                         _______ _______ _______ _____ _____    ______ ____
ROOT
ATOM      1  C   UNL     1       6.824  -3.370  24.311  0.00  0.00    +0.000 C 
ATOM      2  C   UNL     1       6.691  -3.866  23.103  0.00  0.00    +0.000 C 
ATOM      3 CL   UNL     1       7.439  -5.419  22.562  0.00  0.00    +0.000 Cl
ATOM      4  C   UNL     1       5.882  -3.403  21.827  0.00  0.00    +0.000 C 
ENDROOT
BRANCH   1   5
ATOM      5  C   UNL     1       7.958  -2.303  24.855  0.00  0.00    +0.000 C 
ATOM      6  C   UNL     1       8.096  -2.797  26.314  0.00  0.00    +0.000 C 
ATOM      7  C   UNL     1       9.061  -3.927  26.455  0.00  0.00    +0.000 C 
ATOM      8  C   UNL     1       9.423  -4.558  25.150  0.00  0.00    +0.000 C 
ATOM      9  O   UNL     1       9.367  -5.730  24.909  0.00  0.00    +0.000 OA
ATOM     10  N   UNL     1       9.861  -3.670  24.185  0.00  0.00    +0.000 NA
ATOM     11  CA  UNL     1       9.189  -2.424  24.148  0.00  0.00    +0.000 C 
BRANCH  11  12
ATOM     12  C   UNL     1       9.779  -1.320  23.409  0.00  0.00    +0.000 C 
ATOM     13  O   UNL     1      10.591  -1.783  22.355  0.00  0.00    +0.000 OA
ENDBRANCH  11  12
ENDBRANCH   1   5
BRANCH   1  14
ATOM     14  C   UNL     1       5.918  -3.565  25.634  0.00  0.00    +0.000 C 
ATOM     15  O   UNL     1       5.115  -2.460  25.722  0.00  0.00    +0.000 OA
BRANCH  14  16
ATOM     16  C   UNL     1       5.406  -4.837  25.808  0.00  0.00    +0.000 C 
BRANCH  16  17
ATOM     17  C   UNL     1       3.906  -5.086  25.862  0.00  0.00    +0.000 C 
ATOM     18  C   UNL     1       3.332  -4.558  24.480  0.00  0.00    +0.000 C 
ATOM     19  C   UNL     1       3.615  -5.679  23.543  0.00  0.00    +0.000 C 
ATOM     20  C   UNL     1       4.351  -6.738  24.405  0.00  0.00    +0.000 C 
ATOM     21  N   UNL     1       3.784  -6.588  25.612  0.00  0.00    +0.000 NA
BRANCH  18  22
ATOM     22  C   UNL     1       1.899  -3.995  24.610  0.00  0.00    +0.000 C 
ATOM     23  O   UNL     1       2.042  -2.824  25.419  0.00  0.00    +0.000 OA
ENDBRANCH  18  22
ENDBRANCH  16  17
BRANCH  16  25
ATOM     24  C   UNL     1       6.345  -5.710  27.931  0.00  0.00    +0.000 C 
ATOM     25  C   UNL     1       6.161  -5.948  26.436  0.00  0.00    +0.000 C 
ENDBRANCH  16  25
ENDBRANCH  14  16
ENDBRANCH   1  14
TORSDOF 7
ENDMDL
