MODEL 1
REMARK VINA RESULT:      -6.4      0.000      0.000
REMARK  Name = 
REMARK  7 active torsions:
REMARK  status: ('A' for Active; 'I' for Inactive)
REMARK    1  A    between atoms: N_3  and  C_4
REMARK    2  A    between atoms: C_4  and  C_5
REMARK    3  A    between atoms: C_5  and  C_6
REMARK    4  A    between atoms: C_7  and  C_8
REMARK    5  A    between atoms: C_11  and  N_12
REMARK    6  A    between atoms: N_12  and  C_13
REMARK    7  A    between atoms: C_13  and  S_14
REMARK                            x       y       z     vdW  Elec       q    Type
REMARK                         _______ _______ _______ _____ _____    ______ ____
ROOT
ATOM      1  C   UNL     1       6.475  -0.354  24.027  0.00  0.00    +0.000 C 
ATOM      2  C   UNL     1       7.937  -0.315  23.737  0.00  0.00    +0.000 C 
ATOM      3  N   UNL     1       8.384  -1.137  22.728  0.00  0.00    +0.000 NA
ATOM      4  C   UNL     1       8.518  -0.563  21.467  0.00  0.00    +0.000 C 
ATOM      5  C   UNL     1       9.323   0.717  21.487  0.00  0.00    +0.000 C 
ATOM      6  C   UNL     1       8.694   1.701  22.467  0.00  0.00    +0.000 C 
ATOM      7  C   UNL     1       8.544   1.036  23.824  0.00  0.00    +0.000 C 
ENDROOT
BRANCH   3   8
ATOM      8  C   UNL     1       7.655  -2.356  22.674  0.00  0.00    +0.000 C 
BRANCH   8   9
ATOM      9  C   UNL     1       8.370  -3.417  23.515  0.00  0.00    +0.000 C 
BRANCH   9  10
ATOM     10  C   UNL     1       7.422  -4.713  23.370  0.00  0.00    +0.000 C 
ATOM     11  C   UNL     1       7.272  -5.518  22.346  0.00  0.00    +0.000 C 
ATOM     12  F   UNL     1       7.666  -5.348  24.641  0.00  0.00    +0.000 F 
BRANCH  11  13
ATOM     13  C   UNL     1       6.270  -5.879  21.188  0.00  0.00    +0.000 C 
ATOM     14  O   UNL     1       5.796  -4.665  20.685  0.00  0.00    +0.000 OA
ENDBRANCH  11  13
ENDBRANCH   9  10
ENDBRANCH   8   9
ENDBRANCH   3   8
BRANCH   4  15
ATOM     15  N   UNL     1       7.337  -0.427  20.699  0.00  0.00    +0.000 NA
BRANCH  15  16
ATOM     16  C   UNL     1       7.653   0.138  19.419  0.00  0.00    +0.000 C 
BRANCH  16  17
ATOM     17  S   UNL     1       6.179   0.185  18.410  0.00  0.00    +0.000 S 
ATOM     18  O   UNL     1       5.088   0.549  19.271  0.00  0.00    +0.000 OA
ATOM     19  O   UNL     1       6.066  -1.091  17.759  0.00  0.00    +0.000 OA
ATOM     20  N   UNL     1       6.356   1.350  17.261  0.00  0.00    +0.000 NA
ENDBRANCH  16  17
ENDBRANCH  15  16
ENDBRANCH   4  15
TORSDOF 7
ENDMDL
MODEL 2
REMARK VINA RESULT:      -6.3      2.023      2.321
REMARK  Name = 
REMARK  7 active torsions:
REMARK  status: ('A' for Active; 'I' for Inactive)
REMARK    1  A    between atoms: N_3  and  C_4
REMARK    2  A    between atoms: C_4  and  C_5
REMARK    3  A    between atoms: C_5  and  C_6
REMARK    4  A    between atoms: C_7  and  C_8
REMARK    5  A    between atoms: C_11  and  N_12
REMARK    6  A    between atoms: N_12  and  C_13
REMARK    7  A    between atoms: C_13  and  S_14
REMARK                            x       y       z     vdW  Elec       q    Type
REMARK                         _______ _______ _______ _____ _____    ______ ____
ROOT
ATOM      1  C   UNL     1       7.909  -1.096  25.062  0.00  0.00    +0.000 C 
ATOM      2  C   UNL     1       8.927  -1.486  24.045  0.00  0.00    +0.000 C 
ATOM      3  N   UNL     1       8.446  -1.932  22.835  0.00  0.00    +0.000 NA
ATOM      4  C   UNL     1       8.357  -0.993  21.812  0.00  0.00    +0.000 C 
ATOM      5  C   UNL     1       9.643  -0.225  21.606  0.00  0.00    +0.000 C 
ATOM      6  C   UNL     1      10.060   0.436  22.915  0.00  0.00    +0.000 C 
ATOM      7  C   UNL     1      10.127  -0.613  24.012  0.00  0.00    +0.000 C 
ENDROOT
BRANCH   3   8
ATOM      8  C   UNL     1       7.235  -2.663  22.983  0.00  0.00    +0.000 C 
BRANCH   8   9
ATOM      9  C   UNL     1       7.283  -3.915  22.102  0.00  0.00    +0.000 C 
BRANCH   9  10
ATOM     10  C   UNL     1       7.498  -5.111  23.163  0.00  0.00    +0.000 C 
ATOM     11  C   UNL     1       7.855  -5.046  24.422  0.00  0.00    +0.000 C 
ATOM     12  F   UNL     1       6.333  -5.912  22.878  0.00  0.00    +0.000 F 
BRANCH  11  13
ATOM     13  C   UNL     1       9.077  -5.305  25.379  0.00  0.00    +0.000 C 
ATOM     14  O   UNL     1      10.184  -4.701  24.779  0.00  0.00    +0.000 OA
ENDBRANCH  11  13
ENDBRANCH   9  10
ENDBRANCH   8   9
ENDBRANCH   3   8
BRANCH   4  15
ATOM     15  N   UNL     1       7.232  -0.133  21.831  0.00  0.00    +0.000 NA
BRANCH  15  16
ATOM     16  C   UNL     1       7.335   0.824  20.768  0.00  0.00    +0.000 C 
BRANCH  16  17
ATOM     17  S   UNL     1       6.576   0.159  19.294  0.00  0.00    +0.000 S 
ATOM     18  O   UNL     1       5.882  -1.039  19.679  0.00  0.00    +0.000 OA
ATOM     19  O   UNL     1       7.614  -0.004  18.314  0.00  0.00    +0.000 OA
ATOM     20  N   UNL     1       5.478   1.244  18.723  0.00  0.00    +0.000 NA
ENDBRANCH  16  17
ENDBRANCH  15  16
ENDBRANCH   4  15
TORSDOF 7
ENDMDL
MODEL 3
REMARK VINA RESULT:      -6.2      4.044      6.855
REMARK  Name = 
REMARK  7 active torsions:
REMARK  status: ('A' for Active; 'I' for Inactive)
REMARK    1  A    between atoms: N_3  and  C_4
REMARK    2  A    between atoms: C_4  and  C_5
REMARK    3  A    between atoms: C_5  and  C_6
REMARK    4  A    between atoms: C_7  and  C_8
REMARK    5  A    between atoms: C_11  and  N_12
REMARK    6  A    between atoms: N_12  and  C_13
REMARK    7  A    between atoms: C_13  and  S_14
REMARK                            x       y       z     vdW  Elec       q    Type
REMARK                         _______ _______ _______ _____ _____    ______ ____
ROOT
ATOM      1  C   UNL     1       5.568  -2.739  22.177  0.00  0.00    +0.000 C 
ATOM      2  C   UNL     1       6.690  -3.636  21.775  0.00  0.00    +0.000 C 
ATOM      3  N   UNL     1       7.867  -3.497  22.475  0.00  0.00    +0.000 NA
ATOM      4  C   UNL     1       8.068  -4.372  23.539  0.00  0.00    +0.000 C 
ATOM      5  C   UNL     1       7.861  -5.820  23.155  0.00  0.00    +0.000 C 
ATOM      6  C   UNL     1       6.468  -5.998  22.563  0.00  0.00    +0.000 C 
ATOM      7  C   UNL     1       6.275  -5.015  21.421  0.00  0.00    +0.000 C 
ENDROOT
BRANCH   3   8
ATOM      8  C   UNL     1       8.103  -2.147  22.855  0.00  0.00    +0.000 C 
BRANCH   8   9
ATOM      9  C   UNL     1       9.481  -1.709  22.353  0.00  0.00    +0.000 C 
BRANCH   9  10
ATOM     10  C   UNL     1       9.139  -0.564  21.270  0.00  0.00    +0.000 C 
ATOM     11  C   UNL     1       7.970  -0.112  20.885  0.00  0.00    +0.000 C 
ATOM     12  F   UNL     1      10.109   0.435  21.644  0.00  0.00    +0.000 F 
BRANCH  11  13
ATOM     13  C   UNL     1       6.955  -0.165  19.684  0.00  0.00    +0.000 C 
ATOM     14  O   UNL     1       7.706   0.029  18.522  0.00  0.00    +0.000 OA
ENDBRANCH  11  13
ENDBRANCH   9  10
ENDBRANCH   8   9
ENDBRANCH   3   8
BRANCH   4  15
ATOM     15  N   UNL     1       7.421  -4.056  24.757  0.00  0.00    +0.000 NA
BRANCH  15  16
ATOM     16  C   UNL     1       7.985  -4.834  25.823  0.00  0.00    +0.000 C 
BRANCH  16  17
ATOM     17  S   UNL     1       6.676  -5.411  26.893  0.00  0.00    +0.000 S 
ATOM     18  O   UNL     1       7.299  -5.941  28.075  0.00  0.00    +0.000 OA
ATOM     19  O   UNL     1       5.880  -6.336  26.135  0.00  0.00    +0.000 OA
ATOM     20  N   UNL     1       5.734  -4.132  27.322  0.00  0.00    +0.000 NA
ENDBRANCH  16  17
ENDBRANCH  15  16
ENDBRANCH   4  15
TORSDOF 7
ENDMDL
MODEL 4
REMARK VINA RESULT:      -6.1      1.883      2.365
REMARK  Name = 
REMARK  7 active torsions:
REMARK  status: ('A' for Active; 'I' for Inactive)
REMARK    1  A    between atoms: N_3  and  C_4
REMARK    2  A    between atoms: C_4  and  C_5
REMARK    3  A    between atoms: C_5  and  C_6
REMARK    4  A    between atoms: C_7  and  C_8
REMARK    5  A    between atoms: C_11  and  N_12
REMARK    6  A    between atoms: N_12  and  C_13
REMARK    7  A    between atoms: C_13  and  S_14
REMARK                            x       y       z     vdW  Elec       q    Type
REMARK                         _______ _______ _______ _____ _____    ______ ____
ROOT
ATOM      1  C   UNL     1       6.417   0.607  24.095  0.00  0.00    +0.000 C 
ATOM      2  C   UNL     1       7.876   0.439  23.833  0.00  0.00    +0.000 C 
ATOM      3  N   UNL     1       8.232  -0.574  22.973  0.00  0.00    +0.000 NA
ATOM      4  C   UNL     1       8.434  -0.223  21.642  0.00  0.00    +0.000 C 
ATOM      5  C   UNL     1       9.377   0.948  21.480  0.00  0.00    +0.000 C 
ATOM      6  C   UNL     1       8.858   2.136  22.283  0.00  0.00    +0.000 C 
ATOM      7  C   UNL     1       8.630   1.712  23.723  0.00  0.00    +0.000 C 
ENDROOT
BRANCH   3   8
ATOM      8  C   UNL     1       7.370  -1.699  23.094  0.00  0.00    +0.000 C 
BRANCH   8   9
ATOM      9  C   UNL     1       8.157  -2.979  22.797  0.00  0.00    +0.000 C 
BRANCH   9  10
ATOM     10  C   UNL     1       9.158  -3.105  24.056  0.00  0.00    +0.000 C 
ATOM     11  C   UNL     1       9.300  -4.093  24.904  0.00  0.00    +0.000 C 
ATOM     12  F   UNL     1      10.372  -2.602  23.463  0.00  0.00    +0.000 F 
BRANCH  11  13
ATOM     13  C   UNL     1       8.972  -4.515  26.384  0.00  0.00    +0.000 C 
ATOM     14  O   UNL     1       7.815  -5.295  26.325  0.00  0.00    +0.000 OA
ENDBRANCH  11  13
ENDBRANCH   9  10
ENDBRANCH   8   9
ENDBRANCH   3   8
BRANCH   4  15
ATOM     15  N   UNL     1       7.278  -0.079  20.837  0.00  0.00    +0.000 NA
BRANCH  15  16
ATOM     16  C   UNL     1       7.660   0.066  19.462  0.00  0.00    +0.000 C 
BRANCH  16  17
ATOM     17  S   UNL     1       6.194   0.163  18.446  0.00  0.00    +0.000 S 
ATOM     18  O   UNL     1       5.101   0.513  19.312  0.00  0.00    +0.000 OA
ATOM     19  O   UNL     1       6.069  -1.089  17.753  0.00  0.00    +0.000 OA
ATOM     20  N   UNL     1       6.392   1.363  17.336  0.00  0.00    +0.000 NA
ENDBRANCH  16  17
ENDBRANCH  15  16
ENDBRANCH   4  15
TORSDOF 7
ENDMDL
MODEL 5
REMARK VINA RESULT:      -6.0      3.188      5.484
REMARK  Name = 
REMARK  7 active torsions:
REMARK  status: ('A' for Active; 'I' for Inactive)
REMARK    1  A    between atoms: N_3  and  C_4
REMARK    2  A    between atoms: C_4  and  C_5
REMARK    3  A    between atoms: C_5  and  C_6
REMARK    4  A    between atoms: C_7  and  C_8
REMARK    5  A    between atoms: C_11  and  N_12
REMARK    6  A    between atoms: N_12  and  C_13
REMARK    7  A    between atoms: C_13  and  S_14
REMARK                            x       y       z     vdW  Elec       q    Type
REMARK                         _______ _______ _______ _____ _____    ______ ____
ROOT
ATOM      1  C   UNL     1      10.297  -0.117  24.664  0.00  0.00    +0.000 C 
ATOM      2  C   UNL     1       8.844   0.028  24.966  0.00  0.00    +0.000 C 
ATOM      3  N   UNL     1       7.973  -0.231  23.931  0.00  0.00    +0.000 NA
ATOM      4  C   UNL     1       7.433  -1.512  23.875  0.00  0.00    +0.000 C 
ATOM      5  C   UNL     1       6.822  -1.950  25.187  0.00  0.00    +0.000 C 
ATOM      6  C   UNL     1       7.864  -1.850  26.295  0.00  0.00    +0.000 C 
ATOM      7  C   UNL     1       8.447  -0.447  26.314  0.00  0.00    +0.000 C 
ENDROOT
BRANCH   3   8
ATOM      8  C   UNL     1       8.508   0.168  22.676  0.00  0.00    +0.000 C 
BRANCH   8   9
ATOM      9  C   UNL     1       7.424   0.879  21.862  0.00  0.00    +0.000 C 
BRANCH   9  10
ATOM     10  C   UNL     1       7.493   0.147  20.426  0.00  0.00    +0.000 C 
ATOM     11  C   UNL     1       7.063   0.567  19.261  0.00  0.00    +0.000 C 
ATOM     12  F   UNL     1       8.847  -0.345  20.459  0.00  0.00    +0.000 F 
BRANCH  11  13
ATOM     13  C   UNL     1       5.911   0.349  18.212  0.00  0.00    +0.000 C 
ATOM     14  O   UNL     1       6.065  -0.950  17.721  0.00  0.00    +0.000 OA
ENDBRANCH  11  13
ENDBRANCH   9  10
ENDBRANCH   8   9
ENDBRANCH   3   8
BRANCH   4  15
ATOM     15  N   UNL     1       8.247  -2.525  23.313  0.00  0.00    +0.000 NA
BRANCH  15  16
ATOM     16  C   UNL     1       7.448  -3.392  22.496  0.00  0.00    +0.000 C 
BRANCH  16  17
ATOM     17  S   UNL     1       7.518  -5.053  23.148  0.00  0.00    +0.000 S 
ATOM     18  O   UNL     1       8.673  -5.126  24.001  0.00  0.00    +0.000 OA
ATOM     19  O   UNL     1       7.508  -5.954  22.028  0.00  0.00    +0.000 OA
ATOM     20  N   UNL     1       6.174  -5.327  24.058  0.00  0.00    +0.000 NA
ENDBRANCH  16  17
ENDBRANCH  15  16
ENDBRANCH   4  15
TORSDOF 7
ENDMDL
MODEL 6
REMARK VINA RESULT:      -5.9      1.739      1.883
REMARK  Name = 
REMARK  7 active torsions:
REMARK  status: ('A' for Active; 'I' for Inactive)
REMARK    1  A    between atoms: N_3  and  C_4
REMARK    2  A    between atoms: C_4  and  C_5
REMARK    3  A    between atoms: C_5  and  C_6
REMARK    4  A    between atoms: C_7  and  C_8
REMARK    5  A    between atoms: C_11  and  N_12
REMARK    6  A    between atoms: N_12  and  C_13
REMARK    7  A    between atoms: C_13  and  S_14
REMARK                            x       y       z     vdW  Elec       q    Type
REMARK                         _______ _______ _______ _____ _____    ______ ____
ROOT
ATOM      1  C   UNL     1       8.483   0.354  25.307  0.00  0.00    +0.000 C 
ATOM      2  C   UNL     1       9.525  -0.236  24.418  0.00  0.00    +0.000 C 
ATOM      3  N   UNL     1       9.142  -1.319  23.659  0.00  0.00    +0.000 NA
ATOM      4  C   UNL     1       8.738  -1.056  22.354  0.00  0.00    +0.000 C 
ATOM      5  C   UNL     1       9.734  -0.215  21.589  0.00  0.00    +0.000 C 
ATOM      6  C   UNL     1       9.997   1.082  22.347  0.00  0.00    +0.000 C 
ATOM      7  C   UNL     1      10.415   0.759  23.771  0.00  0.00    +0.000 C 
ENDROOT
BRANCH   3   8
ATOM      8  C   UNL     1       8.205  -2.141  24.344  0.00  0.00    +0.000 C 
BRANCH   8   9
ATOM      9  C   UNL     1       8.720  -3.583  24.378  0.00  0.00    +0.000 C 
BRANCH   9  10
ATOM     10  C   UNL     1       7.453  -4.445  23.874  0.00  0.00    +0.000 C 
ATOM     11  C   UNL     1       6.354  -4.036  23.288  0.00  0.00    +0.000 C 
ATOM     12  F   UNL     1       8.135  -5.545  23.238  0.00  0.00    +0.000 F 
BRANCH  11  13
ATOM     13  C   UNL     1       4.824  -3.788  23.559  0.00  0.00    +0.000 C 
ATOM     14  O   UNL     1       4.127  -4.605  22.665  0.00  0.00    +0.000 OA
ENDBRANCH  11  13
ENDBRANCH   9  10
ENDBRANCH   8   9
ENDBRANCH   3   8
BRANCH   4  15
ATOM     15  N   UNL     1       7.413  -0.589  22.178  0.00  0.00    +0.000 NA
BRANCH  15  16
ATOM     16  C   UNL     1       6.859  -1.143  20.976  0.00  0.00    +0.000 C 
BRANCH  16  17
ATOM     17  S   UNL     1       6.568   0.166  19.798  0.00  0.00    +0.000 S 
ATOM     18  O   UNL     1       6.758   1.411  20.491  0.00  0.00    +0.000 OA
ATOM     19  O   UNL     1       5.262  -0.045  19.236  0.00  0.00    +0.000 OA
ATOM     20  N   UNL     1       7.684   0.058  18.593  0.00  0.00    +0.000 NA
ENDBRANCH  16  17
ENDBRANCH  15  16
ENDBRANCH   4  15
TORSDOF 7
ENDMDL
MODEL 7
REMARK VINA RESULT:      -5.8      2.885      4.869
REMARK  Name = 
REMARK  7 active torsions:
REMARK  status: ('A' for Active; 'I' for Inactive)
REMARK    1  A    between atoms: N_3  and  C_4
REMARK    2  A    between atoms: C_4  and  C_5
REMARK    3  A    between atoms: C_5  and  C_6
REMARK    4  A    between atoms: C_7  and  C_8
REMARK    5  A    between atoms: C_11  and  N_12
REMARK    6  A    between atoms: N_12  and  C_13
REMARK    7  A    between atoms: C_13  and  S_14
REMARK                            x       y       z     vdW  Elec       q    Type
REMARK                         _______ _______ _______ _____ _____    ______ ____
ROOT
ATOM      1  C   UNL     1       9.430  -1.974  23.107  0.00  0.00    +0.000 C 
ATOM      2  C   UNL     1       8.072  -2.409  23.542  0.00  0.00    +0.000 C 
ATOM      3  N   UNL     1       7.032  -1.557  23.246  0.00  0.00    +0.000 NA
ATOM      4  C   UNL     1       6.316  -1.825  22.084  0.00  0.00    +0.000 C 
ATOM      5  C   UNL     1       5.849  -3.261  21.999  0.00  0.00    +0.000 C 
ATOM      6  C   UNL     1       7.046  -4.196  22.127  0.00  0.00    +0.000 C 
ATOM      7  C   UNL     1       7.815  -3.862  23.393  0.00  0.00    +0.000 C 
ENDROOT
BRANCH   3   8
ATOM      8  C   UNL     1       7.427  -0.193  23.316  0.00  0.00    +0.000 C 
BRANCH   8   9
ATOM      9  C   UNL     1       6.945   0.412  24.637  0.00  0.00    +0.000 C 
BRANCH   9  10
ATOM     10  C   UNL     1       8.252   1.170  25.202  0.00  0.00    +0.000 C 
ATOM     11  C   UNL     1       9.201   1.786  24.541  0.00  0.00    +0.000 C 
ATOM     12  F   UNL     1       7.665   1.904  26.295  0.00  0.00    +0.000 F 
BRANCH  11  13
ATOM     13  C   UNL     1      10.700   1.630  24.090  0.00  0.00    +0.000 C 
ATOM     14  O   UNL     1      11.219   0.551  24.809  0.00  0.00    +0.000 OA
ENDBRANCH  11  13
ENDBRANCH   9  10
ENDBRANCH   8   9
ENDBRANCH   3   8
BRANCH   4  15
ATOM     15  N   UNL     1       6.890  -1.389  20.865  0.00  0.00    +0.000 NA
BRANCH  15  16
ATOM     16  C   UNL     1       5.886  -1.358  19.840  0.00  0.00    +0.000 C 
BRANCH  16  17
ATOM     17  S   UNL     1       6.270  -0.060  18.674  0.00  0.00    +0.000 S 
ATOM     18  O   UNL     1       5.710  -0.449  17.408  0.00  0.00    +0.000 OA
ATOM     19  O   UNL     1       7.694   0.131  18.699  0.00  0.00    +0.000 OA
ATOM     20  N   UNL     1       5.542   1.332  19.167  0.00  0.00    +0.000 NA
ENDBRANCH  16  17
ENDBRANCH  15  16
ENDBRANCH   4  15
TORSDOF 7
ENDMDL
MODEL 8
REMARK VINA RESULT:      -5.7      3.568      5.777
REMARK  Name = 
REMARK  7 active torsions:
REMARK  status: ('A' for Active; 'I' for Inactive)
REMARK    1  A    between atoms: N_3  and  C_4
REMARK    2  A    between atoms: C_4  and  C_5
REMARK    3  A    between atoms: C_5  and  C_6
REMARK    4  A    between atoms: C_7  and  C_8
REMARK    5  A    between atoms: C_11  and  N_12
REMARK    6  A    between atoms: N_12  and  C_13
REMARK    7  A    between atoms: C_13  and  S_14
REMARK                            x       y       z     vdW  Elec       q    Type
REMARK                         _______ _______ _______ _____ _____    ______ ____
ROOT
ATOM      1  C   UNL     1       5.914  -3.363  22.578  0.00  0.00    +0.000 C 
ATOM      2  C   UNL     1       7.267  -3.952  22.793  0.00  0.00    +0.000 C 
ATOM      3  N   UNL     1       8.308  -3.063  22.938  0.00  0.00    +0.000 NA
ATOM      4  C   UNL     1       8.674  -2.736  24.240  0.00  0.00    +0.000 C 
ATOM      5  C   UNL     1       8.909  -3.953  25.107  0.00  0.00    +0.000 C 
ATOM      6  C   UNL     1       7.665  -4.835  25.098  0.00  0.00    +0.000 C 
ATOM      7  C   UNL     1       7.282  -5.154  23.663  0.00  0.00    +0.000 C 
ENDROOT
BRANCH   3   8
ATOM      8  C   UNL     1       8.128  -1.902  22.137  0.00  0.00    +0.000 C 
BRANCH   8   9
ATOM      9  C   UNL     1       9.491  -1.271  21.840  0.00  0.00    +0.000 C 
BRANCH   9  10
ATOM     10  C   UNL     1       9.115   0.065  21.017  0.00  0.00    +0.000 C 
ATOM     11  C   UNL     1       7.942   0.482  20.609  0.00  0.00    +0.000 C 
ATOM     12  F   UNL     1       9.917   1.031  21.726  0.00  0.00    +0.000 F 
BRANCH  11  13
ATOM     13  C   UNL     1       7.057   0.624  19.315  0.00  0.00    +0.000 C 
ATOM     14  O   UNL     1       7.719  -0.079  18.306  0.00  0.00    +0.000 OA
ENDBRANCH  11  13
ENDBRANCH   9  10
ENDBRANCH   8   9
ENDBRANCH   3   8
BRANCH   4  15
ATOM     15  N   UNL     1       7.882  -1.768  24.903  0.00  0.00    +0.000 NA
BRANCH  15  16
ATOM     16  C   UNL     1       8.730  -0.789  25.522  0.00  0.00    +0.000 C 
BRANCH  16  17
ATOM     17  S   UNL     1       8.140   0.848  25.118  0.00  0.00    +0.000 S 
ATOM     18  O   UNL     1       7.149   0.699  24.088  0.00  0.00    +0.000 OA
ATOM     19  O   UNL     1       9.287   1.644  24.776  0.00  0.00    +0.000 OA
ATOM     20  N   UNL     1       7.423   1.500  26.449  0.00  0.00    +0.000 NA
ENDBRANCH  16  17
ENDBRANCH  15  16
ENDBRANCH   4  15
TORSDOF 7
ENDMDL
MODEL 9
REMARK VINA RESULT:      -5.7      3.541      5.760
REMARK  Name = 
REMARK  7 active torsions:
REMARK  status: ('A' for Active; 'I' for Inactive)
REMARK    1  A    between atoms: N_3  and  C_4
REMARK    2  A    between atoms: C_4  and  C_5
REMARK    3  A    between atoms: C_5  and  C_6
REMARK    4  A    between atoms: C_7  and  C_8
REMARK    5  A    between atoms: C_11  and  N_12
REMARK    6  A    between atoms: N_12  and  C_13
REMARK    7  A    between atoms: C_13  and  S_14
REMARK                            x       y       z     vdW  Elec       q    Type
REMARK                         _______ _______ _______ _____ _____    ______ ____
ROOT
ATOM      1  C   UNL     1       9.820  -5.071  25.494  0.00  0.00    +0.000 C 
ATOM      2  C   UNL     1       8.695  -4.191  25.922  0.00  0.00    +0.000 C 
ATOM      3  N   UNL     1       8.387  -3.140  25.089  0.00  0.00    +0.000 NA
ATOM      4  C   UNL     1       7.360  -3.347  24.174  0.00  0.00    +0.000 C 
ATOM      5  C   UNL     1       6.100  -3.882  24.817  0.00  0.00    +0.000 C 
ATOM      6  C   UNL     1       6.420  -5.167  25.574  0.00  0.00    +0.000 C 
ATOM      7  C   UNL     1       7.558  -4.910  26.547  0.00  0.00    +0.000 C 
ENDROOT
BRANCH   3   8
ATOM      8  C   UNL     1       9.546  -2.602  24.464  0.00  0.00    +0.000 C 
BRANCH   8   9
ATOM      9  C   UNL     1       9.666  -1.114  24.803  0.00  0.00    +0.000 C 
BRANCH   9  10
ATOM     10  C   UNL     1      10.164  -0.452  23.419  0.00  0.00    +0.000 C 
ATOM     11  C   UNL     1       9.454   0.079  22.454  0.00  0.00    +0.000 C 
ATOM     12  F   UNL     1      11.267   0.340  23.901  0.00  0.00    +0.000 F 
BRANCH  11  13
ATOM     13  C   UNL     1       8.944  -0.199  20.992  0.00  0.00    +0.000 C 
ATOM     14  O   UNL     1       7.823  -1.023  21.114  0.00  0.00    +0.000 OA
ENDBRANCH  11  13
ENDBRANCH   9  10
ENDBRANCH   8   9
ENDBRANCH   3   8
BRANCH   4  15
ATOM     15  N   UNL     1       7.688  -4.057  22.995  0.00  0.00    +0.000 NA
BRANCH  15  16
ATOM     16  C   UNL     1       6.619  -3.940  22.045  0.00  0.00    +0.000 C 
BRANCH  16  17
ATOM     17  S   UNL     1       6.100  -5.570  21.531  0.00  0.00    +0.000 S 
ATOM     18  O   UNL     1       7.084  -6.500  22.015  0.00  0.00    +0.000 OA
ATOM     19  O   UNL     1       5.919  -5.533  20.106  0.00  0.00    +0.000 OA
ATOM     20  N   UNL     1       4.655  -5.917  22.237  0.00  0.00    +0.000 NA
ENDBRANCH  16  17
ENDBRANCH  15  16
ENDBRANCH   4  15
TORSDOF 7
ENDMDL
