MODEL 1
REMARK VINA RESULT:      -6.3      0.000      0.000
REMARK  Name = 
REMARK  4 active torsions:
REMARK  status: ('A' for Active; 'I' for Inactive)
REMARK    1  A    between atoms: C_4  and  C_5
REMARK    2  A    between atoms: C_8  and  C_9
REMARK    3  A    between atoms: C_8  and  C_19
REMARK    4  A    between atoms: C_9  and  C_12
REMARK                            x       y       z     vdW  Elec       q    Type
REMARK                         _______ _______ _______ _____ _____    ______ ____
ROOT
ATOM      1  O   UNL     1       8.166  -0.122  20.024  0.00  0.00    +0.000 OA
ATOM      2  C   UNL     1       8.476   0.378  21.247  0.00  0.00    +0.000 C 
ATOM      3  C   UNL     1       9.746   0.032  21.818  0.00  0.00    +0.000 C 
ATOM      4  C   UNL     1       9.694  -0.654  23.194  0.00  0.00    +0.000 C 
ATOM      5  C   UNL     1       8.257  -0.981  23.503  0.00  0.00    +0.000 C 
ATOM      6  C   UNL     1       7.463   0.360  23.518  0.00  0.00    +0.000 C 
ATOM      7  C   UNL     1       7.327   0.781  22.059  0.00  0.00    +0.000 C 
ENDROOT
BRANCH   4   8
ATOM      8  C   UNL     1      10.116   0.434  24.184  0.00  0.00    +0.000 C 
ATOM      9  O   UNL     1      10.597   1.433  23.438  0.00  0.00    +0.000 OA
ATOM     10  O   UNL     1      10.495   0.193  25.291  0.00  0.00    +0.000 OA
ENDBRANCH   4   8
BRANCH   5  11
ATOM     11  C   UNL     1       7.660  -1.833  22.448  0.00  0.00    +0.000 C 
ATOM     12  O   UNL     1       6.332  -1.772  22.471  0.00  0.00    +0.000 OA
ATOM     13  O   UNL     1       8.246  -2.739  21.893  0.00  0.00    +0.000 OA
ENDBRANCH   5  11
BRANCH   5  14
ATOM     14  C   UNL     1       8.078  -1.613  24.864  0.00  0.00    +0.000 C 
ATOM     15  C   UNL     1       6.899  -0.964  25.573  0.00  0.00    +0.000 C 
BRANCH  14  16
ATOM     16  C   UNL     1       7.907  -3.094  24.756  0.00  0.00    +0.000 C 
ATOM     17  C   UNL     1       6.792  -3.466  25.806  0.00  0.00    +0.000 C 
ATOM     18  C   UNL     1       7.320  -4.478  26.733  0.00  0.00    +0.000 C 
ATOM     19  O   UNL     1       6.758  -4.734  27.932  0.00  0.00    +0.000 OA
ATOM     20  C   UNL     1       8.838  -4.602  26.562  0.00  0.00    +0.000 C 
ATOM     21  C   UNL     1       9.148  -3.867  25.220  0.00  0.00    +0.000 C 
ATOM     22  O   UNL     1       9.233  -4.952  24.278  0.00  0.00    +0.000 OA
ENDBRANCH  14  16
ENDBRANCH   5  14
TORSDOF 4
ENDMDL
MODEL 2
REMARK VINA RESULT:      -6.3      1.897      5.628
REMARK  Name = 
REMARK  4 active torsions:
REMARK  status: ('A' for Active; 'I' for Inactive)
REMARK    1  A    between atoms: C_4  and  C_5
REMARK    2  A    between atoms: C_8  and  C_9
REMARK    3  A    between atoms: C_8  and  C_19
REMARK    4  A    between atoms: C_9  and  C_12
REMARK                            x       y       z     vdW  Elec       q    Type
REMARK                         _______ _______ _______ _____ _____    ______ ____
ROOT
ATOM      1  O   UNL     1       7.038  -5.837  26.126  0.00  0.00    +0.000 OA
ATOM      2  C   UNL     1       6.266  -5.159  25.239  0.00  0.00    +0.000 C 
ATOM      3  C   UNL     1       6.555  -5.301  23.841  0.00  0.00    +0.000 C 
ATOM      4  C   UNL     1       6.855  -3.995  23.086  0.00  0.00    +0.000 C 
ATOM      5  C   UNL     1       6.973  -2.884  24.095  0.00  0.00    +0.000 C 
ATOM      6  C   UNL     1       5.613  -2.790  24.851  0.00  0.00    +0.000 C 
ATOM      7  C   UNL     1       5.574  -3.991  25.789  0.00  0.00    +0.000 C 
ENDROOT
BRANCH   4   8
ATOM      8  C   UNL     1       5.587  -3.717  22.276  0.00  0.00    +0.000 C 
ATOM      9  O   UNL     1       4.863  -4.837  22.345  0.00  0.00    +0.000 OA
ATOM     10  O   UNL     1       5.562  -2.969  21.345  0.00  0.00    +0.000 OA
ENDBRANCH   4   8
BRANCH   5  11
ATOM     11  C   UNL     1       8.017  -3.180  25.104  0.00  0.00    +0.000 C 
ATOM     12  O   UNL     1       7.849  -2.450  26.203  0.00  0.00    +0.000 OA
ATOM     13  O   UNL     1       9.077  -3.713  24.848  0.00  0.00    +0.000 OA
ENDBRANCH   5  11
BRANCH   5  14
ATOM     14  C   UNL     1       7.215  -1.535  23.457  0.00  0.00    +0.000 C 
ATOM     15  C   UNL     1       6.387  -0.479  24.175  0.00  0.00    +0.000 C 
BRANCH  14  16
ATOM     16  C   UNL     1       8.668  -1.187  23.458  0.00  0.00    +0.000 C 
ATOM     17  C   UNL     1       8.735   0.345  23.821  0.00  0.00    +0.000 C 
ATOM     18  C   UNL     1       9.463   1.060  22.764  0.00  0.00    +0.000 C 
ATOM     19  O   UNL     1       9.383   2.397  22.597  0.00  0.00    +0.000 OA
ATOM     20  C   UNL     1       9.643   0.150  21.544  0.00  0.00    +0.000 C 
ATOM     21  C   UNL     1       9.298  -1.282  22.063  0.00  0.00    +0.000 C 
ATOM     22  O   UNL     1      10.598  -1.843  22.324  0.00  0.00    +0.000 OA
ENDBRANCH  14  16
ENDBRANCH   5  14
TORSDOF 4
ENDMDL
MODEL 3
REMARK VINA RESULT:      -6.2      1.701      3.725
REMARK  Name = 
REMARK  4 active torsions:
REMARK  status: ('A' for Active; 'I' for Inactive)
REMARK    1  A    between atoms: C_4  and  C_5
REMARK    2  A    between atoms: C_8  and  C_9
REMARK    3  A    between atoms: C_8  and  C_19
REMARK    4  A    between atoms: C_9  and  C_12
REMARK                            x       y       z     vdW  Elec       q    Type
REMARK                         _______ _______ _______ _____ _____    ______ ____
ROOT
ATOM      1  O   UNL     1       9.006   3.532  23.966  0.00  0.00    +0.000 OA
ATOM      2  C   UNL     1       8.763   2.735  22.895  0.00  0.00    +0.000 C 
ATOM      3  C   UNL     1       7.457   2.154  22.766  0.00  0.00    +0.000 C 
ATOM      4  C   UNL     1       7.415   0.619  22.683  0.00  0.00    +0.000 C 
ATOM      5  C   UNL     1       8.795   0.093  22.977  0.00  0.00    +0.000 C 
ATOM      6  C   UNL     1       9.760   0.683  21.904  0.00  0.00    +0.000 C 
ATOM      7  C   UNL     1       9.954   2.148  22.278  0.00  0.00    +0.000 C 
ENDROOT
BRANCH   4   8
ATOM      8  C   UNL     1       7.139   0.319  21.208  0.00  0.00    +0.000 C 
ATOM      9  O   UNL     1       6.650   1.451  20.696  0.00  0.00    +0.000 OA
ATOM     10  O   UNL     1       6.845  -0.769  20.811  0.00  0.00    +0.000 OA
ENDBRANCH   4   8
BRANCH   5  11
ATOM     11  C   UNL     1       9.277   0.553  24.301  0.00  0.00    +0.000 C 
ATOM     12  O   UNL     1      10.600   0.460  24.394  0.00  0.00    +0.000 OA
ATOM     13  O   UNL     1       8.573   0.644  25.285  0.00  0.00    +0.000 OA
ENDBRANCH   5  11
BRANCH   5  14
ATOM     14  C   UNL     1       8.886  -1.412  22.869  0.00  0.00    +0.000 C 
ATOM     15  C   UNL     1      10.332  -1.816  22.628  0.00  0.00    +0.000 C 
BRANCH  14  16
ATOM     16  C   UNL     1       8.325  -2.077  24.084  0.00  0.00    +0.000 C 
ATOM     17  C   UNL     1       9.381  -3.175  24.488  0.00  0.00    +0.000 C 
ATOM     18  C   UNL     1       8.718  -4.486  24.540  0.00  0.00    +0.000 C 
ATOM     19  O   UNL     1       9.398  -5.651  24.502  0.00  0.00    +0.000 OA
ATOM     20  C   UNL     1       7.328  -4.395  23.902  0.00  0.00    +0.000 C 
ATOM     21  C   UNL     1       7.043  -2.864  23.788  0.00  0.00    +0.000 C 
ATOM     22  O   UNL     1       6.223  -2.609  24.944  0.00  0.00    +0.000 OA
ENDBRANCH  14  16
ENDBRANCH   5  14
TORSDOF 4
ENDMDL
MODEL 4
REMARK VINA RESULT:      -6.0      1.965      5.433
REMARK  Name = 
REMARK  4 active torsions:
REMARK  status: ('A' for Active; 'I' for Inactive)
REMARK    1  A    between atoms: C_4  and  C_5
REMARK    2  A    between atoms: C_8  and  C_9
REMARK    3  A    between atoms: C_8  and  C_19
REMARK    4  A    between atoms: C_9  and  C_12
REMARK                            x       y       z     vdW  Elec       q    Type
REMARK                         _______ _______ _______ _____ _____    ______ ____
ROOT
ATOM      1  O   UNL     1       4.672  -5.436  22.330  0.00  0.00    +0.000 OA
ATOM      2  C   UNL     1       5.576  -5.663  23.316  0.00  0.00    +0.000 C 
ATOM      3  C   UNL     1       5.251  -5.234  24.646  0.00  0.00    +0.000 C 
ATOM      4  C   UNL     1       6.250  -4.262  25.297  0.00  0.00    +0.000 C 
ATOM      5  C   UNL     1       7.243  -3.836  24.248  0.00  0.00    +0.000 C 
ATOM      6  C   UNL     1       7.966  -5.119  23.738  0.00  0.00    +0.000 C 
ATOM      7  C   UNL     1       6.955  -5.846  22.859  0.00  0.00    +0.000 C 
ENDROOT
BRANCH   4   8
ATOM      8  C   UNL     1       7.020  -5.117  26.305  0.00  0.00    +0.000 C 
ATOM      9  O   UNL     1       6.307  -6.238  26.446  0.00  0.00    +0.000 OA
ATOM     10  O   UNL     1       7.694  -4.648  27.173  0.00  0.00    +0.000 OA
ENDBRANCH   4   8
BRANCH   5  11
ATOM     11  C   UNL     1       6.566  -3.221  23.082  0.00  0.00    +0.000 C 
ATOM     12  O   UNL     1       7.356  -3.211  22.013  0.00  0.00    +0.000 OA
ATOM     13  O   UNL     1       5.597  -2.496  23.165  0.00  0.00    +0.000 OA
ENDBRANCH   5  11
BRANCH   5  14
ATOM     14  C   UNL     1       8.313  -2.916  24.792  0.00  0.00    +0.000 C 
ATOM     15  C   UNL     1       9.684  -3.506  24.500  0.00  0.00    +0.000 C 
BRANCH  14  16
ATOM     16  C   UNL     1       8.177  -1.537  24.231  0.00  0.00    +0.000 C 
ATOM     17  C   UNL     1       9.642  -1.083  23.872  0.00  0.00    +0.000 C 
ATOM     18  C   UNL     1       9.942   0.177  24.567  0.00  0.00    +0.000 C 
ATOM     19  O   UNL     1      11.199   0.628  24.754  0.00  0.00    +0.000 OA
ATOM     20  C   UNL     1       8.867   0.460  25.623  0.00  0.00    +0.000 C 
ATOM     21  C   UNL     1       7.702  -0.520  25.275  0.00  0.00    +0.000 C 
ATOM     22  O   UNL     1       6.797   0.319  24.533  0.00  0.00    +0.000 OA
ENDBRANCH  14  16
ENDBRANCH   5  14
TORSDOF 4
ENDMDL
MODEL 5
REMARK VINA RESULT:      -5.9      1.942      2.733
REMARK  Name = 
REMARK  4 active torsions:
REMARK  status: ('A' for Active; 'I' for Inactive)
REMARK    1  A    between atoms: C_4  and  C_5
REMARK    2  A    between atoms: C_8  and  C_9
REMARK    3  A    between atoms: C_8  and  C_19
REMARK    4  A    between atoms: C_9  and  C_12
REMARK                            x       y       z     vdW  Elec       q    Type
REMARK                         _______ _______ _______ _____ _____    ______ ____
ROOT
ATOM      1  O   UNL     1      10.526   2.082  21.954  0.00  0.00    +0.000 OA
ATOM      2  C   UNL     1       9.433   1.879  22.733  0.00  0.00    +0.000 C 
ATOM      3  C   UNL     1       9.630   1.345  24.051  0.00  0.00    +0.000 C 
ATOM      4  C   UNL     1       8.882   0.037  24.359  0.00  0.00    +0.000 C 
ATOM      5  C   UNL     1       8.277  -0.472  23.079  0.00  0.00    +0.000 C 
ATOM      6  C   UNL     1       7.295   0.620  22.556  0.00  0.00    +0.000 C 
ATOM      7  C   UNL     1       8.172   1.738  22.003  0.00  0.00    +0.000 C 
ENDROOT
BRANCH   4   8
ATOM      8  C   UNL     1       7.716   0.461  25.255  0.00  0.00    +0.000 C 
ATOM      9  O   UNL     1       7.989   1.712  25.634  0.00  0.00    +0.000 OA
ATOM     10  O   UNL     1       7.095  -0.312  25.922  0.00  0.00    +0.000 OA
ENDBRANCH   4   8
BRANCH   5  11
ATOM     11  C   UNL     1       9.309  -0.670  22.035  0.00  0.00    +0.000 C 
ATOM     12  O   UNL     1       8.779  -0.638  20.816  0.00  0.00    +0.000 OA
ATOM     13  O   UNL     1      10.399  -1.161  22.243  0.00  0.00    +0.000 OA
ENDBRANCH   5  11
BRANCH   5  14
ATOM     14  C   UNL     1       7.466  -1.733  23.274  0.00  0.00    +0.000 C 
ATOM     15  C   UNL     1       6.326  -1.764  22.267  0.00  0.00    +0.000 C 
BRANCH  14  16
ATOM     16  C   UNL     1       8.325  -2.952  23.167  0.00  0.00    +0.000 C 
ATOM     17  C   UNL     1       7.487  -3.985  22.323  0.00  0.00    +0.000 C 
ATOM     18  C   UNL     1       7.339  -5.229  23.092  0.00  0.00    +0.000 C 
ATOM     19  O   UNL     1       6.397  -6.154  22.811  0.00  0.00    +0.000 OA
ATOM     20  C   UNL     1       7.774  -5.002  24.543  0.00  0.00    +0.000 C 
ATOM     21  C   UNL     1       8.540  -3.642  24.520  0.00  0.00    +0.000 C 
ATOM     22  O   UNL     1       9.918  -4.056  24.465  0.00  0.00    +0.000 OA
ENDBRANCH  14  16
ENDBRANCH   5  14
TORSDOF 4
ENDMDL
MODEL 6
REMARK VINA RESULT:      -5.9      1.656      5.622
REMARK  Name = 
REMARK  4 active torsions:
REMARK  status: ('A' for Active; 'I' for Inactive)
REMARK    1  A    between atoms: C_4  and  C_5
REMARK    2  A    between atoms: C_8  and  C_9
REMARK    3  A    between atoms: C_8  and  C_19
REMARK    4  A    between atoms: C_9  and  C_12
REMARK                            x       y       z     vdW  Elec       q    Type
REMARK                         _______ _______ _______ _____ _____    ______ ____
ROOT
ATOM      1  O   UNL     1       5.342  -4.075  27.325  0.00  0.00    +0.000 OA
ATOM      2  C   UNL     1       6.399  -4.482  26.578  0.00  0.00    +0.000 C 
ATOM      3  C   UNL     1       7.624  -3.741  26.676  0.00  0.00    +0.000 C 
ATOM      4  C   UNL     1       8.163  -3.167  25.355  0.00  0.00    +0.000 C 
ATOM      5  C   UNL     1       7.116  -3.366  24.292  0.00  0.00    +0.000 C 
ATOM      6  C   UNL     1       6.858  -4.898  24.169  0.00  0.00    +0.000 C 
ATOM      7  C   UNL     1       6.053  -5.286  25.404  0.00  0.00    +0.000 C 
ENDROOT
BRANCH   4   8
ATOM      8  C   UNL     1       9.336  -4.078  24.988  0.00  0.00    +0.000 C 
ATOM      9  O   UNL     1       9.593  -4.795  26.085  0.00  0.00    +0.000 OA
ATOM     10  O   UNL     1      10.168  -3.774  24.186  0.00  0.00    +0.000 OA
ENDBRANCH   4   8
BRANCH   5  11
ATOM     11  C   UNL     1       5.831  -2.734  24.675  0.00  0.00    +0.000 C 
ATOM     12  O   UNL     1       4.817  -3.237  23.979  0.00  0.00    +0.000 OA
ATOM     13  O   UNL     1       5.744  -1.669  25.250  0.00  0.00    +0.000 OA
ENDBRANCH   5  11
BRANCH   5  14
ATOM     14  C   UNL     1       7.562  -2.885  22.930  0.00  0.00    +0.000 C 
ATOM     15  C   UNL     1       6.709  -3.543  21.856  0.00  0.00    +0.000 C 
BRANCH  14  16
ATOM     16  C   UNL     1       7.508  -1.394  22.837  0.00  0.00    +0.000 C 
ATOM     17  C   UNL     1       6.942  -1.082  21.400  0.00  0.00    +0.000 C 
ATOM     18  C   UNL     1       7.890  -0.216  20.685  0.00  0.00    +0.000 C 
ATOM     19  O   UNL     1       7.877  -0.067  19.345  0.00  0.00    +0.000 OA
ATOM     20  C   UNL     1       9.220  -0.158  21.444  0.00  0.00    +0.000 C 
ATOM     21  C   UNL     1       8.900  -0.752  22.852  0.00  0.00    +0.000 C 
ATOM     22  O   UNL     1       8.712   0.428  23.655  0.00  0.00    +0.000 OA
ENDBRANCH  14  16
ENDBRANCH   5  14
TORSDOF 4
ENDMDL
MODEL 7
REMARK VINA RESULT:      -5.9      1.751      5.430
REMARK  Name = 
REMARK  4 active torsions:
REMARK  status: ('A' for Active; 'I' for Inactive)
REMARK    1  A    between atoms: C_4  and  C_5
REMARK    2  A    between atoms: C_8  and  C_9
REMARK    3  A    between atoms: C_8  and  C_19
REMARK    4  A    between atoms: C_9  and  C_12
REMARK                            x       y       z     vdW  Elec       q    Type
REMARK                         _______ _______ _______ _____ _____    ______ ____
ROOT
ATOM      1  O   UNL     1       6.996  -5.386  23.734  0.00  0.00    +0.000 OA
ATOM      2  C   UNL     1       6.622  -4.313  24.476  0.00  0.00    +0.000 C 
ATOM      3  C   UNL     1       5.749  -3.345  23.875  0.00  0.00    +0.000 C 
ATOM      4  C   UNL     1       6.279  -1.902  23.836  0.00  0.00    +0.000 C 
ATOM      5  C   UNL     1       7.720  -1.917  24.272  0.00  0.00    +0.000 C 
ATOM      6  C   UNL     1       7.765  -2.489  25.722  0.00  0.00    +0.000 C 
ATOM      7  C   UNL     1       7.518  -3.987  25.587  0.00  0.00    +0.000 C 
ENDROOT
BRANCH   4   8
ATOM      8  C   UNL     1       5.498  -1.175  24.934  0.00  0.00    +0.000 C 
ATOM      9  O   UNL     1       4.513  -2.005  25.286  0.00  0.00    +0.000 OA
ATOM     10  O   UNL     1       5.412   0.015  24.989  0.00  0.00    +0.000 OA
ENDBRANCH   4   8
BRANCH   5  11
ATOM     11  C   UNL     1       8.532  -2.817  23.420  0.00  0.00    +0.000 C 
ATOM     12  O   UNL     1       9.681  -3.134  24.008  0.00  0.00    +0.000 OA
ATOM     13  O   UNL     1       8.370  -2.949  22.225  0.00  0.00    +0.000 OA
ENDBRANCH   5  11
BRANCH   5  14
ATOM     14  C   UNL     1       8.332  -0.536  24.326  0.00  0.00    +0.000 C 
ATOM     15  C   UNL     1       9.206  -0.416  25.565  0.00  0.00    +0.000 C 
BRANCH  14  16
ATOM     16  C   UNL     1       9.101  -0.235  23.080  0.00  0.00    +0.000 C 
ATOM     17  C   UNL     1      10.289   0.695  23.533  0.00  0.00    +0.000 C 
ATOM     18  C   UNL     1      10.247   1.944  22.760  0.00  0.00    +0.000 C 
ATOM     19  O   UNL     1      10.888   3.066  23.148  0.00  0.00    +0.000 OA
ATOM     20  C   UNL     1       8.916   2.049  22.009  0.00  0.00    +0.000 C 
ATOM     21  C   UNL     1       8.303   0.615  22.085  0.00  0.00    +0.000 C 
ATOM     22  O   UNL     1       8.658   0.053  20.808  0.00  0.00    +0.000 OA
ENDBRANCH  14  16
ENDBRANCH   5  14
TORSDOF 4
ENDMDL
MODEL 8
REMARK VINA RESULT:      -5.8      2.650      4.717
REMARK  Name = 
REMARK  4 active torsions:
REMARK  status: ('A' for Active; 'I' for Inactive)
REMARK    1  A    between atoms: C_4  and  C_5
REMARK    2  A    between atoms: C_8  and  C_9
REMARK    3  A    between atoms: C_8  and  C_19
REMARK    4  A    between atoms: C_9  and  C_12
REMARK                            x       y       z     vdW  Elec       q    Type
REMARK                         _______ _______ _______ _____ _____    ______ ____
ROOT
ATOM      1  O   UNL     1       6.855  -0.634  22.305  0.00  0.00    +0.000 OA
ATOM      2  C   UNL     1       7.064  -1.949  22.045  0.00  0.00    +0.000 C 
ATOM      3  C   UNL     1       5.923  -2.773  21.764  0.00  0.00    +0.000 C 
ATOM      4  C   UNL     1       5.736  -3.991  22.685  0.00  0.00    +0.000 C 
ATOM      5  C   UNL     1       6.723  -3.882  23.816  0.00  0.00    +0.000 C 
ATOM      6  C   UNL     1       8.152  -3.869  23.193  0.00  0.00    +0.000 C 
ATOM      7  C   UNL     1       8.321  -2.490  22.565  0.00  0.00    +0.000 C 
ENDROOT
BRANCH   4   8
ATOM      8  C   UNL     1       6.174  -5.187  21.837  0.00  0.00    +0.000 C 
ATOM      9  O   UNL     1       5.980  -4.820  20.568  0.00  0.00    +0.000 OA
ATOM     10  O   UNL     1       6.096  -6.316  22.219  0.00  0.00    +0.000 OA
ENDBRANCH   4   8
BRANCH   5  11
ATOM     11  C   UNL     1       6.556  -2.609  24.556  0.00  0.00    +0.000 C 
ATOM     12  O   UNL     1       7.645  -2.311  25.259  0.00  0.00    +0.000 OA
ATOM     13  O   UNL     1       5.482  -2.102  24.802  0.00  0.00    +0.000 OA
ENDBRANCH   5  11
BRANCH   5  14
ATOM     14  C   UNL     1       6.667  -5.061  24.761  0.00  0.00    +0.000 C 
ATOM     15  C   UNL     1       8.023  -5.244  25.424  0.00  0.00    +0.000 C 
BRANCH  14  16
ATOM     16  C   UNL     1       5.579  -4.893  25.772  0.00  0.00    +0.000 C 
ATOM     17  C   UNL     1       6.163  -5.469  27.117  0.00  0.00    +0.000 C 
ATOM     18  C   UNL     1       5.268  -6.520  27.622  0.00  0.00    +0.000 C 
ATOM     19  O   UNL     1       5.657  -7.435  28.534  0.00  0.00    +0.000 OA
ATOM     20  C   UNL     1       4.255  -6.907  26.540  0.00  0.00    +0.000 C 
ATOM     21  C   UNL     1       4.357  -5.770  25.475  0.00  0.00    +0.000 C 
ATOM     22  O   UNL     1       3.247  -4.919  25.816  0.00  0.00    +0.000 OA
ENDBRANCH  14  16
ENDBRANCH   5  14
TORSDOF 4
ENDMDL
MODEL 9
REMARK VINA RESULT:      -5.8      2.558      5.730
REMARK  Name = 
REMARK  4 active torsions:
REMARK  status: ('A' for Active; 'I' for Inactive)
REMARK    1  A    between atoms: C_4  and  C_5
REMARK    2  A    between atoms: C_8  and  C_9
REMARK    3  A    between atoms: C_8  and  C_19
REMARK    4  A    between atoms: C_9  and  C_12
REMARK                            x       y       z     vdW  Elec       q    Type
REMARK                         _______ _______ _______ _____ _____    ______ ____
ROOT
ATOM      1  O   UNL     1      10.448  -2.762  23.606  0.00  0.00    +0.000 OA
ATOM      2  C   UNL     1       9.464  -2.103  22.944  0.00  0.00    +0.000 C 
ATOM      3  C   UNL     1       9.843  -1.154  21.936  0.00  0.00    +0.000 C 
ATOM      4  C   UNL     1       9.322   0.279  22.139  0.00  0.00    +0.000 C 
ATOM      5  C   UNL     1       8.695   0.363  23.505  0.00  0.00    +0.000 C 
ATOM      6  C   UNL     1       7.526  -0.666  23.549  0.00  0.00    +0.000 C 
ATOM      7  C   UNL     1       8.181  -2.039  23.647  0.00  0.00    +0.000 C 
ENDROOT
BRANCH   4   8
ATOM      8  C   UNL     1       8.184   0.423  21.127  0.00  0.00    +0.000 C 
ATOM      9  O   UNL     1       8.436  -0.476  20.171  0.00  0.00    +0.000 OA
ATOM     10  O   UNL     1       7.617   1.456  20.931  0.00  0.00    +0.000 OA
ENDBRANCH   4   8
BRANCH   5  11
ATOM     11  C   UNL     1       9.657  -0.021  24.565  0.00  0.00    +0.000 C 
ATOM     12  O   UNL     1       9.030  -0.371  25.684  0.00  0.00    +0.000 OA
ATOM     13  O   UNL     1      10.830   0.289  24.562  0.00  0.00    +0.000 OA
ENDBRANCH   5  11
BRANCH   5  14
ATOM     14  C   UNL     1       8.096   1.721  23.794  0.00  0.00    +0.000 C 
ATOM     15  C   UNL     1       6.853   1.554  24.653  0.00  0.00    +0.000 C 
BRANCH  14  16
ATOM     16  C   UNL     1       9.094   2.626  24.440  0.00  0.00    +0.000 C 
ATOM     17  C   UNL     1       8.276   3.474  25.488  0.00  0.00    +0.000 C 
ATOM     18  C   UNL     1       8.469   4.904  25.208  0.00  0.00    +0.000 C 
ATOM     19  O   UNL     1       7.642   5.859  25.682  0.00  0.00    +0.000 OA
ATOM     20  C   UNL     1       9.136   5.084  23.840  0.00  0.00    +0.000 C 
ATOM     21  C   UNL     1       9.667   3.664  23.467  0.00  0.00    +0.000 C 
ATOM     22  O   UNL     1      11.055   3.739  23.842  0.00  0.00    +0.000 OA
ENDBRANCH  14  16
ENDBRANCH   5  14
TORSDOF 4
ENDMDL
