MODEL 1
REMARK VINA RESULT:      -8.2      0.000      0.000
REMARK  Name = 
REMARK  6 active torsions:
REMARK  status: ('A' for Active; 'I' for Inactive)
REMARK    1  A    between atoms: C_2  and  N_3
REMARK    2  A    between atoms: N_3  and  C_4
REMARK    3  A    between atoms: C_5  and  C_6
REMARK    4  A    between atoms: C_6  and  N_7
REMARK    5  A    between atoms: C_8  and  C_9
REMARK    6  A    between atoms: C_10  and  C_23
REMARK                            x       y       z     vdW  Elec       q    Type
REMARK                         _______ _______ _______ _____ _____    ______ ____
ROOT
ATOM      1  C   UNL     1       6.698  -4.221  23.660  0.00  0.00    +0.000 C 
ATOM      2  C   UNL     1       7.746  -4.084  24.687  0.00  0.00    +0.000 C 
ATOM      3  C   UNL     1       7.106  -4.736  26.056  0.00  0.00    +0.000 C 
ATOM      4  C   UNL     1       6.729  -3.280  26.564  0.00  0.00    +0.000 C 
ATOM      5  C   UNL     1       7.641  -2.630  25.350  0.00  0.00    +0.000 C 
ATOM      6  C   UNL     1       8.186  -5.282  26.853  0.00  0.00    +0.000 C 
ATOM      7  C   UNL     1       5.986  -5.516  25.642  0.00  0.00    +0.000 C 
ATOM      8  C   UNL     1       4.694  -5.367  26.409  0.00  0.00    +0.000 C 
ATOM      9  C   UNL     1       3.555  -5.114  25.407  0.00  0.00    +0.000 C 
ATOM     10  C   UNL     1       4.214  -5.010  24.002  0.00  0.00    +0.000 C 
ATOM     11  C   UNL     1       5.667  -5.211  24.116  0.00  0.00    +0.000 C 
ATOM     12  O   UNL     1       3.832  -3.815  23.447  0.00  0.00    +0.000 OA
ATOM     13  C   UNL     1       3.562  -6.131  23.155  0.00  0.00    +0.000 C 
ATOM     14  C   UNL     1       7.286  -4.734  22.309  0.00  0.00    +0.000 C 
ENDROOT
BRANCH   1  16
ATOM     15  N   UNL     1       6.715  -2.451  22.071  0.00  0.00    +0.000 NA
ATOM     16  C   UNL     1       6.160  -2.849  23.308  0.00  0.00    +0.000 C 
ATOM     17  O   UNL     1       6.026  -1.959  24.122  0.00  0.00    +0.000 OA
BRANCH  15  18
ATOM     18  C   UNL     1       8.089  -2.118  22.006  0.00  0.00    +0.000 C 
BRANCH  18  20
ATOM     19  C   UNL     1       7.092  -0.086  20.804  0.00  0.00    +0.000 C 
ATOM     20  C   UNL     1       8.437  -0.777  21.432  0.00  0.00    +0.000 C 
ATOM     21  C   UNL     1       9.684  -0.160  21.492  0.00  0.00    +0.000 C 
ATOM     22  C   UNL     1       9.889   1.167  22.256  0.00  0.00    +0.000 C 
ATOM     23  F   UNL     1      10.278   0.770  23.490  0.00  0.00    +0.000 F 
ATOM     24  C   UNL     1       8.447   1.560  22.358  0.00  0.00    +0.000 C 
ATOM     25  C   UNL     1       7.448   1.407  21.285  0.00  0.00    +0.000 C 
BRANCH  19  26
ATOM     26  N   UNL     1       7.447  -0.016  19.375  0.00  0.00    +0.000 NA
BRANCH  26  28
ATOM     27  C   UNL     1       5.868   1.019  17.878  0.00  0.00    +0.000 C 
ATOM     28  C   UNL     1       6.267  -0.261  18.620  0.00  0.00    +0.000 C 
ENDBRANCH  26  28
ENDBRANCH  19  26
ENDBRANCH  18  20
ENDBRANCH  15  18
ENDBRANCH   1  16
BRANCH   2  29
ATOM     29  C   UNL     1       9.060  -4.521  24.534  0.00  0.00    +0.000 C 
ATOM     30  O   UNL     1       9.321  -5.806  24.390  0.00  0.00    +0.000 OA
ATOM     31  O   UNL     1       9.898  -3.663  24.472  0.00  0.00    +0.000 OA
ENDBRANCH   2  29
TORSDOF 6
ENDMDL
MODEL 2
REMARK VINA RESULT:      -8.0      1.764      2.692
REMARK  Name = 
REMARK  6 active torsions:
REMARK  status: ('A' for Active; 'I' for Inactive)
REMARK    1  A    between atoms: C_2  and  N_3
REMARK    2  A    between atoms: N_3  and  C_4
REMARK    3  A    between atoms: C_5  and  C_6
REMARK    4  A    between atoms: C_6  and  N_7
REMARK    5  A    between atoms: C_8  and  C_9
REMARK    6  A    between atoms: C_10  and  C_23
REMARK                            x       y       z     vdW  Elec       q    Type
REMARK                         _______ _______ _______ _____ _____    ______ ____
ROOT
ATOM      1  C   UNL     1       6.095  -4.728  23.804  0.00  0.00    +0.000 C 
ATOM      2  C   UNL     1       7.262  -4.234  24.556  0.00  0.00    +0.000 C 
ATOM      3  C   UNL     1       7.027  -4.735  26.106  0.00  0.00    +0.000 C 
ATOM      4  C   UNL     1       6.461  -3.299  26.476  0.00  0.00    +0.000 C 
ATOM      5  C   UNL     1       6.985  -2.726  25.019  0.00  0.00    +0.000 C 
ATOM      6  C   UNL     1       8.322  -4.938  26.724  0.00  0.00    +0.000 C 
ATOM      7  C   UNL     1       6.034  -5.757  26.051  0.00  0.00    +0.000 C 
ATOM      8  C   UNL     1       4.900  -5.700  27.046  0.00  0.00    +0.000 C 
ATOM      9  C   UNL     1       3.571  -5.826  26.283  0.00  0.00    +0.000 C 
ATOM     10  C   UNL     1       3.928  -5.860  24.770  0.00  0.00    +0.000 C 
ATOM     11  C   UNL     1       5.387  -5.785  24.600  0.00  0.00    +0.000 C 
ATOM     12  O   UNL     1       3.216  -4.865  24.149  0.00  0.00    +0.000 OA
ATOM     13  C   UNL     1       3.375  -7.208  24.243  0.00  0.00    +0.000 C 
ATOM     14  C   UNL     1       6.519  -5.362  22.442  0.00  0.00    +0.000 C 
ENDROOT
BRANCH   1  16
ATOM     15  N   UNL     1       5.365  -3.369  21.992  0.00  0.00    +0.000 NA
ATOM     16  C   UNL     1       5.233  -3.553  23.387  0.00  0.00    +0.000 C 
ATOM     17  O   UNL     1       5.147  -2.531  24.036  0.00  0.00    +0.000 OA
BRANCH  15  18
ATOM     18  C   UNL     1       6.587  -2.879  21.473  0.00  0.00    +0.000 C 
BRANCH  18  20
ATOM     19  C   UNL     1       7.884  -0.717  21.937  0.00  0.00    +0.000 C 
ATOM     20  C   UNL     1       6.644  -1.420  21.132  0.00  0.00    +0.000 C 
ATOM     21  C   UNL     1       5.833  -0.764  20.209  0.00  0.00    +0.000 C 
ATOM     22  C   UNL     1       6.422  -0.117  18.936  0.00  0.00    +0.000 C 
ATOM     23  F   UNL     1       6.313  -1.088  18.001  0.00  0.00    +0.000 F 
ATOM     24  C   UNL     1       7.855  -0.091  19.375  0.00  0.00    +0.000 C 
ATOM     25  C   UNL     1       8.322   0.252  20.730  0.00  0.00    +0.000 C 
BRANCH  19  26
ATOM     26  N   UNL     1       7.161   0.226  22.809  0.00  0.00    +0.000 NA
BRANCH  26  28
ATOM     27  C   UNL     1       8.931   0.374  24.437  0.00  0.00    +0.000 C 
ATOM     28  C   UNL     1       8.115   1.117  23.374  0.00  0.00    +0.000 C 
ENDBRANCH  26  28
ENDBRANCH  19  26
ENDBRANCH  18  20
ENDBRANCH  15  18
ENDBRANCH   1  16
BRANCH   2  29
ATOM     29  C   UNL     1       8.587  -4.459  24.190  0.00  0.00    +0.000 C 
ATOM     30  O   UNL     1       9.072  -5.685  24.170  0.00  0.00    +0.000 OA
ATOM     31  O   UNL     1       9.208  -3.493  23.836  0.00  0.00    +0.000 OA
ENDBRANCH   2  29
TORSDOF 6
ENDMDL
MODEL 3
REMARK VINA RESULT:      -7.9      1.578      1.962
REMARK  Name = 
REMARK  6 active torsions:
REMARK  status: ('A' for Active; 'I' for Inactive)
REMARK    1  A    between atoms: C_2  and  N_3
REMARK    2  A    between atoms: N_3  and  C_4
REMARK    3  A    between atoms: C_5  and  C_6
REMARK    4  A    between atoms: C_6  and  N_7
REMARK    5  A    between atoms: C_8  and  C_9
REMARK    6  A    between atoms: C_10  and  C_23
REMARK                            x       y       z     vdW  Elec       q    Type
REMARK                         _______ _______ _______ _____ _____    ______ ____
ROOT
ATOM      1  C   UNL     1       6.913  -3.625  24.135  0.00  0.00    +0.000 C 
ATOM      2  C   UNL     1       7.076  -3.565  25.598  0.00  0.00    +0.000 C 
ATOM      3  C   UNL     1       6.256  -4.867  26.184  0.00  0.00    +0.000 C 
ATOM      4  C   UNL     1       5.016  -3.931  26.506  0.00  0.00    +0.000 C 
ATOM      5  C   UNL     1       5.952  -2.603  26.210  0.00  0.00    +0.000 C 
ATOM      6  C   UNL     1       6.894  -5.296  27.412  0.00  0.00    +0.000 C 
ATOM      7  C   UNL     1       6.052  -5.743  25.077  0.00  0.00    +0.000 C 
ATOM      8  C   UNL     1       4.676  -6.332  24.881  0.00  0.00    +0.000 C 
ATOM      9  C   UNL     1       4.243  -6.094  23.425  0.00  0.00    +0.000 C 
ATOM     10  C   UNL     1       5.365  -5.246  22.761  0.00  0.00    +0.000 C 
ATOM     11  C   UNL     1       6.440  -4.992  23.732  0.00  0.00    +0.000 C 
ATOM     12  O   UNL     1       4.781  -4.124  22.228  0.00  0.00    +0.000 OA
ATOM     13  C   UNL     1       5.879  -6.096  21.572  0.00  0.00    +0.000 C 
ATOM     14  C   UNL     1       8.261  -3.352  23.398  0.00  0.00    +0.000 C 
ENDROOT
BRANCH   1  16
ATOM     15  N   UNL     1       6.846  -1.486  23.096  0.00  0.00    +0.000 NA
ATOM     16  C   UNL     1       6.030  -2.480  23.681  0.00  0.00    +0.000 C 
ATOM     17  O   UNL     1       5.098  -2.062  24.336  0.00  0.00    +0.000 OA
BRANCH  15  18
ATOM     18  C   UNL     1       7.706  -0.724  23.922  0.00  0.00    +0.000 C 
BRANCH  18  20
ATOM     19  C   UNL     1       8.474   0.934  22.125  0.00  0.00    +0.000 C 
ATOM     20  C   UNL     1       8.926  -0.139  23.276  0.00  0.00    +0.000 C 
ATOM     21  C   UNL     1      10.246  -0.390  23.642  0.00  0.00    +0.000 C 
ATOM     22  C   UNL     1      11.156   0.731  24.191  0.00  0.00    +0.000 C 
ATOM     23  F   UNL     1      11.004   0.642  25.532  0.00  0.00    +0.000 F 
ATOM     24  C   UNL     1      10.330   1.895  23.734  0.00  0.00    +0.000 C 
ATOM     25  C   UNL     1       9.647   1.992  22.432  0.00  0.00    +0.000 C 
BRANCH  19  26
ATOM     26  N   UNL     1       8.992   0.283  20.907  0.00  0.00    +0.000 NA
BRANCH  26  28
ATOM     27  C   UNL     1       6.750   1.002  20.397  0.00  0.00    +0.000 C 
ATOM     28  C   UNL     1       7.892   0.046  20.038  0.00  0.00    +0.000 C 
ENDBRANCH  26  28
ENDBRANCH  19  26
ENDBRANCH  18  20
ENDBRANCH  15  18
ENDBRANCH   1  16
BRANCH   2  29
ATOM     29  C   UNL     1       8.303  -3.456  26.250  0.00  0.00    +0.000 C 
ATOM     30  O   UNL     1       9.183  -4.436  26.178  0.00  0.00    +0.000 OA
ATOM     31  O   UNL     1       8.517  -2.409  26.799  0.00  0.00    +0.000 OA
ENDBRANCH   2  29
TORSDOF 6
ENDMDL
MODEL 4
REMARK VINA RESULT:      -7.6      2.588      6.684
REMARK  Name = 
REMARK  6 active torsions:
REMARK  status: ('A' for Active; 'I' for Inactive)
REMARK    1  A    between atoms: C_2  and  N_3
REMARK    2  A    between atoms: N_3  and  C_4
REMARK    3  A    between atoms: C_5  and  C_6
REMARK    4  A    between atoms: C_6  and  N_7
REMARK    5  A    between atoms: C_8  and  C_9
REMARK    6  A    between atoms: C_10  and  C_23
REMARK                            x       y       z     vdW  Elec       q    Type
REMARK                         _______ _______ _______ _____ _____    ______ ____
ROOT
ATOM      1  C   UNL     1       7.361  -0.578  23.747  0.00  0.00    +0.000 C 
ATOM      2  C   UNL     1       8.540  -0.945  24.551  0.00  0.00    +0.000 C 
ATOM      3  C   UNL     1       9.737   0.073  24.063  0.00  0.00    +0.000 C 
ATOM      4  C   UNL     1      10.307  -1.064  23.114  0.00  0.00    +0.000 C 
ATOM      5  C   UNL     1       9.303  -2.158  23.836  0.00  0.00    +0.000 C 
ATOM      6  C   UNL     1      10.636   0.294  25.178  0.00  0.00    +0.000 C 
ATOM      7  C   UNL     1       9.095   1.143  23.371  0.00  0.00    +0.000 C 
ATOM      8  C   UNL     1       9.672   1.578  22.045  0.00  0.00    +0.000 C 
ATOM      9  C   UNL     1       8.537   1.621  21.007  0.00  0.00    +0.000 C 
ATOM     10  C   UNL     1       7.260   1.096  21.724  0.00  0.00    +0.000 C 
ATOM     11  C   UNL     1       7.571   0.771  23.124  0.00  0.00    +0.000 C 
ATOM     12  O   UNL     1       6.760   0.057  20.980  0.00  0.00    +0.000 OA
ATOM     13  C   UNL     1       6.232   2.251  21.636  0.00  0.00    +0.000 C 
ATOM     14  C   UNL     1       6.072  -0.501  24.625  0.00  0.00    +0.000 C 
ENDROOT
BRANCH   1  16
ATOM     15  N   UNL     1       5.974  -2.454  23.282  0.00  0.00    +0.000 NA
ATOM     16  C   UNL     1       7.052  -1.696  22.772  0.00  0.00    +0.000 C 
ATOM     17  O   UNL     1       7.911  -2.339  22.205  0.00  0.00    +0.000 OA
BRANCH  15  18
ATOM     18  C   UNL     1       6.181  -3.271  24.419  0.00  0.00    +0.000 C 
BRANCH  18  20
ATOM     19  C   UNL     1       5.019  -5.517  24.836  0.00  0.00    +0.000 C 
ATOM     20  C   UNL     1       6.307  -4.746  24.182  0.00  0.00    +0.000 C 
ATOM     21  C   UNL     1       7.309  -5.374  23.446  0.00  0.00    +0.000 C 
ATOM     22  C   UNL     1       6.990  -6.150  22.149  0.00  0.00    +0.000 C 
ATOM     23  F   UNL     1       7.163  -5.229  21.173  0.00  0.00    +0.000 F 
ATOM     24  C   UNL     1       5.513  -6.288  22.362  0.00  0.00    +0.000 C 
ATOM     25  C   UNL     1       4.867  -6.594  23.651  0.00  0.00    +0.000 C 
BRANCH  19  26
ATOM     26  N   UNL     1       5.673  -6.332  25.877  0.00  0.00    +0.000 NA
BRANCH  26  28
ATOM     27  C   UNL     1       6.751  -5.279  27.756  0.00  0.00    +0.000 C 
ATOM     28  C   UNL     1       5.421  -5.717  27.134  0.00  0.00    +0.000 C 
ENDBRANCH  26  28
ENDBRANCH  19  26
ENDBRANCH  18  20
ENDBRANCH  15  18
ENDBRANCH   1  16
BRANCH   2  29
ATOM     29  C   UNL     1       8.547  -1.039  25.942  0.00  0.00    +0.000 C 
ATOM     30  O   UNL     1       8.272   0.018  26.680  0.00  0.00    +0.000 OA
ATOM     31  O   UNL     1       8.743  -2.134  26.396  0.00  0.00    +0.000 OA
ENDBRANCH   2  29
TORSDOF 6
ENDMDL
MODEL 5
REMARK VINA RESULT:      -7.4      2.106      3.159
REMARK  Name = 
REMARK  6 active torsions:
REMARK  status: ('A' for Active; 'I' for Inactive)
REMARK    1  A    between atoms: C_2  and  N_3
REMARK    2  A    between atoms: N_3  and  C_4
REMARK    3  A    between atoms: C_5  and  C_6
REMARK    4  A    between atoms: C_6  and  N_7
REMARK    5  A    between atoms: C_8  and  C_9
REMARK    6  A    between atoms: C_10  and  C_23
REMARK                            x       y       z     vdW  Elec       q    Type
REMARK                         _______ _______ _______ _____ _____    ______ ____
ROOT
ATOM      1  C   UNL     1       6.911  -3.605  24.224  0.00  0.00    +0.000 C 
ATOM      2  C   UNL     1       7.066  -3.597  25.690  0.00  0.00    +0.000 C 
ATOM      3  C   UNL     1       6.302  -4.956  26.218  0.00  0.00    +0.000 C 
ATOM      4  C   UNL     1       5.021  -4.089  26.572  0.00  0.00    +0.000 C 
ATOM      5  C   UNL     1       5.898  -2.710  26.334  0.00  0.00    +0.000 C 
ATOM      6  C   UNL     1       6.954  -5.406  27.431  0.00  0.00    +0.000 C 
ATOM      7  C   UNL     1       6.141  -5.794  25.076  0.00  0.00    +0.000 C 
ATOM      8  C   UNL     1       4.792  -6.434  24.849  0.00  0.00    +0.000 C 
ATOM      9  C   UNL     1       4.355  -6.157  23.401  0.00  0.00    +0.000 C 
ATOM     10  C   UNL     1       5.441  -5.234  22.778  0.00  0.00    +0.000 C 
ATOM     11  C   UNL     1       6.500  -4.973  23.764  0.00  0.00    +0.000 C 
ATOM     12  O   UNL     1       4.810  -4.118  22.288  0.00  0.00    +0.000 OA
ATOM     13  C   UNL     1       5.995  -6.012  21.558  0.00  0.00    +0.000 C 
ATOM     14  C   UNL     1       8.249  -3.243  23.506  0.00  0.00    +0.000 C 
ENDROOT
BRANCH   1  16
ATOM     15  N   UNL     1       6.749  -1.451  23.227  0.00  0.00    +0.000 NA
ATOM     16  C   UNL     1       5.980  -2.482  23.813  0.00  0.00    +0.000 C 
ATOM     17  O   UNL     1       5.051  -2.106  24.497  0.00  0.00    +0.000 OA
BRANCH  15  18
ATOM     18  C   UNL     1       7.603  -0.675  24.048  0.00  0.00    +0.000 C 
BRANCH  18  20
ATOM     19  C   UNL     1       9.081   1.356  24.557  0.00  0.00    +0.000 C 
ATOM     20  C   UNL     1       8.025   0.662  23.516  0.00  0.00    +0.000 C 
ATOM     21  C   UNL     1       7.657   1.208  22.289  0.00  0.00    +0.000 C 
ATOM     22  C   UNL     1       8.703   1.496  21.189  0.00  0.00    +0.000 C 
ATOM     23  F   UNL     1       8.696   0.373  20.436  0.00  0.00    +0.000 F 
ATOM     24  C   UNL     1       9.923   1.432  22.058  0.00  0.00    +0.000 C 
ATOM     25  C   UNL     1      10.025   1.989  23.418  0.00  0.00    +0.000 C 
BRANCH  19  26
ATOM     26  N   UNL     1       8.321   2.543  24.987  0.00  0.00    +0.000 NA
BRANCH  26  28
ATOM     27  C   UNL     1       8.484   4.924  25.316  0.00  0.00    +0.000 C 
ATOM     28  C   UNL     1       9.055   3.697  24.597  0.00  0.00    +0.000 C 
ENDBRANCH  26  28
ENDBRANCH  19  26
ENDBRANCH  18  20
ENDBRANCH  15  18
ENDBRANCH   1  16
BRANCH   2  29
ATOM     29  C   UNL     1       8.285  -3.461  26.352  0.00  0.00    +0.000 C 
ATOM     30  O   UNL     1       9.172  -4.435  26.317  0.00  0.00    +0.000 OA
ATOM     31  O   UNL     1       8.485  -2.398  26.875  0.00  0.00    +0.000 OA
ENDBRANCH   2  29
TORSDOF 6
ENDMDL
MODEL 6
REMARK VINA RESULT:      -7.4      2.585      6.735
REMARK  Name = 
REMARK  6 active torsions:
REMARK  status: ('A' for Active; 'I' for Inactive)
REMARK    1  A    between atoms: C_2  and  N_3
REMARK    2  A    between atoms: N_3  and  C_4
REMARK    3  A    between atoms: C_5  and  C_6
REMARK    4  A    between atoms: C_6  and  N_7
REMARK    5  A    between atoms: C_8  and  C_9
REMARK    6  A    between atoms: C_10  and  C_23
REMARK                            x       y       z     vdW  Elec       q    Type
REMARK                         _______ _______ _______ _____ _____    ______ ____
ROOT
ATOM      1  C   UNL     1       7.700  -0.177  24.511  0.00  0.00    +0.000 C 
ATOM      2  C   UNL     1       8.601  -0.460  23.380  0.00  0.00    +0.000 C 
ATOM      3  C   UNL     1       8.428   0.814  22.352  0.00  0.00    +0.000 C 
ATOM      4  C   UNL     1       7.420  -0.041  21.474  0.00  0.00    +0.000 C 
ATOM      5  C   UNL     1       7.839  -1.393  22.325  0.00  0.00    +0.000 C 
ATOM      6  C   UNL     1       9.677   1.003  21.642  0.00  0.00    +0.000 C 
ATOM      7  C   UNL     1       7.808   1.855  23.105  0.00  0.00    +0.000 C 
ATOM      8  C   UNL     1       6.647   2.589  22.479  0.00  0.00    +0.000 C 
ATOM      9  C   UNL     1       5.478   2.603  23.478  0.00  0.00    +0.000 C 
ATOM     10  C   UNL     1       5.932   1.759  24.703  0.00  0.00    +0.000 C 
ATOM     11  C   UNL     1       7.303   1.271  24.494  0.00  0.00    +0.000 C 
ATOM     12  O   UNL     1       4.990   0.782  24.911  0.00  0.00    +0.000 OA
ATOM     13  C   UNL     1       5.862   2.719  25.917  0.00  0.00    +0.000 C 
ATOM     14  C   UNL     1       8.392  -0.464  25.880  0.00  0.00    +0.000 C 
ENDROOT
BRANCH   1  16
ATOM     15  N   UNL     1       6.718  -2.077  25.552  0.00  0.00    +0.000 NA
ATOM     16  C   UNL     1       6.547  -1.159  24.491  0.00  0.00    +0.000 C 
ATOM     17  O   UNL     1       6.096  -1.632  23.468  0.00  0.00    +0.000 OA
BRANCH  15  18
ATOM     18  C   UNL     1       7.759  -3.032  25.478  0.00  0.00    +0.000 C 
BRANCH  18  20
ATOM     19  C   UNL     1       6.042  -4.903  25.828  0.00  0.00    +0.000 C 
ATOM     20  C   UNL     1       7.383  -4.412  25.027  0.00  0.00    +0.000 C 
ATOM     21  C   UNL     1       8.011  -5.144  24.022  0.00  0.00    +0.000 C 
ATOM     22  C   UNL     1       7.265  -5.541  22.729  0.00  0.00    +0.000 C 
ATOM     23  F   UNL     1       7.555  -4.539  21.869  0.00  0.00    +0.000 F 
ATOM     24  C   UNL     1       5.871  -5.301  23.226  0.00  0.00    +0.000 C 
ATOM     25  C   UNL     1       5.377  -5.652  24.569  0.00  0.00    +0.000 C 
BRANCH  19  26
ATOM     26  N   UNL     1       6.569  -6.048  26.592  0.00  0.00    +0.000 NA
BRANCH  26  28
ATOM     27  C   UNL     1       5.464  -4.643  28.207  0.00  0.00    +0.000 C 
ATOM     28  C   UNL     1       6.548  -5.699  27.971  0.00  0.00    +0.000 C 
ENDBRANCH  26  28
ENDBRANCH  19  26
ENDBRANCH  18  20
ENDBRANCH  15  18
ENDBRANCH   1  16
BRANCH   2  29
ATOM     29  C   UNL     1       9.953  -0.773  23.510  0.00  0.00    +0.000 C 
ATOM     30  O   UNL     1      10.783   0.085  24.069  0.00  0.00    +0.000 OA
ATOM     31  O   UNL     1      10.276  -1.874  23.154  0.00  0.00    +0.000 OA
ENDBRANCH   2  29
TORSDOF 6
ENDMDL
MODEL 7
REMARK VINA RESULT:      -7.3      2.544      6.717
REMARK  Name = 
REMARK  6 active torsions:
REMARK  status: ('A' for Active; 'I' for Inactive)
REMARK    1  A    between atoms: C_2  and  N_3
REMARK    2  A    between atoms: N_3  and  C_4
REMARK    3  A    between atoms: C_5  and  C_6
REMARK    4  A    between atoms: C_6  and  N_7
REMARK    5  A    between atoms: C_8  and  C_9
REMARK    6  A    between atoms: C_10  and  C_23
REMARK                            x       y       z     vdW  Elec       q    Type
REMARK                         _______ _______ _______ _____ _____    ______ ____
ROOT
ATOM      1  C   UNL     1       7.677  -1.106  23.403  0.00  0.00    +0.000 C 
ATOM      2  C   UNL     1       7.572  -0.707  24.818  0.00  0.00    +0.000 C 
ATOM      3  C   UNL     1       7.954   0.894  24.851  0.00  0.00    +0.000 C 
ATOM      4  C   UNL     1       9.432   0.524  25.296  0.00  0.00    +0.000 C 
ATOM      5  C   UNL     1       8.954  -1.035  25.557  0.00  0.00    +0.000 C 
ATOM      6  C   UNL     1       7.240   1.513  25.949  0.00  0.00    +0.000 C 
ATOM      7  C   UNL     1       7.849   1.359  23.507  0.00  0.00    +0.000 C 
ATOM      8  C   UNL     1       8.967   2.215  22.962  0.00  0.00    +0.000 C 
ATOM      9  C   UNL     1       9.421   1.631  21.615  0.00  0.00    +0.000 C 
ATOM     10  C   UNL     1       8.609   0.321  21.402  0.00  0.00    +0.000 C 
ATOM     11  C   UNL     1       7.689   0.116  22.531  0.00  0.00    +0.000 C 
ATOM     12  O   UNL     1       9.503  -0.696  21.185  0.00  0.00    +0.000 OA
ATOM     13  C   UNL     1       7.829   0.528  20.079  0.00  0.00    +0.000 C 
ATOM     14  C   UNL     1       6.467  -1.990  22.967  0.00  0.00    +0.000 C 
ENDROOT
BRANCH   1  16
ATOM     15  N   UNL     1       8.388  -3.351  23.069  0.00  0.00    +0.000 NA
ATOM     16  C   UNL     1       8.865  -2.030  23.230  0.00  0.00    +0.000 C 
ATOM     17  O   UNL     1       9.886  -1.927  23.877  0.00  0.00    +0.000 OA
BRANCH  15  18
ATOM     18  C   UNL     1       7.812  -4.017  24.177  0.00  0.00    +0.000 C 
BRANCH  18  20
ATOM     19  C   UNL     1       5.594  -5.079  24.901  0.00  0.00    +0.000 C 
ATOM     20  C   UNL     1       6.870  -5.144  23.877  0.00  0.00    +0.000 C 
ATOM     21  C   UNL     1       6.997  -6.063  22.838  0.00  0.00    +0.000 C 
ATOM     22  C   UNL     1       5.955  -6.141  21.701  0.00  0.00    +0.000 C 
ATOM     23  F   UNL     1       6.460  -5.330  20.744  0.00  0.00    +0.000 F 
ATOM     24  C   UNL     1       4.860  -5.381  22.385  0.00  0.00    +0.000 C 
ATOM     25  C   UNL     1       4.497  -5.512  23.808  0.00  0.00    +0.000 C 
BRANCH  19  26
ATOM     26  N   UNL     1       5.762  -6.338  25.649  0.00  0.00    +0.000 NA
BRANCH  26  28
ATOM     27  C   UNL     1       6.845  -5.391  27.581  0.00  0.00    +0.000 C 
ATOM     28  C   UNL     1       5.578  -6.053  27.030  0.00  0.00    +0.000 C 
ENDBRANCH  26  28
ENDBRANCH  19  26
ENDBRANCH  18  20
ENDBRANCH  15  18
ENDBRANCH   1  16
BRANCH   2  29
ATOM     29  C   UNL     1       6.455  -0.936  25.620  0.00  0.00    +0.000 C 
ATOM     30  O   UNL     1       5.281  -0.439  25.281  0.00  0.00    +0.000 OA
ATOM     31  O   UNL     1       6.624  -1.654  26.567  0.00  0.00    +0.000 OA
ENDBRANCH   2  29
TORSDOF 6
ENDMDL
MODEL 8
REMARK VINA RESULT:      -7.3      2.915      6.558
REMARK  Name = 
REMARK  6 active torsions:
REMARK  status: ('A' for Active; 'I' for Inactive)
REMARK    1  A    between atoms: C_2  and  N_3
REMARK    2  A    between atoms: N_3  and  C_4
REMARK    3  A    between atoms: C_5  and  C_6
REMARK    4  A    between atoms: C_6  and  N_7
REMARK    5  A    between atoms: C_8  and  C_9
REMARK    6  A    between atoms: C_10  and  C_23
REMARK                            x       y       z     vdW  Elec       q    Type
REMARK                         _______ _______ _______ _____ _____    ______ ____
ROOT
ATOM      1  C   UNL     1       7.338  -0.718  23.667  0.00  0.00    +0.000 C 
ATOM      2  C   UNL     1       8.488  -1.051  24.526  0.00  0.00    +0.000 C 
ATOM      3  C   UNL     1       9.703  -0.054  24.036  0.00  0.00    +0.000 C 
ATOM      4  C   UNL     1      10.303  -1.231  23.157  0.00  0.00    +0.000 C 
ATOM      5  C   UNL     1       9.273  -2.293  23.889  0.00  0.00    +0.000 C 
ATOM      6  C   UNL     1      10.563   0.213  25.172  0.00  0.00    +0.000 C 
ATOM      7  C   UNL     1       9.088   0.985  23.278  0.00  0.00    +0.000 C 
ATOM      8  C   UNL     1       9.710   1.363  21.955  0.00  0.00    +0.000 C 
ATOM      9  C   UNL     1       8.613   1.362  20.878  0.00  0.00    +0.000 C 
ATOM     10  C   UNL     1       7.310   0.869  21.571  0.00  0.00    +0.000 C 
ATOM     11  C   UNL     1       7.572   0.603  22.994  0.00  0.00    +0.000 C 
ATOM     12  O   UNL     1       6.834  -0.201  20.855  0.00  0.00    +0.000 OA
ATOM     13  C   UNL     1       6.288   2.020  21.399  0.00  0.00    +0.000 C 
ATOM     14  C   UNL     1       6.020  -0.603  24.495  0.00  0.00    +0.000 C 
ENDROOT
BRANCH   1  16
ATOM     15  N   UNL     1       5.787  -2.408  23.034  0.00  0.00    +0.000 NA
ATOM     16  C   UNL     1       7.061  -1.876  22.729  0.00  0.00    +0.000 C 
ATOM     17  O   UNL     1       7.901  -2.696  22.421  0.00  0.00    +0.000 OA
BRANCH  15  18
ATOM     18  C   UNL     1       5.608  -3.119  24.244  0.00  0.00    +0.000 C 
BRANCH  18  20
ATOM     19  C   UNL     1       5.633  -5.628  23.720  0.00  0.00    +0.000 C 
ATOM     20  C   UNL     1       4.739  -4.340  24.192  0.00  0.00    +0.000 C 
ATOM     21  C   UNL     1       3.399  -4.408  24.566  0.00  0.00    +0.000 C 
ATOM     22  C   UNL     1       2.938  -5.287  25.750  0.00  0.00    +0.000 C 
ATOM     23  F   UNL     1       2.956  -4.441  26.805  0.00  0.00    +0.000 F 
ATOM     24  C   UNL     1       4.166  -6.139  25.852  0.00  0.00    +0.000 C 
ATOM     25  C   UNL     1       4.921  -6.679  24.708  0.00  0.00    +0.000 C 
BRANCH  19  26
ATOM     26  N   UNL     1       4.993  -5.966  22.436  0.00  0.00    +0.000 NA
BRANCH  26  28
ATOM     27  C   UNL     1       7.351  -6.043  21.954  0.00  0.00    +0.000 C 
ATOM     28  C   UNL     1       5.949  -5.762  21.404  0.00  0.00    +0.000 C 
ENDBRANCH  26  28
ENDBRANCH  19  26
ENDBRANCH  18  20
ENDBRANCH  15  18
ENDBRANCH   1  16
BRANCH   2  29
ATOM     29  C   UNL     1       8.447  -1.085  25.918  0.00  0.00    +0.000 C 
ATOM     30  O   UNL     1       8.192   0.013  26.603  0.00  0.00    +0.000 OA
ATOM     31  O   UNL     1       8.582  -2.167  26.424  0.00  0.00    +0.000 OA
ENDBRANCH   2  29
TORSDOF 6
ENDMDL
MODEL 9
REMARK VINA RESULT:      -7.2      2.550      6.430
REMARK  Name = 
REMARK  6 active torsions:
REMARK  status: ('A' for Active; 'I' for Inactive)
REMARK    1  A    between atoms: C_2  and  N_3
REMARK    2  A    between atoms: N_3  and  C_4
REMARK    3  A    between atoms: C_5  and  C_6
REMARK    4  A    between atoms: C_6  and  N_7
REMARK    5  A    between atoms: C_8  and  C_9
REMARK    6  A    between atoms: C_10  and  C_23
REMARK                            x       y       z     vdW  Elec       q    Type
REMARK                         _______ _______ _______ _____ _____    ______ ____
ROOT
ATOM      1  C   UNL     1       7.132  -0.637  23.895  0.00  0.00    +0.000 C 
ATOM      2  C   UNL     1       8.254  -0.758  24.843  0.00  0.00    +0.000 C 
ATOM      3  C   UNL     1       9.590  -0.293  24.002  0.00  0.00    +0.000 C 
ATOM      4  C   UNL     1       9.943  -1.817  23.734  0.00  0.00    +0.000 C 
ATOM      5  C   UNL     1       8.790  -2.267  24.828  0.00  0.00    +0.000 C 
ATOM      6  C   UNL     1      10.539   0.286  24.931  0.00  0.00    +0.000 C 
ATOM      7  C   UNL     1       9.117   0.406  22.852  0.00  0.00    +0.000 C 
ATOM      8  C   UNL     1       9.725   0.064  21.513  0.00  0.00    +0.000 C 
ATOM      9  C   UNL     1       8.589  -0.213  20.515  0.00  0.00    +0.000 C 
ATOM     10  C   UNL     1       7.260  -0.129  21.319  0.00  0.00    +0.000 C 
ATOM     11  C   UNL     1       7.546   0.204  22.723  0.00  0.00    +0.000 C 
ATOM     12  O   UNL     1       6.578  -1.304  21.125  0.00  0.00    +0.000 OA
ATOM     13  C   UNL     1       6.434   0.991  20.639  0.00  0.00    +0.000 C 
ATOM     14  C   UNL     1       5.895   0.046  24.557  0.00  0.00    +0.000 C 
ENDROOT
BRANCH   1  16
ATOM     15  N   UNL     1       5.350  -2.193  24.138  0.00  0.00    +0.000 NA
ATOM     16  C   UNL     1       6.620  -2.019  23.545  0.00  0.00    +0.000 C 
ATOM     17  O   UNL     1       7.326  -3.007  23.540  0.00  0.00    +0.000 OA
BRANCH  15  18
ATOM     18  C   UNL     1       5.257  -2.326  25.544  0.00  0.00    +0.000 C 
BRANCH  18  20
ATOM     19  C   UNL     1       4.587  -4.756  25.078  0.00  0.00    +0.000 C 
ATOM     20  C   UNL     1       5.332  -3.717  26.101  0.00  0.00    +0.000 C 
ATOM     21  C   UNL     1       6.001  -4.099  27.261  0.00  0.00    +0.000 C 
ATOM     22  C   UNL     1       7.203  -5.068  27.214  0.00  0.00    +0.000 C 
ATOM     23  F   UNL     1       8.275  -4.248  27.136  0.00  0.00    +0.000 F 
ATOM     24  C   UNL     1       6.965  -5.609  25.837  0.00  0.00    +0.000 C 
ATOM     25  C   UNL     1       5.646  -5.951  25.276  0.00  0.00    +0.000 C 
BRANCH  19  26
ATOM     26  N   UNL     1       3.468  -5.228  25.914  0.00  0.00    +0.000 NA
BRANCH  26  28
ATOM     27  C   UNL     1       2.631  -4.977  23.669  0.00  0.00    +0.000 C 
ATOM     28  C   UNL     1       2.273  -5.104  25.153  0.00  0.00    +0.000 C 
ENDBRANCH  26  28
ENDBRANCH  19  26
ENDBRANCH  18  20
ENDBRANCH  15  18
ENDBRANCH   1  16
BRANCH   2  29
ATOM     29  C   UNL     1       8.279  -0.182  26.111  0.00  0.00    +0.000 C 
ATOM     30  O   UNL     1       8.059   1.110  26.258  0.00  0.00    +0.000 OA
ATOM     31  O   UNL     1       8.437  -0.938  27.032  0.00  0.00    +0.000 OA
ENDBRANCH   2  29
TORSDOF 6
ENDMDL
