MODEL 1
REMARK VINA RESULT:      -5.4      0.000      0.000
REMARK  Name = 
REMARK  2 active torsions:
REMARK  status: ('A' for Active; 'I' for Inactive)
REMARK    1  A    between atoms: N_4  and  C_5
REMARK    2  A    between atoms: C_8  and  C_9
REMARK                            x       y       z     vdW  Elec       q    Type
REMARK                         _______ _______ _______ _____ _____    ______ ____
ROOT
ATOM      1  C   UNL     1       8.704  -0.448  22.046  0.00  0.00    +0.000 C 
ATOM      2  O   UNL     1       8.696  -0.583  20.489  0.00  0.00    +0.000 OA
ATOM      3  C   UNL     1       7.498   0.022  20.162  0.00  0.00    +0.000 C 
ATOM      4  N   UNL     1       7.572   0.325  18.755  0.00  0.00    +0.000 NA
ATOM      5  O   UNL     1       7.689   1.113  20.864  0.00  0.00    +0.000 OA
ATOM      6  C   UNL     1       7.622   1.255  21.985  0.00  0.00    +0.000 C 
ATOM      7  C   UNL     1       9.763  -0.093  21.775  0.00  0.00    +0.000 C 
ENDROOT
BRANCH   1  11
ATOM      8  C   UNL     1      10.490   2.837  23.206  0.00  0.00    +0.000 C 
ATOM      9  N   UNL     1      10.828   1.674  24.024  0.00  0.00    +0.000 NA
ATOM     10  C   UNL     1      10.244   0.548  24.057  0.00  0.00    +0.000 C 
ATOM     11  N   UNL     1       9.260   0.896  22.879  0.00  0.00    +0.000 NA
ATOM     12  O   UNL     1       9.969  -0.111  24.984  0.00  0.00    +0.000 OA
ENDBRANCH   1  11
BRANCH   3  13
ATOM     13  C   UNL     1       6.491  -0.972  20.502  0.00  0.00    +0.000 C 
ATOM     14  O   UNL     1       5.685  -1.387  19.459  0.00  0.00    +0.000 OA
ENDBRANCH   3  13
TORSDOF 2
ENDMDL
MODEL 2
REMARK VINA RESULT:      -5.4      2.107      2.539
REMARK  Name = 
REMARK  2 active torsions:
REMARK  status: ('A' for Active; 'I' for Inactive)
REMARK    1  A    between atoms: N_4  and  C_5
REMARK    2  A    between atoms: C_8  and  C_9
REMARK                            x       y       z     vdW  Elec       q    Type
REMARK                         _______ _______ _______ _____ _____    ______ ____
ROOT
ATOM      1  C   UNL     1       8.906  -0.132  21.198  0.00  0.00    +0.000 C 
ATOM      2  O   UNL     1       8.101   1.149  20.804  0.00  0.00    +0.000 OA
ATOM      3  C   UNL     1       6.976   0.603  20.215  0.00  0.00    +0.000 C 
ATOM      4  N   UNL     1       5.989   1.652  20.186  0.00  0.00    +0.000 NA
ATOM      5  O   UNL     1       6.703  -0.242  21.180  0.00  0.00    +0.000 OA
ATOM      6  C   UNL     1       7.219  -1.216  21.437  0.00  0.00    +0.000 C 
ATOM      7  C   UNL     1       8.957   0.485  22.166  0.00  0.00    +0.000 C 
ENDROOT
BRANCH   1  11
ATOM      8  C   UNL     1       8.201  -1.284  24.873  0.00  0.00    +0.000 C 
ATOM      9  N   UNL     1       9.569  -1.554  24.432  0.00  0.00    +0.000 NA
ATOM     10  C   UNL     1      10.027  -1.524  23.250  0.00  0.00    +0.000 C 
ATOM     11  N   UNL     1       8.687  -0.988  22.622  0.00  0.00    +0.000 NA
ATOM     12  O   UNL     1      10.757  -2.273  22.724  0.00  0.00    +0.000 OA
ENDBRANCH   1  11
BRANCH   3  13
ATOM     13  C   UNL     1       7.431   0.181  18.898  0.00  0.00    +0.000 C 
ATOM     14  O   UNL     1       6.605   0.519  17.844  0.00  0.00    +0.000 OA
ENDBRANCH   3  13
TORSDOF 2
ENDMDL
MODEL 3
REMARK VINA RESULT:      -5.4      7.164      8.578
REMARK  Name = 
REMARK  2 active torsions:
REMARK  status: ('A' for Active; 'I' for Inactive)
REMARK    1  A    between atoms: N_4  and  C_5
REMARK    2  A    between atoms: C_8  and  C_9
REMARK                            x       y       z     vdW  Elec       q    Type
REMARK                         _______ _______ _______ _____ _____    ______ ____
ROOT
ATOM      1  C   UNL     1       7.400  -4.585  26.929  0.00  0.00    +0.000 C 
ATOM      2  O   UNL     1       7.332  -5.850  27.844  0.00  0.00    +0.000 OA
ATOM      3  C   UNL     1       5.968  -6.023  27.981  0.00  0.00    +0.000 C 
ATOM      4  N   UNL     1       5.780  -7.373  28.450  0.00  0.00    +0.000 NA
ATOM      5  O   UNL     1       5.683  -5.951  26.703  0.00  0.00    +0.000 OA
ATOM      6  C   UNL     1       5.647  -5.037  26.036  0.00  0.00    +0.000 C 
ATOM      7  C   UNL     1       8.145  -5.290  26.410  0.00  0.00    +0.000 C 
ENDROOT
BRANCH   1  11
ATOM      8  C   UNL     1       6.794  -5.483  23.166  0.00  0.00    +0.000 C 
ATOM      9  N   UNL     1       8.210  -5.385  23.518  0.00  0.00    +0.000 NA
ATOM     10  C   UNL     1       8.719  -4.885  24.567  0.00  0.00    +0.000 C 
ATOM     11  N   UNL     1       7.328  -4.621  25.255  0.00  0.00    +0.000 NA
ATOM     12  O   UNL     1       9.657  -4.193  24.671  0.00  0.00    +0.000 OA
ENDBRANCH   1  11
BRANCH   3  13
ATOM     13  C   UNL     1       5.573  -5.002  28.940  0.00  0.00    +0.000 C 
ATOM     14  O   UNL     1       5.945  -5.236  30.250  0.00  0.00    +0.000 OA
ENDBRANCH   3  13
TORSDOF 2
ENDMDL
MODEL 4
REMARK VINA RESULT:      -5.4      3.375      4.797
REMARK  Name = 
REMARK  2 active torsions:
REMARK  status: ('A' for Active; 'I' for Inactive)
REMARK    1  A    between atoms: N_4  and  C_5
REMARK    2  A    between atoms: C_8  and  C_9
REMARK                            x       y       z     vdW  Elec       q    Type
REMARK                         _______ _______ _______ _____ _____    ______ ____
ROOT
ATOM      1  C   UNL     1       9.654  -1.797  24.251  0.00  0.00    +0.000 C 
ATOM      2  O   UNL     1       9.894  -3.338  24.149  0.00  0.00    +0.000 OA
ATOM      3  C   UNL     1       8.642  -3.837  24.453  0.00  0.00    +0.000 C 
ATOM      4  N   UNL     1       8.632  -5.203  23.994  0.00  0.00    +0.000 NA
ATOM      5  O   UNL     1       7.976  -3.080  23.614  0.00  0.00    +0.000 OA
ATOM      6  C   UNL     1       7.719  -1.981  23.702  0.00  0.00    +0.000 C 
ATOM      7  C   UNL     1      10.216  -1.882  23.251  0.00  0.00    +0.000 C 
ENDROOT
BRANCH   1  11
ATOM      8  C   UNL     1       8.535  -0.308  20.807  0.00  0.00    +0.000 C 
ATOM      9  N   UNL     1       9.598   0.460  21.453  0.00  0.00    +0.000 NA
ATOM     10  C   UNL     1       9.997   0.380  22.654  0.00  0.00    +0.000 C 
ATOM     11  N   UNL     1       9.071  -0.844  23.001  0.00  0.00    +0.000 NA
ATOM     12  O   UNL     1      10.270   1.242  23.398  0.00  0.00    +0.000 OA
ENDBRANCH   1  11
BRANCH   3  13
ATOM     13  C   UNL     1       8.541  -3.697  25.898  0.00  0.00    +0.000 C 
ATOM     14  O   UNL     1       9.289  -4.592  26.638  0.00  0.00    +0.000 OA
ENDBRANCH   3  13
TORSDOF 2
ENDMDL
MODEL 5
REMARK VINA RESULT:      -5.4      1.530      2.221
REMARK  Name = 
REMARK  2 active torsions:
REMARK  status: ('A' for Active; 'I' for Inactive)
REMARK    1  A    between atoms: N_4  and  C_5
REMARK    2  A    between atoms: C_8  and  C_9
REMARK                            x       y       z     vdW  Elec       q    Type
REMARK                         _______ _______ _______ _____ _____    ______ ____
ROOT
ATOM      1  C   UNL     1       8.412   1.344  21.563  0.00  0.00    +0.000 C 
ATOM      2  O   UNL     1       7.023   0.660  21.353  0.00  0.00    +0.000 OA
ATOM      3  C   UNL     1       7.350  -0.384  20.509  0.00  0.00    +0.000 C 
ATOM      4  N   UNL     1       6.250  -1.313  20.576  0.00  0.00    +0.000 NA
ATOM      5  O   UNL     1       8.358  -0.834  21.218  0.00  0.00    +0.000 OA
ATOM      6  C   UNL     1       9.398  -0.402  21.324  0.00  0.00    +0.000 C 
ATOM      7  C   UNL     1       8.020   1.274  22.641  0.00  0.00    +0.000 C 
ENDROOT
BRANCH   1  11
ATOM      8  C   UNL     1      10.270  -0.076  24.703  0.00  0.00    +0.000 C 
ATOM      9  N   UNL     1      10.399   1.372  24.559  0.00  0.00    +0.000 NA
ATOM     10  C   UNL     1      10.127   2.082  23.544  0.00  0.00    +0.000 C 
ATOM     11  N   UNL     1       9.532   0.880  22.721  0.00  0.00    +0.000 NA
ATOM     12  O   UNL     1      10.734   2.971  23.083  0.00  0.00    +0.000 OA
ENDBRANCH   1  11
BRANCH   3  13
ATOM     13  C   UNL     1       7.516   0.245  19.208  0.00  0.00    +0.000 C 
ATOM     14  O   UNL     1       6.810  -0.332  18.171  0.00  0.00    +0.000 OA
ENDBRANCH   3  13
TORSDOF 2
ENDMDL
MODEL 6
REMARK VINA RESULT:      -5.3      2.047      2.618
REMARK  Name = 
REMARK  2 active torsions:
REMARK  status: ('A' for Active; 'I' for Inactive)
REMARK    1  A    between atoms: N_4  and  C_5
REMARK    2  A    between atoms: C_8  and  C_9
REMARK                            x       y       z     vdW  Elec       q    Type
REMARK                         _______ _______ _______ _____ _____    ______ ____
ROOT
ATOM      1  C   UNL     1       6.947  -0.525  21.809  0.00  0.00    +0.000 C 
ATOM      2  O   UNL     1       6.692  -0.786  20.290  0.00  0.00    +0.000 OA
ATOM      3  C   UNL     1       7.194   0.367  19.719  0.00  0.00    +0.000 C 
ATOM      4  N   UNL     1       7.391   0.071  18.322  0.00  0.00    +0.000 NA
ATOM      5  O   UNL     1       8.346   0.350  20.345  0.00  0.00    +0.000 OA
ATOM      6  C   UNL     1       8.571   0.611  21.423  0.00  0.00    +0.000 C 
ATOM      7  C   UNL     1       7.345  -1.596  21.685  0.00  0.00    +0.000 C 
ENDROOT
BRANCH   1  11
ATOM      8  C   UNL     1      10.544  -1.687  22.831  0.00  0.00    +0.000 C 
ATOM      9  N   UNL     1       9.484  -2.347  23.590  0.00  0.00    +0.000 NA
ATOM     10  C   UNL     1       8.260  -2.021  23.666  0.00  0.00    +0.000 C 
ATOM     11  N   UNL     1       8.384  -0.868  22.601  0.00  0.00    +0.000 NA
ATOM     12  O   UNL     1       7.564  -1.989  24.606  0.00  0.00    +0.000 OA
ENDBRANCH   1  11
BRANCH   3  13
ATOM     13  C   UNL     1       6.169   1.369  19.974  0.00  0.00    +0.000 C 
ATOM     14  O   UNL     1       5.132   1.408  19.062  0.00  0.00    +0.000 OA
ENDBRANCH   3  13
TORSDOF 2
ENDMDL
MODEL 7
REMARK VINA RESULT:      -5.2      4.329      4.990
REMARK  Name = 
REMARK  2 active torsions:
REMARK  status: ('A' for Active; 'I' for Inactive)
REMARK    1  A    between atoms: N_4  and  C_5
REMARK    2  A    between atoms: C_8  and  C_9
REMARK                            x       y       z     vdW  Elec       q    Type
REMARK                         _______ _______ _______ _____ _____    ______ ____
ROOT
ATOM      1  C   UNL     1       7.611  -3.631  22.298  0.00  0.00    +0.000 C 
ATOM      2  O   UNL     1       6.079  -3.751  22.012  0.00  0.00    +0.000 OA
ATOM      3  C   UNL     1       5.813  -5.037  22.443  0.00  0.00    +0.000 C 
ATOM      4  N   UNL     1       4.384  -5.115  22.614  0.00  0.00    +0.000 NA
ATOM      5  O   UNL     1       6.397  -4.922  23.612  0.00  0.00    +0.000 OA
ATOM      6  C   UNL     1       7.502  -4.913  23.854  0.00  0.00    +0.000 C 
ATOM      7  C   UNL     1       7.212  -2.649  22.742  0.00  0.00    +0.000 C 
ENDROOT
BRANCH   1  11
ATOM      8  C   UNL     1       8.365  -2.052  25.800  0.00  0.00    +0.000 C 
ATOM      9  N   UNL     1       9.349  -1.696  24.779  0.00  0.00    +0.000 NA
ATOM     10  C   UNL     1       9.518  -2.228  23.640  0.00  0.00    +0.000 C 
ATOM     11  N   UNL     1       8.267  -3.175  23.771  0.00  0.00    +0.000 NA
ATOM     12  O   UNL     1      10.517  -2.513  23.101  0.00  0.00    +0.000 OA
ENDBRANCH   1  11
BRANCH   3  13
ATOM     13  C   UNL     1       6.331  -5.885  21.380  0.00  0.00    +0.000 C 
ATOM     14  O   UNL     1       5.913  -5.564  20.103  0.00  0.00    +0.000 OA
ENDBRANCH   3  13
TORSDOF 2
ENDMDL
MODEL 8
REMARK VINA RESULT:      -5.2      2.913      3.620
REMARK  Name = 
REMARK  2 active torsions:
REMARK  status: ('A' for Active; 'I' for Inactive)
REMARK    1  A    between atoms: N_4  and  C_5
REMARK    2  A    between atoms: C_8  and  C_9
REMARK                            x       y       z     vdW  Elec       q    Type
REMARK                         _______ _______ _______ _____ _____    ______ ____
ROOT
ATOM      1  C   UNL     1       9.115  -2.012  22.409  0.00  0.00    +0.000 C 
ATOM      2  O   UNL     1      10.022  -0.793  22.041  0.00  0.00    +0.000 OA
ATOM      3  C   UNL     1       9.083   0.190  21.795  0.00  0.00    +0.000 C 
ATOM      4  N   UNL     1       9.791   1.445  21.851  0.00  0.00    +0.000 NA
ATOM      5  O   UNL     1       8.396   0.015  22.898  0.00  0.00    +0.000 OA
ATOM      6  C   UNL     1       7.672  -0.815  23.158  0.00  0.00    +0.000 C 
ATOM      7  C   UNL     1       9.895  -2.037  23.253  0.00  0.00    +0.000 C 
ENDROOT
BRANCH   1  11
ATOM      8  C   UNL     1       8.316  -2.051  26.241  0.00  0.00    +0.000 C 
ATOM      9  N   UNL     1       8.882  -3.307  25.754  0.00  0.00    +0.000 NA
ATOM     10  C   UNL     1       9.017  -3.687  24.551  0.00  0.00    +0.000 C 
ATOM     11  N   UNL     1       8.521  -2.322  23.945  0.00  0.00    +0.000 NA
ATOM     12  O   UNL     1       8.809  -4.739  24.085  0.00  0.00    +0.000 OA
ENDBRANCH   1  11
BRANCH   3  13
ATOM     13  C   UNL     1       8.560  -0.136  20.476  0.00  0.00    +0.000 C 
ATOM     14  O   UNL     1       7.593   0.721  19.988  0.00  0.00    +0.000 OA
ENDBRANCH   3  13
TORSDOF 2
ENDMDL
MODEL 9
REMARK VINA RESULT:      -5.2      3.539      4.713
REMARK  Name = 
REMARK  2 active torsions:
REMARK  status: ('A' for Active; 'I' for Inactive)
REMARK    1  A    between atoms: N_4  and  C_5
REMARK    2  A    between atoms: C_8  and  C_9
REMARK                            x       y       z     vdW  Elec       q    Type
REMARK                         _______ _______ _______ _____ _____    ______ ____
ROOT
ATOM      1  C   UNL     1       8.266  -1.906  24.773  0.00  0.00    +0.000 C 
ATOM      2  O   UNL     1       8.743  -3.161  25.573  0.00  0.00    +0.000 OA
ATOM      3  C   UNL     1       9.200  -3.982  24.560  0.00  0.00    +0.000 C 
ATOM      4  N   UNL     1      10.029  -4.976  25.193  0.00  0.00    +0.000 NA
ATOM      5  O   UNL     1       9.951  -3.083  23.971  0.00  0.00    +0.000 OA
ATOM      6  C   UNL     1       9.636  -2.212  23.321  0.00  0.00    +0.000 C 
ATOM      7  C   UNL     1       8.884  -1.426  25.615  0.00  0.00    +0.000 C 
ENDROOT
BRANCH   1  11
ATOM      8  C   UNL     1      11.051   0.832  24.494  0.00  0.00    +0.000 C 
ATOM      9  N   UNL     1       9.704   1.385  24.615  0.00  0.00    +0.000 NA
ATOM     10  C   UNL     1       8.597   0.780  24.482  0.00  0.00    +0.000 C 
ATOM     11  N   UNL     1       9.262  -0.637  24.318  0.00  0.00    +0.000 NA
ATOM     12  O   UNL     1       7.629   1.131  23.926  0.00  0.00    +0.000 OA
ENDBRANCH   1  11
BRANCH   3  13
ATOM     13  C   UNL     1       7.987  -4.517  23.959  0.00  0.00    +0.000 C 
ATOM     14  O   UNL     1       8.164  -5.605  23.126  0.00  0.00    +0.000 OA
ENDBRANCH   3  13
TORSDOF 2
ENDMDL
