MODEL 1
REMARK VINA RESULT:      -6.4      0.000      0.000
REMARK  Name = 
REMARK  5 active torsions:
REMARK  status: ('A' for Active; 'I' for Inactive)
REMARK    1  A    between atoms: C_2  and  N_3
REMARK    2  A    between atoms: N_7  and  C_8
REMARK    3  A    between atoms: C_9  and  C_10
REMARK    4  A    between atoms: C_10  and  S_11
REMARK    5  A    between atoms: C_21  and  C_22
REMARK                            x       y       z     vdW  Elec       q    Type
REMARK                         _______ _______ _______ _____ _____    ______ ____
ROOT
ATOM      1  C   UNL     1       8.837  -0.567  23.201  0.00  0.00    +0.000 C 
ATOM      2  C   UNL     1       7.734  -0.210  22.348  0.00  0.00    +0.000 C 
ATOM      3  C   UNL     1       6.560   0.494  22.942  0.00  0.00    +0.000 C 
ATOM      4  C   UNL     1       7.170   1.687  23.800  0.00  0.00    +0.000 C 
ATOM      5 CL   UNL     1       7.219   3.069  22.634  0.00  0.00    +0.000 Cl
ATOM      6  C   UNL     1       8.278   1.459  24.556  0.00  0.00    +0.000 C 
ATOM      7  F   UNL     1       8.105   1.712  25.959  0.00  0.00    +0.000 F 
ATOM      8  C   UNL     1       9.062   0.114  24.491  0.00  0.00    +0.000 C 
ENDROOT
BRANCH   1  13
ATOM      9  N   UNL     1       6.898  -2.818  24.200  0.00  0.00    +0.000 NA
ATOM     10  C   UNL     1       8.022  -3.070  25.053  0.00  0.00    +0.000 C 
ATOM     11  C   UNL     1       7.728  -2.565  26.459  0.00  0.00    +0.000 C 
ATOM     12  C   UNL     1       9.276  -2.449  24.517  0.00  0.00    +0.000 C 
ATOM     13  N   UNL     1       9.186  -1.932  23.233  0.00  0.00    +0.000 NA
ATOM     14  C   UNL     1       8.444  -2.694  22.327  0.00  0.00    +0.000 C 
ATOM     15  C   UNL     1       7.208  -3.328  22.896  0.00  0.00    +0.000 C 
BRANCH   9  17
ATOM     16  C   UNL     1       5.952  -5.044  24.306  0.00  0.00    +0.000 C 
ATOM     17  C   UNL     1       5.784  -3.588  24.711  0.00  0.00    +0.000 C 
ATOM     18  O   UNL     1       4.591  -3.118  24.137  0.00  0.00    +0.000 OA
ENDBRANCH   9  17
ENDBRANCH   1  13
BRANCH   2  19
ATOM     19  C   UNL     1       8.131   0.366  21.010  0.00  0.00    +0.000 C 
ATOM     20  O   UNL     1       8.468   1.717  21.191  0.00  0.00    +0.000 OA
BRANCH  19  21
ATOM     21  S   UNL     1       6.806   0.229  19.829  0.00  0.00    +0.000 S 
ATOM     22  O   UNL     1       6.163  -1.040  20.053  0.00  0.00    +0.000 OA
ATOM     23  O   UNL     1       5.967   1.386  19.984  0.00  0.00    +0.000 OA
ATOM     24  N   UNL     1       7.432   0.235  18.307  0.00  0.00    +0.000 NA
ENDBRANCH  19  21
ENDBRANCH   2  19
BRANCH   8  25
ATOM     25  C   UNL     1      10.478   0.463  24.683  0.00  0.00    +0.000 C 
ATOM     26  N   UNL     1      11.603   0.752  24.779  0.00  0.00    +0.000 NA
ENDBRANCH   8  25
TORSDOF 5
ENDMDL
MODEL 2
REMARK VINA RESULT:      -6.3      4.165      6.932
REMARK  Name = 
REMARK  5 active torsions:
REMARK  status: ('A' for Active; 'I' for Inactive)
REMARK    1  A    between atoms: C_2  and  N_3
REMARK    2  A    between atoms: N_7  and  C_8
REMARK    3  A    between atoms: C_9  and  C_10
REMARK    4  A    between atoms: C_10  and  S_11
REMARK    5  A    between atoms: C_21  and  C_22
REMARK                            x       y       z     vdW  Elec       q    Type
REMARK                         _______ _______ _______ _____ _____    ______ ____
ROOT
ATOM      1  C   UNL     1       6.835  -4.476  24.946  0.00  0.00    +0.000 C 
ATOM      2  C   UNL     1       5.803  -4.284  25.931  0.00  0.00    +0.000 C 
ATOM      3  C   UNL     1       4.701  -3.320  25.642  0.00  0.00    +0.000 C 
ATOM      4  C   UNL     1       4.186  -3.687  24.182  0.00  0.00    +0.000 C 
ATOM      5 CL   UNL     1       2.862  -4.882  24.485  0.00  0.00    +0.000 Cl
ATOM      6  C   UNL     1       5.097  -3.985  23.216  0.00  0.00    +0.000 C 
ATOM      7  F   UNL     1       5.042  -3.132  22.062  0.00  0.00    +0.000 F 
ATOM      8  C   UNL     1       6.617  -4.130  23.528  0.00  0.00    +0.000 C 
ENDROOT
BRANCH   1  13
ATOM      9  N   UNL     1       8.195  -1.654  24.851  0.00  0.00    +0.000 NA
ATOM     10  C   UNL     1       9.151  -2.409  24.096  0.00  0.00    +0.000 C 
ATOM     11  C   UNL     1       9.007  -2.093  22.614  0.00  0.00    +0.000 C 
ATOM     12  C   UNL     1       9.014  -3.881  24.340  0.00  0.00    +0.000 C 
ATOM     13  N   UNL     1       8.157  -4.238  25.372  0.00  0.00    +0.000 NA
ATOM     14  C   UNL     1       8.214  -3.431  26.510  0.00  0.00    +0.000 C 
ATOM     15  C   UNL     1       8.381  -1.964  26.238  0.00  0.00    +0.000 C 
BRANCH   9  17
ATOM     16  C   UNL     1       9.850   0.046  25.336  0.00  0.00    +0.000 C 
ATOM     17  C   UNL     1       8.512  -0.252  24.675  0.00  0.00    +0.000 C 
ATOM     18  O   UNL     1       7.535   0.530  25.312  0.00  0.00    +0.000 OA
ENDBRANCH   9  17
ENDBRANCH   1  13
BRANCH   2  19
ATOM     19  C   UNL     1       5.301  -5.552  26.576  0.00  0.00    +0.000 C 
ATOM     20  O   UNL     1       3.927  -5.409  26.828  0.00  0.00    +0.000 OA
BRANCH  19  21
ATOM     21  S   UNL     1       6.160  -5.887  28.099  0.00  0.00    +0.000 S 
ATOM     22  O   UNL     1       7.535  -6.154  27.765  0.00  0.00    +0.000 OA
ATOM     23  O   UNL     1       5.940  -4.768  28.974  0.00  0.00    +0.000 OA
ATOM     24  N   UNL     1       5.522  -7.234  28.798  0.00  0.00    +0.000 NA
ENDBRANCH  19  21
ENDBRANCH   2  19
BRANCH   8  25
ATOM     25  C   UNL     1       7.114  -5.183  22.629  0.00  0.00    +0.000 C 
ATOM     26  N   UNL     1       7.455  -6.023  21.895  0.00  0.00    +0.000 NA
ENDBRANCH   8  25
TORSDOF 5
ENDMDL
MODEL 3
REMARK VINA RESULT:      -6.3      4.317      6.204
REMARK  Name = 
REMARK  5 active torsions:
REMARK  status: ('A' for Active; 'I' for Inactive)
REMARK    1  A    between atoms: C_2  and  N_3
REMARK    2  A    between atoms: N_7  and  C_8
REMARK    3  A    between atoms: C_9  and  C_10
REMARK    4  A    between atoms: C_10  and  S_11
REMARK    5  A    between atoms: C_21  and  C_22
REMARK                            x       y       z     vdW  Elec       q    Type
REMARK                         _______ _______ _______ _____ _____    ______ ____
ROOT
ATOM      1  C   UNL     1       6.550  -4.331  24.849  0.00  0.00    +0.000 C 
ATOM      2  C   UNL     1       5.346  -4.561  24.095  0.00  0.00    +0.000 C 
ATOM      3  C   UNL     1       5.107  -3.763  22.856  0.00  0.00    +0.000 C 
ATOM      4  C   UNL     1       6.459  -3.857  22.023  0.00  0.00    +0.000 C 
ATOM      5 CL   UNL     1       6.208  -5.301  20.963  0.00  0.00    +0.000 Cl
ATOM      6  C   UNL     1       7.647  -3.753  22.678  0.00  0.00    +0.000 C 
ATOM      7  F   UNL     1       8.482  -2.673  22.231  0.00  0.00    +0.000 F 
ATOM      8  C   UNL     1       7.734  -3.701  24.233  0.00  0.00    +0.000 C 
ENDROOT
BRANCH   1  13
ATOM      9  N   UNL     1       6.137  -1.377  25.814  0.00  0.00    +0.000 NA
ATOM     10  C   UNL     1       7.270  -1.738  26.615  0.00  0.00    +0.000 C 
ATOM     11  C   UNL     1       8.529  -1.094  26.051  0.00  0.00    +0.000 C 
ATOM     12  C   UNL     1       7.432  -3.225  26.712  0.00  0.00    +0.000 C 
ATOM     13  N   UNL     1       6.381  -3.974  26.202  0.00  0.00    +0.000 NA
ATOM     14  C   UNL     1       5.102  -3.479  26.468  0.00  0.00    +0.000 C 
ATOM     15  C   UNL     1       4.974  -1.984  26.393  0.00  0.00    +0.000 C 
BRANCH   9  17
ATOM     16  C   UNL     1       5.298   0.391  27.240  0.00  0.00    +0.000 C 
ATOM     17  C   UNL     1       5.972   0.057  25.917  0.00  0.00    +0.000 C 
ATOM     18  O   UNL     1       5.133   0.505  24.884  0.00  0.00    +0.000 OA
ENDBRANCH   9  17
ENDBRANCH   1  13
BRANCH   2  19
ATOM     19  C   UNL     1       4.977  -6.014  23.921  0.00  0.00    +0.000 C 
ATOM     20  O   UNL     1       4.138  -6.128  22.801  0.00  0.00    +0.000 OA
BRANCH  19  21
ATOM     21  S   UNL     1       4.146  -6.647  25.362  0.00  0.00    +0.000 S 
ATOM     22  O   UNL     1       5.160  -6.981  26.329  0.00  0.00    +0.000 OA
ATOM     23  O   UNL     1       3.192  -5.657  25.781  0.00  0.00    +0.000 OA
ATOM     24  N   UNL     1       3.335  -8.021  24.962  0.00  0.00    +0.000 NA
ENDBRANCH  19  21
ENDBRANCH   2  19
BRANCH   8  25
ATOM     25  C   UNL     1       8.974  -4.407  24.591  0.00  0.00    +0.000 C 
ATOM     26  N   UNL     1       9.983  -4.915  24.880  0.00  0.00    +0.000 NA
ENDBRANCH   8  25
TORSDOF 5
ENDMDL
MODEL 4
REMARK VINA RESULT:      -6.1      3.623      5.761
REMARK  Name = 
REMARK  5 active torsions:
REMARK  status: ('A' for Active; 'I' for Inactive)
REMARK    1  A    between atoms: C_2  and  N_3
REMARK    2  A    between atoms: N_7  and  C_8
REMARK    3  A    between atoms: C_9  and  C_10
REMARK    4  A    between atoms: C_10  and  S_11
REMARK    5  A    between atoms: C_21  and  C_22
REMARK                            x       y       z     vdW  Elec       q    Type
REMARK                         _______ _______ _______ _____ _____    ______ ____
ROOT
ATOM      1  C   UNL     1       7.950  -2.047  24.372  0.00  0.00    +0.000 C 
ATOM      2  C   UNL     1       6.787  -2.848  24.647  0.00  0.00    +0.000 C 
ATOM      3  C   UNL     1       5.581  -2.691  23.781  0.00  0.00    +0.000 C 
ATOM      4  C   UNL     1       6.119  -2.765  22.285  0.00  0.00    +0.000 C 
ATOM      5 CL   UNL     1       6.001  -4.522  21.876  0.00  0.00    +0.000 Cl
ATOM      6  C   UNL     1       7.273  -2.118  21.966  0.00  0.00    +0.000 C 
ATOM      7  F   UNL     1       7.136  -1.131  20.931  0.00  0.00    +0.000 F 
ATOM      8  C   UNL     1       8.167  -1.437  23.045  0.00  0.00    +0.000 C 
ENDROOT
BRANCH   1  13
ATOM      9  N   UNL     1       6.716   0.745  25.084  0.00  0.00    +0.000 NA
ATOM     10  C   UNL     1       8.088   1.123  24.911  0.00  0.00    +0.000 C 
ATOM     11  C   UNL     1       8.263   1.841  23.580  0.00  0.00    +0.000 C 
ATOM     12  C   UNL     1       9.006  -0.058  25.003  0.00  0.00    +0.000 C 
ATOM     13  N   UNL     1       8.417  -1.240  25.429  0.00  0.00    +0.000 NA
ATOM     14  C   UNL     1       7.480  -1.112  26.457  0.00  0.00    +0.000 C 
ATOM     15  C   UNL     1       6.592   0.095  26.356  0.00  0.00    +0.000 C 
BRANCH   9  17
ATOM     16  C   UNL     1       5.933   2.489  26.570  0.00  0.00    +0.000 C 
ATOM     17  C   UNL     1       5.934   1.962  25.143  0.00  0.00    +0.000 C 
ATOM     18  O   UNL     1       4.605   1.679  24.788  0.00  0.00    +0.000 OA
ENDBRANCH   9  17
ENDBRANCH   1  13
BRANCH   2  19
ATOM     19  C   UNL     1       7.076  -4.293  24.968  0.00  0.00    +0.000 C 
ATOM     20  O   UNL     1       5.977  -5.067  24.564  0.00  0.00    +0.000 OA
BRANCH  19  21
ATOM     21  S   UNL     1       7.366  -4.523  26.709  0.00  0.00    +0.000 S 
ATOM     22  O   UNL     1       8.758  -4.242  26.952  0.00  0.00    +0.000 OA
ATOM     23  O   UNL     1       6.433  -3.690  27.417  0.00  0.00    +0.000 OA
ATOM     24  N   UNL     1       7.074  -6.093  27.107  0.00  0.00    +0.000 NA
ENDBRANCH  19  21
ENDBRANCH   2  19
BRANCH   8  25
ATOM     25  C   UNL     1       9.555  -1.611  22.587  0.00  0.00    +0.000 C 
ATOM     26  N   UNL     1      10.669  -1.704  22.257  0.00  0.00    +0.000 NA
ENDBRANCH   8  25
TORSDOF 5
ENDMDL
MODEL 5
REMARK VINA RESULT:      -6.1      3.188      4.494
REMARK  Name = 
REMARK  5 active torsions:
REMARK  status: ('A' for Active; 'I' for Inactive)
REMARK    1  A    between atoms: C_2  and  N_3
REMARK    2  A    between atoms: N_7  and  C_8
REMARK    3  A    between atoms: C_9  and  C_10
REMARK    4  A    between atoms: C_10  and  S_11
REMARK    5  A    between atoms: C_21  and  C_22
REMARK                            x       y       z     vdW  Elec       q    Type
REMARK                         _______ _______ _______ _____ _____    ______ ____
ROOT
ATOM      1  C   UNL     1       7.412  -0.579  23.662  0.00  0.00    +0.000 C 
ATOM      2  C   UNL     1       8.217   0.242  24.529  0.00  0.00    +0.000 C 
ATOM      3  C   UNL     1       9.703   0.115  24.468  0.00  0.00    +0.000 C 
ATOM      4  C   UNL     1      10.073   0.191  22.922  0.00  0.00    +0.000 C 
ATOM      5 CL   UNL     1      10.360   1.955  22.639  0.00  0.00    +0.000 Cl
ATOM      6  C   UNL     1       9.298  -0.474  22.023  0.00  0.00    +0.000 C 
ATOM      7  F   UNL     1      10.001  -1.449  21.237  0.00  0.00    +0.000 F 
ATOM      8  C   UNL     1       7.972  -1.181  22.436  0.00  0.00    +0.000 C 
ENDROOT
BRANCH   1  13
ATOM      9  N   UNL     1       8.035  -3.486  24.656  0.00  0.00    +0.000 NA
ATOM     10  C   UNL     1       6.909  -3.755  23.810  0.00  0.00    +0.000 C 
ATOM     11  C   UNL     1       7.379  -4.387  22.508  0.00  0.00    +0.000 C 
ATOM     12  C   UNL     1       6.108  -2.517  23.541  0.00  0.00    +0.000 C 
ATOM     13  N   UNL     1       6.458  -1.404  24.292  0.00  0.00    +0.000 NA
ATOM     14  C   UNL     1       6.768  -1.653  25.631  0.00  0.00    +0.000 C 
ATOM     15  C   UNL     1       7.546  -2.914  25.876  0.00  0.00    +0.000 C 
BRANCH   9  17
ATOM     16  C   UNL     1       8.336  -5.096  26.439  0.00  0.00    +0.000 C 
ATOM     17  C   UNL     1       8.641  -4.758  24.988  0.00  0.00    +0.000 C 
ATOM     18  O   UNL     1      10.036  -4.657  24.855  0.00  0.00    +0.000 OA
ENDBRANCH   9  17
ENDBRANCH   1  13
BRANCH   2  19
ATOM     19  C   UNL     1       7.768   1.679  24.633  0.00  0.00    +0.000 C 
ATOM     20  O   UNL     1       8.894   2.478  24.887  0.00  0.00    +0.000 OA
BRANCH  19  21
ATOM     21  S   UNL     1       6.575   1.890  25.937  0.00  0.00    +0.000 S 
ATOM     22  O   UNL     1       5.292   1.502  25.409  0.00  0.00    +0.000 OA
ATOM     23  O   UNL     1       7.034   1.135  27.070  0.00  0.00    +0.000 OA
ATOM     24  N   UNL     1       6.505   3.479  26.358  0.00  0.00    +0.000 NA
ENDBRANCH  19  21
ENDBRANCH   2  19
BRANCH   8  25
ATOM     25  C   UNL     1       7.061  -1.030  21.291  0.00  0.00    +0.000 C 
ATOM     26  N   UNL     1       6.384  -0.917  20.349  0.00  0.00    +0.000 NA
ENDBRANCH   8  25
TORSDOF 5
ENDMDL
MODEL 6
REMARK VINA RESULT:      -6.1      3.726      6.368
REMARK  Name = 
REMARK  5 active torsions:
REMARK  status: ('A' for Active; 'I' for Inactive)
REMARK    1  A    between atoms: C_2  and  N_3
REMARK    2  A    between atoms: N_7  and  C_8
REMARK    3  A    between atoms: C_9  and  C_10
REMARK    4  A    between atoms: C_10  and  S_11
REMARK    5  A    between atoms: C_21  and  C_22
REMARK                            x       y       z     vdW  Elec       q    Type
REMARK                         _______ _______ _______ _____ _____    ______ ____
ROOT
ATOM      1  C   UNL     1       6.987  -3.401  24.762  0.00  0.00    +0.000 C 
ATOM      2  C   UNL     1       5.552  -3.435  24.651  0.00  0.00    +0.000 C 
ATOM      3  C   UNL     1       4.939  -3.853  23.356  0.00  0.00    +0.000 C 
ATOM      4  C   UNL     1       5.684  -5.198  22.947  0.00  0.00    +0.000 C 
ATOM      5 CL   UNL     1       4.658  -6.494  23.682  0.00  0.00    +0.000 Cl
ATOM      6  C   UNL     1       7.031  -5.285  23.118  0.00  0.00    +0.000 C 
ATOM      7  F   UNL     1       7.769  -5.552  21.916  0.00  0.00    +0.000 F 
ATOM      8  C   UNL     1       7.847  -4.174  23.844  0.00  0.00    +0.000 C 
ENDROOT
BRANCH   1  13
ATOM      9  N   UNL     1       7.377  -1.007  22.776  0.00  0.00    +0.000 NA
ATOM     10  C   UNL     1       8.723  -1.153  23.248  0.00  0.00    +0.000 C 
ATOM     11  C   UNL     1       9.576  -1.826  22.182  0.00  0.00    +0.000 C 
ATOM     12  C   UNL     1       8.781  -1.917  24.536  0.00  0.00    +0.000 C 
ATOM     13  N   UNL     1       7.555  -2.167  25.137  0.00  0.00    +0.000 NA
ATOM     14  C   UNL     1       6.634  -1.118  25.089  0.00  0.00    +0.000 C 
ATOM     15  C   UNL     1       6.617  -0.350  23.798  0.00  0.00    +0.000 C 
BRANCH   9  17
ATOM     16  C   UNL     1       6.925   1.256  22.044  0.00  0.00    +0.000 C 
ATOM     17  C   UNL     1       7.413  -0.125  21.629  0.00  0.00    +0.000 C 
ATOM     18  O   UNL     1       6.540  -0.609  20.641  0.00  0.00    +0.000 OA
ENDBRANCH   9  17
ENDBRANCH   1  13
BRANCH   2  19
ATOM     19  C   UNL     1       4.840  -4.029  25.841  0.00  0.00    +0.000 C 
ATOM     20  O   UNL     1       4.148  -3.002  26.502  0.00  0.00    +0.000 OA
BRANCH  19  21
ATOM     21  S   UNL     1       5.987  -4.800  26.962  0.00  0.00    +0.000 S 
ATOM     22  O   UNL     1       6.424  -6.028  26.350  0.00  0.00    +0.000 OA
ATOM     23  O   UNL     1       7.024  -3.845  27.245  0.00  0.00    +0.000 OA
ATOM     24  N   UNL     1       5.212  -5.165  28.367  0.00  0.00    +0.000 NA
ENDBRANCH  19  21
ENDBRANCH   2  19
BRANCH   8  25
ATOM     25  C   UNL     1       8.924  -4.871  24.566  0.00  0.00    +0.000 C 
ATOM     26  N   UNL     1       9.786  -5.374  25.168  0.00  0.00    +0.000 NA
ENDBRANCH   8  25
TORSDOF 5
ENDMDL
MODEL 7
REMARK VINA RESULT:      -6.0      2.380      3.290
REMARK  Name = 
REMARK  5 active torsions:
REMARK  status: ('A' for Active; 'I' for Inactive)
REMARK    1  A    between atoms: C_2  and  N_3
REMARK    2  A    between atoms: N_7  and  C_8
REMARK    3  A    between atoms: C_9  and  C_10
REMARK    4  A    between atoms: C_10  and  S_11
REMARK    5  A    between atoms: C_21  and  C_22
REMARK                            x       y       z     vdW  Elec       q    Type
REMARK                         _______ _______ _______ _____ _____    ______ ____
ROOT
ATOM      1  C   UNL     1       8.046  -3.294  23.378  0.00  0.00    +0.000 C 
ATOM      2  C   UNL     1       7.795  -1.968  22.878  0.00  0.00    +0.000 C 
ATOM      3  C   UNL     1       7.354  -0.908  23.832  0.00  0.00    +0.000 C 
ATOM      4  C   UNL     1       8.366  -0.992  25.057  0.00  0.00    +0.000 C 
ATOM      5 CL   UNL     1       9.679   0.168  24.606  0.00  0.00    +0.000 Cl
ATOM      6  C   UNL     1       8.736  -2.214  25.526  0.00  0.00    +0.000 C 
ATOM      7  F   UNL     1       8.426  -2.442  26.909  0.00  0.00    +0.000 F 
ATOM      8  C   UNL     1       8.328  -3.535  24.807  0.00  0.00    +0.000 C 
ENDROOT
BRANCH   1  13
ATOM      9  N   UNL     1       5.123  -4.046  24.227  0.00  0.00    +0.000 NA
ATOM     10  C   UNL     1       5.759  -5.320  24.390  0.00  0.00    +0.000 C 
ATOM     11  C   UNL     1       5.976  -5.605  25.870  0.00  0.00    +0.000 C 
ATOM     12  C   UNL     1       7.055  -5.396  23.640  0.00  0.00    +0.000 C 
ATOM     13  N   UNL     1       7.310  -4.336  22.781  0.00  0.00    +0.000 NA
ATOM     14  C   UNL     1       6.210  -3.868  22.058  0.00  0.00    +0.000 C 
ATOM     15  C   UNL     1       4.919  -3.830  22.824  0.00  0.00    +0.000 C 
BRANCH   9  17
ATOM     16  C   UNL     1       2.842  -4.775  23.873  0.00  0.00    +0.000 C 
ATOM     17  C   UNL     1       3.818  -4.130  24.846  0.00  0.00    +0.000 C 
ATOM     18  O   UNL     1       3.351  -2.836  25.126  0.00  0.00    +0.000 OA
ENDBRANCH   9  17
ENDBRANCH   1  13
BRANCH   2  19
ATOM     19  C   UNL     1       8.817  -1.461  21.890  0.00  0.00    +0.000 C 
ATOM     20  O   UNL     1      10.039  -1.297  22.562  0.00  0.00    +0.000 OA
BRANCH  19  21
ATOM     21  S   UNL     1       8.312   0.088  21.173  0.00  0.00    +0.000 S 
ATOM     22  O   UNL     1       8.307  -0.084  19.743  0.00  0.00    +0.000 OA
ATOM     23  O   UNL     1       7.049   0.444  21.760  0.00  0.00    +0.000 OA
ATOM     24  N   UNL     1       9.414   1.249  21.555  0.00  0.00    +0.000 NA
ENDBRANCH  19  21
ENDBRANCH   2  19
BRANCH   8  25
ATOM     25  C   UNL     1       9.457  -4.460  24.990  0.00  0.00    +0.000 C 
ATOM     26  N   UNL     1      10.349  -5.184  25.191  0.00  0.00    +0.000 NA
ENDBRANCH   8  25
TORSDOF 5
ENDMDL
MODEL 8
REMARK VINA RESULT:      -5.9      3.423      6.022
REMARK  Name = 
REMARK  5 active torsions:
REMARK  status: ('A' for Active; 'I' for Inactive)
REMARK    1  A    between atoms: C_2  and  N_3
REMARK    2  A    between atoms: N_7  and  C_8
REMARK    3  A    between atoms: C_9  and  C_10
REMARK    4  A    between atoms: C_10  and  S_11
REMARK    5  A    between atoms: C_21  and  C_22
REMARK                            x       y       z     vdW  Elec       q    Type
REMARK                         _______ _______ _______ _____ _____    ______ ____
ROOT
ATOM      1  C   UNL     1       7.989  -2.824  23.710  0.00  0.00    +0.000 C 
ATOM      2  C   UNL     1       7.459  -2.164  24.874  0.00  0.00    +0.000 C 
ATOM      3  C   UNL     1       6.161  -1.435  24.761  0.00  0.00    +0.000 C 
ATOM      4  C   UNL     1       5.166  -2.447  24.041  0.00  0.00    +0.000 C 
ATOM      5 CL   UNL     1       4.383  -3.326  25.414  0.00  0.00    +0.000 Cl
ATOM      6  C   UNL     1       5.621  -3.188  22.994  0.00  0.00    +0.000 C 
ATOM      7  F   UNL     1       4.901  -2.992  21.767  0.00  0.00    +0.000 F 
ATOM      8  C   UNL     1       7.122  -3.196  22.575  0.00  0.00    +0.000 C 
ENDROOT
BRANCH   1  13
ATOM      9  N   UNL     1       8.738   0.112  22.909  0.00  0.00    +0.000 NA
ATOM     10  C   UNL     1       9.167  -0.578  21.729  0.00  0.00    +0.000 C 
ATOM     11  C   UNL     1       8.170  -0.345  20.602  0.00  0.00    +0.000 C 
ATOM     12  C   UNL     1       9.354  -2.044  21.979  0.00  0.00    +0.000 C 
ATOM     13  N   UNL     1       9.283  -2.437  23.308  0.00  0.00    +0.000 NA
ATOM     14  C   UNL     1       9.892  -1.577  24.224  0.00  0.00    +0.000 C 
ATOM     15  C   UNL     1       9.714  -0.114  23.935  0.00  0.00    +0.000 C 
BRANCH   9  17
ATOM     16  C   UNL     1      10.183   2.021  22.551  0.00  0.00    +0.000 C 
ATOM     17  C   UNL     1       8.745   1.529  22.611  0.00  0.00    +0.000 C 
ATOM     18  O   UNL     1       8.096   2.226  23.644  0.00  0.00    +0.000 OA
ENDBRANCH   9  17
ENDBRANCH   1  13
BRANCH   2  19
ATOM     19  C   UNL     1       7.560  -2.958  26.152  0.00  0.00    +0.000 C 
ATOM     20  O   UNL     1       8.590  -2.410  26.935  0.00  0.00    +0.000 OA
BRANCH  19  21
ATOM     21  S   UNL     1       7.903  -4.673  25.823  0.00  0.00    +0.000 S 
ATOM     22  O   UNL     1       6.771  -5.207  25.110  0.00  0.00    +0.000 OA
ATOM     23  O   UNL     1       9.160  -4.737  25.128  0.00  0.00    +0.000 OA
ATOM     24  N   UNL     1       8.050  -5.482  27.248  0.00  0.00    +0.000 NA
ENDBRANCH  19  21
ENDBRANCH   2  19
BRANCH   8  25
ATOM     25  C   UNL     1       7.401  -4.560  22.101  0.00  0.00    +0.000 C 
ATOM     26  N   UNL     1       7.566  -5.650  21.721  0.00  0.00    +0.000 NA
ENDBRANCH   8  25
TORSDOF 5
ENDMDL
MODEL 9
REMARK VINA RESULT:      -5.9      3.484      5.940
REMARK  Name = 
REMARK  5 active torsions:
REMARK  status: ('A' for Active; 'I' for Inactive)
REMARK    1  A    between atoms: C_2  and  N_3
REMARK    2  A    between atoms: N_7  and  C_8
REMARK    3  A    between atoms: C_9  and  C_10
REMARK    4  A    between atoms: C_10  and  S_11
REMARK    5  A    between atoms: C_21  and  C_22
REMARK                            x       y       z     vdW  Elec       q    Type
REMARK                         _______ _______ _______ _____ _____    ______ ____
ROOT
ATOM      1  C   UNL     1       6.738  -2.630  25.134  0.00  0.00    +0.000 C 
ATOM      2  C   UNL     1       5.386  -2.618  24.640  0.00  0.00    +0.000 C 
ATOM      3  C   UNL     1       5.072  -3.349  23.377  0.00  0.00    +0.000 C 
ATOM      4  C   UNL     1       5.721  -4.792  23.548  0.00  0.00    +0.000 C 
ATOM      5 CL   UNL     1       4.387  -5.775  24.273  0.00  0.00    +0.000 Cl
ATOM      6  C   UNL     1       6.958  -4.898  24.103  0.00  0.00    +0.000 C 
ATOM      7  F   UNL     1       7.937  -5.528  23.263  0.00  0.00    +0.000 F 
ATOM      8  C   UNL     1       7.697  -3.673  24.720  0.00  0.00    +0.000 C 
ENDROOT
BRANCH   1  13
ATOM      9  N   UNL     1       8.084  -0.995  22.823  0.00  0.00    +0.000 NA
ATOM     10  C   UNL     1       9.178  -1.056  23.746  0.00  0.00    +0.000 C 
ATOM     11  C   UNL     1      10.206  -2.071  23.264  0.00  0.00    +0.000 C 
ATOM     12  C   UNL     1       8.718  -1.386  25.133  0.00  0.00    +0.000 C 
ATOM     13  N   UNL     1       7.344  -1.372  25.326  0.00  0.00    +0.000 NA
ATOM     14  C   UNL     1       6.654  -0.343  24.680  0.00  0.00    +0.000 C 
ATOM     15  C   UNL     1       7.154  -0.014  23.302  0.00  0.00    +0.000 C 
BRANCH   9  17
ATOM     16  C   UNL     1       8.951   0.962  21.690  0.00  0.00    +0.000 C 
ATOM     17  C   UNL     1       8.606  -0.514  21.561  0.00  0.00    +0.000 C 
ATOM     18  O   UNL     1       7.618  -0.639  20.570  0.00  0.00    +0.000 OA
ENDBRANCH   9  17
ENDBRANCH   1  13
BRANCH   2  19
ATOM     19  C   UNL     1       4.326  -2.818  25.696  0.00  0.00    +0.000 C 
ATOM     20  O   UNL     1       3.102  -3.064  25.055  0.00  0.00    +0.000 OA
BRANCH  19  21
ATOM     21  S   UNL     1       4.180  -1.387  26.745  0.00  0.00    +0.000 S 
ATOM     22  O   UNL     1       5.258  -1.444  27.698  0.00  0.00    +0.000 OA
ATOM     23  O   UNL     1       4.163  -0.228  25.895  0.00  0.00    +0.000 OA
ATOM     24  N   UNL     1       2.755  -1.457  27.565  0.00  0.00    +0.000 NA
ENDBRANCH  19  21
ENDBRANCH   2  19
BRANCH   8  25
ATOM     25  C   UNL     1       8.459  -4.196  25.865  0.00  0.00    +0.000 C 
ATOM     26  N   UNL     1       9.101  -4.567  26.764  0.00  0.00    +0.000 NA
ENDBRANCH   8  25
TORSDOF 5
ENDMDL
