MODEL 1
REMARK VINA RESULT:      -7.2      0.000      0.000
REMARK  Name = 
REMARK  8 active torsions:
REMARK  status: ('A' for Active; 'I' for Inactive)
REMARK    1  A    between atoms: C_2  and  C_3
REMARK    2  A    between atoms: C_4  and  C_5
REMARK    3  A    between atoms: C_6  and  C_7
REMARK    4  A    between atoms: C_14  and  S_15
REMARK    5  A    between atoms: S_15  and  C_16
REMARK    6  A    between atoms: C_16  and  C_17
REMARK    7  A    between atoms: N_18  and  C_19
REMARK    8  A    between atoms: C_20  and  C_21
REMARK                            x       y       z     vdW  Elec       q    Type
REMARK                         _______ _______ _______ _____ _____    ______ ____
ROOT
ATOM      1  C   UNL     1       5.788  -5.729  26.367  0.00  0.00    +0.000 C 
ATOM      2  C   UNL     1       6.458  -5.052  25.074  0.00  0.00    +0.000 C 
ATOM      3  N   UNL     1       7.518  -4.464  25.131  0.00  0.00    +0.000 NA
ATOM      4  C   UNL     1       8.168  -3.813  26.026  0.00  0.00    +0.000 C 
ATOM      5  N   UNL     1       7.502  -3.908  27.055  0.00  0.00    +0.000 NA
ATOM      6  C   UNL     1       6.401  -4.690  27.396  0.00  0.00    +0.000 C 
ATOM      7  O   UNL     1       5.298  -3.862  27.735  0.00  0.00    +0.000 OA
ENDROOT
BRANCH   2   8
ATOM      8  C   UNL     1       5.368  -4.554  24.131  0.00  0.00    +0.000 C 
ATOM      9  C   UNL     1       6.279  -3.882  22.941  0.00  0.00    +0.000 C 
ATOM     10  C   UNL     1       7.042  -4.411  21.963  0.00  0.00    +0.000 C 
ATOM     11  C   UNL     1       6.967  -5.898  21.357  0.00  0.00    +0.000 C 
ATOM     12  C   UNL     1       6.170  -6.467  22.556  0.00  0.00    +0.000 C 
ATOM     13  C   UNL     1       5.064  -5.853  23.218  0.00  0.00    +0.000 C 
BRANCH   9  14
ATOM     14  C   UNL     1       5.542  -2.835  22.484  0.00  0.00    +0.000 C 
ATOM     15  N   UNL     1       6.037  -2.563  21.449  0.00  0.00    +0.000 NA
ENDBRANCH   9  14
ENDBRANCH   2   8
BRANCH   1  17
ATOM     16  N   UNL     1       3.197  -5.665  26.280  0.00  0.00    +0.000 NA
ATOM     17  C   UNL     1       4.377  -5.605  26.325  0.00  0.00    +0.000 C 
ENDBRANCH   1  17
BRANCH   4  18
ATOM     18  S   UNL     1       8.666  -2.216  25.585  0.00  0.00    +0.000 S 
BRANCH  18  19
ATOM     19  C   UNL     1       9.775  -2.690  24.247  0.00  0.00    +0.000 C 
BRANCH  19  20
ATOM     20  C   UNL     1       9.381  -1.856  23.003  0.00  0.00    +0.000 C 
ATOM     21  N   UNL     1       8.759  -0.710  23.273  0.00  0.00    +0.000 NA
ATOM     22  O   UNL     1      10.072  -1.974  21.998  0.00  0.00    +0.000 OA
BRANCH  21  23
ATOM     23  C   UNL     1       9.121   0.586  23.144  0.00  0.00    +0.000 C 
ATOM     24  C   UNL     1       8.652   1.393  22.013  0.00  0.00    +0.000 C 
ATOM     25  C   UNL     1       8.148   2.729  22.347  0.00  0.00    +0.000 C 
ATOM     26  N   UNL     1       8.592   3.360  23.320  0.00  0.00    +0.000 NA
ATOM     27  C   UNL     1       9.794   2.850  23.878  0.00  0.00    +0.000 C 
ATOM     28  C   UNL     1       9.627   1.383  24.297  0.00  0.00    +0.000 C 
BRANCH  24  29
ATOM     29  C   UNL     1       7.727   0.656  21.075  0.00  0.00    +0.000 C 
ATOM     30  F   UNL     1       8.461   0.100  20.039  0.00  0.00    +0.000 F 
ATOM     31  F   UNL     1       6.796   1.524  20.538  0.00  0.00    +0.000 F 
ENDBRANCH  24  29
ENDBRANCH  21  23
ENDBRANCH  19  20
ENDBRANCH  18  19
ENDBRANCH   4  18
TORSDOF 8
ENDMDL
MODEL 2
REMARK VINA RESULT:      -7.1      2.067      3.521
REMARK  Name = 
REMARK  8 active torsions:
REMARK  status: ('A' for Active; 'I' for Inactive)
REMARK    1  A    between atoms: C_2  and  C_3
REMARK    2  A    between atoms: C_4  and  C_5
REMARK    3  A    between atoms: C_6  and  C_7
REMARK    4  A    between atoms: C_14  and  S_15
REMARK    5  A    between atoms: S_15  and  C_16
REMARK    6  A    between atoms: C_16  and  C_17
REMARK    7  A    between atoms: N_18  and  C_19
REMARK    8  A    between atoms: C_20  and  C_21
REMARK                            x       y       z     vdW  Elec       q    Type
REMARK                         _______ _______ _______ _____ _____    ______ ____
ROOT
ATOM      1  C   UNL     1       5.165  -3.693  23.174  0.00  0.00    +0.000 C 
ATOM      2  C   UNL     1       6.060  -3.825  24.500  0.00  0.00    +0.000 C 
ATOM      3  N   UNL     1       6.543  -2.857  25.050  0.00  0.00    +0.000 NA
ATOM      4  C   UNL     1       6.932  -1.688  24.692  0.00  0.00    +0.000 C 
ATOM      5  N   UNL     1       6.660  -1.599  23.497  0.00  0.00    +0.000 NA
ATOM      6  C   UNL     1       5.903  -2.396  22.640  0.00  0.00    +0.000 C 
ATOM      7  O   UNL     1       6.713  -2.882  21.580  0.00  0.00    +0.000 OA
ENDROOT
BRANCH   2   8
ATOM      8  C   UNL     1       6.832  -5.140  24.471  0.00  0.00    +0.000 C 
ATOM      9  C   UNL     1       7.865  -4.915  25.727  0.00  0.00    +0.000 C 
ATOM     10  C   UNL     1       7.694  -4.912  27.065  0.00  0.00    +0.000 C 
ATOM     11  C   UNL     1       6.488  -5.572  27.900  0.00  0.00    +0.000 C 
ATOM     12  C   UNL     1       5.550  -5.680  26.673  0.00  0.00    +0.000 C 
ATOM     13  C   UNL     1       5.902  -6.120  25.361  0.00  0.00    +0.000 C 
BRANCH   9  14
ATOM     14  C   UNL     1       8.998  -5.578  25.373  0.00  0.00    +0.000 C 
ATOM     15  N   UNL     1       9.868  -4.935  25.842  0.00  0.00    +0.000 NA
ENDBRANCH   9  14
ENDBRANCH   2   8
BRANCH   1  17
ATOM     16  N   UNL     1       5.439  -5.667  21.514  0.00  0.00    +0.000 NA
ATOM     17  C   UNL     1       5.396  -4.785  22.300  0.00  0.00    +0.000 C 
ENDBRANCH   1  17
BRANCH   4  18
ATOM     18  S   UNL     1       8.545  -1.259  25.141  0.00  0.00    +0.000 S 
BRANCH  18  19
ATOM     19  C   UNL     1       9.371  -1.952  23.697  0.00  0.00    +0.000 C 
BRANCH  19  20
ATOM     20  C   UNL     1      10.034  -0.778  22.935  0.00  0.00    +0.000 C 
ATOM     21  N   UNL     1       9.291  -0.254  21.962  0.00  0.00    +0.000 NA
ATOM     22  O   UNL     1      10.844  -0.091  23.545  0.00  0.00    +0.000 OA
BRANCH  21  23
ATOM     23  C   UNL     1       8.670   0.938  21.817  0.00  0.00    +0.000 C 
ATOM     24  C   UNL     1       7.728   1.173  20.719  0.00  0.00    +0.000 C 
ATOM     25  C   UNL     1       6.468   1.824  21.088  0.00  0.00    +0.000 C 
ATOM     26  N   UNL     1       6.408   2.623  22.036  0.00  0.00    +0.000 NA
ATOM     27  C   UNL     1       7.660   3.083  22.521  0.00  0.00    +0.000 C 
ATOM     28  C   UNL     1       8.553   1.908  22.943  0.00  0.00    +0.000 C 
BRANCH  24  29
ATOM     29  C   UNL     1       7.507  -0.029  19.832  0.00  0.00    +0.000 C 
ATOM     30  F   UNL     1       7.820   0.296  18.521  0.00  0.00    +0.000 F 
ATOM     31  F   UNL     1       6.186  -0.428  19.883  0.00  0.00    +0.000 F 
ENDBRANCH  24  29
ENDBRANCH  21  23
ENDBRANCH  19  20
ENDBRANCH  18  19
ENDBRANCH   4  18
TORSDOF 8
ENDMDL
MODEL 3
REMARK VINA RESULT:      -7.1      2.841      7.191
REMARK  Name = 
REMARK  8 active torsions:
REMARK  status: ('A' for Active; 'I' for Inactive)
REMARK    1  A    between atoms: C_2  and  C_3
REMARK    2  A    between atoms: C_4  and  C_5
REMARK    3  A    between atoms: C_6  and  C_7
REMARK    4  A    between atoms: C_14  and  S_15
REMARK    5  A    between atoms: S_15  and  C_16
REMARK    6  A    between atoms: C_16  and  C_17
REMARK    7  A    between atoms: N_18  and  C_19
REMARK    8  A    between atoms: C_20  and  C_21
REMARK                            x       y       z     vdW  Elec       q    Type
REMARK                         _______ _______ _______ _____ _____    ______ ____
ROOT
ATOM      1  C   UNL     1       9.588  -0.366  22.029  0.00  0.00    +0.000 C 
ATOM      2  C   UNL     1       8.956   0.285  23.354  0.00  0.00    +0.000 C 
ATOM      3  N   UNL     1       9.087  -0.225  24.447  0.00  0.00    +0.000 NA
ATOM      4  C   UNL     1       9.256  -1.414  24.900  0.00  0.00    +0.000 C 
ATOM      5  N   UNL     1       9.347  -2.136  23.909  0.00  0.00    +0.000 NA
ATOM      6  C   UNL     1       9.488  -1.860  22.551  0.00  0.00    +0.000 C 
ATOM      7  O   UNL     1       8.390  -2.396  21.826  0.00  0.00    +0.000 OA
ENDROOT
BRANCH   2   8
ATOM      8  C   UNL     1       7.655   1.001  23.006  0.00  0.00    +0.000 C 
ATOM      9  C   UNL     1       7.150   1.458  24.500  0.00  0.00    +0.000 C 
ATOM     10  C   UNL     1       7.575   2.405  25.361  0.00  0.00    +0.000 C 
ATOM     11  C   UNL     1       8.451   3.712  25.026  0.00  0.00    +0.000 C 
ATOM     12  C   UNL     1       8.938   3.171  23.659  0.00  0.00    +0.000 C 
ATOM     13  C   UNL     1       8.152   2.503  22.672  0.00  0.00    +0.000 C 
BRANCH   9  14
ATOM     14  C   UNL     1       5.793   1.415  24.440  0.00  0.00    +0.000 C 
ATOM     15  N   UNL     1       5.522   0.318  24.779  0.00  0.00    +0.000 NA
ENDBRANCH   9  14
ENDBRANCH   2   8
BRANCH   1  17
ATOM     16  N   UNL     1       8.146   0.043  19.913  0.00  0.00    +0.000 NA
ATOM     17  C   UNL     1       8.730  -0.175  20.917  0.00  0.00    +0.000 C 
ENDBRANCH   1  17
BRANCH   4  18
ATOM     18  S   UNL     1       8.136  -1.925  26.114  0.00  0.00    +0.000 S 
BRANCH  18  19
ATOM     19  C   UNL     1       8.805  -3.581  26.354  0.00  0.00    +0.000 C 
BRANCH  19  20
ATOM     20  C   UNL     1       7.611  -4.567  26.353  0.00  0.00    +0.000 C 
ATOM     21  N   UNL     1       6.793  -4.451  25.308  0.00  0.00    +0.000 NA
ATOM     22  O   UNL     1       7.765  -5.645  26.914  0.00  0.00    +0.000 OA
BRANCH  21  23
ATOM     23  C   UNL     1       6.534  -5.251  24.249  0.00  0.00    +0.000 C 
ATOM     24  C   UNL     1       5.180  -5.751  23.992  0.00  0.00    +0.000 C 
ATOM     25  C   UNL     1       4.714  -5.647  22.606  0.00  0.00    +0.000 C 
ATOM     26  N   UNL     1       5.508  -5.709  21.653  0.00  0.00    +0.000 NA
ATOM     27  C   UNL     1       6.807  -6.182  21.975  0.00  0.00    +0.000 C 
ATOM     28  C   UNL     1       7.449  -5.325  23.074  0.00  0.00    +0.000 C 
BRANCH  24  29
ATOM     29  C   UNL     1       4.146  -5.258  24.977  0.00  0.00    +0.000 C 
ATOM     30  F   UNL     1       3.066  -6.128  24.991  0.00  0.00    +0.000 F 
ATOM     31  F   UNL     1       3.697  -4.004  24.614  0.00  0.00    +0.000 F 
ENDBRANCH  24  29
ENDBRANCH  21  23
ENDBRANCH  19  20
ENDBRANCH  18  19
ENDBRANCH   4  18
TORSDOF 8
ENDMDL
MODEL 4
REMARK VINA RESULT:      -7.0      2.138      2.541
REMARK  Name = 
REMARK  8 active torsions:
REMARK  status: ('A' for Active; 'I' for Inactive)
REMARK    1  A    between atoms: C_2  and  C_3
REMARK    2  A    between atoms: C_4  and  C_5
REMARK    3  A    between atoms: C_6  and  C_7
REMARK    4  A    between atoms: C_14  and  S_15
REMARK    5  A    between atoms: S_15  and  C_16
REMARK    6  A    between atoms: C_16  and  C_17
REMARK    7  A    between atoms: N_18  and  C_19
REMARK    8  A    between atoms: C_20  and  C_21
REMARK                            x       y       z     vdW  Elec       q    Type
REMARK                         _______ _______ _______ _____ _____    ______ ____
ROOT
ATOM      1  C   UNL     1       8.089  -5.761  25.883  0.00  0.00    +0.000 C 
ATOM      2  C   UNL     1       7.114  -5.026  24.840  0.00  0.00    +0.000 C 
ATOM      3  N   UNL     1       7.540  -4.375  23.909  0.00  0.00    +0.000 NA
ATOM      4  C   UNL     1       8.602  -3.697  23.663  0.00  0.00    +0.000 C 
ATOM      5  N   UNL     1       9.326  -3.847  24.645  0.00  0.00    +0.000 NA
ATOM      6  C   UNL     1       9.260  -4.701  25.744  0.00  0.00    +0.000 C 
ATOM      7  O   UNL     1       9.175  -3.948  26.945  0.00  0.00    +0.000 OA
ENDROOT
BRANCH   2   8
ATOM      8  C   UNL     1       5.840  -4.584  25.551  0.00  0.00    +0.000 C 
ATOM      9  C   UNL     1       5.049  -3.834  24.322  0.00  0.00    +0.000 C 
ATOM     10  C   UNL     1       4.414  -4.296  23.227  0.00  0.00    +0.000 C 
ATOM     11  C   UNL     1       3.831  -5.775  22.981  0.00  0.00    +0.000 C 
ATOM     12  C   UNL     1       4.670  -6.414  24.115  0.00  0.00    +0.000 C 
ATOM     13  C   UNL     1       4.888  -5.884  25.422  0.00  0.00    +0.000 C 
BRANCH   9  14
ATOM     14  C   UNL     1       4.351  -2.830  24.915  0.00  0.00    +0.000 C 
ATOM     15  N   UNL     1       5.040  -1.881  24.782  0.00  0.00    +0.000 NA
ENDBRANCH   9  14
ENDBRANCH   2   8
BRANCH   1  17
ATOM     16  N   UNL     1       7.013  -5.832  28.241  0.00  0.00    +0.000 NA
ATOM     17  C   UNL     1       7.545  -5.725  27.191  0.00  0.00    +0.000 C 
ENDBRANCH   1  17
BRANCH   4  18
ATOM     18  S   UNL     1       8.353  -2.067  23.142  0.00  0.00    +0.000 S 
BRANCH  18  19
ATOM     19  C   UNL     1       9.667  -1.317  24.120  0.00  0.00    +0.000 C 
BRANCH  19  20
ATOM     20  C   UNL     1      10.229  -0.126  23.304  0.00  0.00    +0.000 C 
ATOM     21  N   UNL     1       9.515   0.196  22.226  0.00  0.00    +0.000 NA
ATOM     22  O   UNL     1      10.874   0.722  23.908  0.00  0.00    +0.000 OA
BRANCH  21  23
ATOM     23  C   UNL     1       8.751   1.268  21.916  0.00  0.00    +0.000 C 
ATOM     24  C   UNL     1       7.857   1.248  20.755  0.00  0.00    +0.000 C 
ATOM     25  C   UNL     1       6.499   1.752  20.986  0.00  0.00    +0.000 C 
ATOM     26  N   UNL     1       6.274   2.632  21.832  0.00  0.00    +0.000 NA
ATOM     27  C   UNL     1       7.421   3.313  22.319  0.00  0.00    +0.000 C 
ATOM     28  C   UNL     1       8.435   2.327  22.916  0.00  0.00    +0.000 C 
BRANCH  24  29
ATOM     29  C   UNL     1       7.855  -0.062  20.003  0.00  0.00    +0.000 C 
ATOM     30  F   UNL     1       7.862   0.184  18.639  0.00  0.00    +0.000 F 
ATOM     31  F   UNL     1       6.724  -0.792  20.313  0.00  0.00    +0.000 F 
ENDBRANCH  24  29
ENDBRANCH  21  23
ENDBRANCH  19  20
ENDBRANCH  18  19
ENDBRANCH   4  18
TORSDOF 8
ENDMDL
MODEL 5
REMARK VINA RESULT:      -6.8      3.224      6.899
REMARK  Name = 
REMARK  8 active torsions:
REMARK  status: ('A' for Active; 'I' for Inactive)
REMARK    1  A    between atoms: C_2  and  C_3
REMARK    2  A    between atoms: C_4  and  C_5
REMARK    3  A    between atoms: C_6  and  C_7
REMARK    4  A    between atoms: C_14  and  S_15
REMARK    5  A    between atoms: S_15  and  C_16
REMARK    6  A    between atoms: C_16  and  C_17
REMARK    7  A    between atoms: N_18  and  C_19
REMARK    8  A    between atoms: C_20  and  C_21
REMARK                            x       y       z     vdW  Elec       q    Type
REMARK                         _______ _______ _______ _____ _____    ______ ____
ROOT
ATOM      1  C   UNL     1       5.732   1.932  24.159  0.00  0.00    +0.000 C 
ATOM      2  C   UNL     1       6.896   1.109  23.418  0.00  0.00    +0.000 C 
ATOM      3  N   UNL     1       7.361   0.091  23.884  0.00  0.00    +0.000 NA
ATOM      4  C   UNL     1       7.520  -0.401  25.059  0.00  0.00    +0.000 C 
ATOM      5  N   UNL     1       6.995   0.401  25.829  0.00  0.00    +0.000 NA
ATOM      6  C   UNL     1       6.178   1.510  25.621  0.00  0.00    +0.000 C 
ATOM      7  O   UNL     1       6.800   2.680  26.133  0.00  0.00    +0.000 OA
ENDROOT
BRANCH   2   8
ATOM      8  C   UNL     1       7.798   2.071  22.653  0.00  0.00    +0.000 C 
ATOM      9  C   UNL     1       8.908   1.027  22.042  0.00  0.00    +0.000 C 
ATOM     10  C   UNL     1       8.856   0.110  21.055  0.00  0.00    +0.000 C 
ATOM     11  C   UNL     1       7.806   0.037  19.838  0.00  0.00    +0.000 C 
ATOM     12  C   UNL     1       6.781   0.976  20.521  0.00  0.00    +0.000 C 
ATOM     13  C   UNL     1       7.061   2.189  21.219  0.00  0.00    +0.000 C 
BRANCH   9  14
ATOM     14  C   UNL     1      10.069   1.732  22.004  0.00  0.00    +0.000 C 
ATOM     15  N   UNL     1      10.430   1.755  23.127  0.00  0.00    +0.000 NA
ENDBRANCH   9  14
ENDBRANCH   2   8
BRANCH   1  17
ATOM     16  N   UNL     1       5.897   4.503  23.871  0.00  0.00    +0.000 NA
ATOM     17  C   UNL     1       5.906   3.326  23.975  0.00  0.00    +0.000 C 
ENDBRANCH   1  17
BRANCH   4  18
ATOM     18  S   UNL     1       9.128  -0.898  25.458  0.00  0.00    +0.000 S 
BRANCH  18  19
ATOM     19  C   UNL     1       9.368  -2.017  24.066  0.00  0.00    +0.000 C 
BRANCH  19  20
ATOM     20  C   UNL     1       9.055  -3.449  24.564  0.00  0.00    +0.000 C 
ATOM     21  N   UNL     1       7.789  -3.831  24.405  0.00  0.00    +0.000 NA
ATOM     22  O   UNL     1       9.966  -4.268  24.544  0.00  0.00    +0.000 OA
BRANCH  21  23
ATOM     23  C   UNL     1       7.198  -4.747  23.605  0.00  0.00    +0.000 C 
ATOM     24  C   UNL     1       6.144  -5.629  24.115  0.00  0.00    +0.000 C 
ATOM     25  C   UNL     1       4.958  -5.764  23.264  0.00  0.00    +0.000 C 
ATOM     26  N   UNL     1       5.037  -5.668  22.028  0.00  0.00    +0.000 NA
ATOM     27  C   UNL     1       6.353  -5.728  21.498  0.00  0.00    +0.000 C 
ATOM     28  C   UNL     1       7.247  -4.645  22.118  0.00  0.00    +0.000 C 
BRANCH  24  29
ATOM     29  C   UNL     1       5.780  -5.379  25.559  0.00  0.00    +0.000 C 
ATOM     30  F   UNL     1       5.544  -6.588  26.195  0.00  0.00    +0.000 F 
ATOM     31  F   UNL     1       4.637  -4.609  25.640  0.00  0.00    +0.000 F 
ENDBRANCH  24  29
ENDBRANCH  21  23
ENDBRANCH  19  20
ENDBRANCH  18  19
ENDBRANCH   4  18
TORSDOF 8
ENDMDL
MODEL 6
REMARK VINA RESULT:      -6.8      3.045      6.816
REMARK  Name = 
REMARK  8 active torsions:
REMARK  status: ('A' for Active; 'I' for Inactive)
REMARK    1  A    between atoms: C_2  and  C_3
REMARK    2  A    between atoms: C_4  and  C_5
REMARK    3  A    between atoms: C_6  and  C_7
REMARK    4  A    between atoms: C_14  and  S_15
REMARK    5  A    between atoms: S_15  and  C_16
REMARK    6  A    between atoms: C_16  and  C_17
REMARK    7  A    between atoms: N_18  and  C_19
REMARK    8  A    between atoms: C_20  and  C_21
REMARK                            x       y       z     vdW  Elec       q    Type
REMARK                         _______ _______ _______ _____ _____    ______ ____
ROOT
ATOM      1  C   UNL     1       6.028   2.528  22.829  0.00  0.00    +0.000 C 
ATOM      2  C   UNL     1       7.068   1.393  23.287  0.00  0.00    +0.000 C 
ATOM      3  N   UNL     1       6.827   0.629  24.197  0.00  0.00    +0.000 NA
ATOM      4  C   UNL     1       6.116   0.656  25.266  0.00  0.00    +0.000 C 
ATOM      5  N   UNL     1       5.535   1.739  25.250  0.00  0.00    +0.000 NA
ATOM      6  C   UNL     1       5.392   2.718  24.269  0.00  0.00    +0.000 C 
ATOM      7  O   UNL     1       5.942   3.948  24.719  0.00  0.00    +0.000 OA
ENDROOT
BRANCH   2   8
ATOM      8  C   UNL     1       8.495   1.887  23.073  0.00  0.00    +0.000 C 
ATOM      9  C   UNL     1       9.349   0.606  23.643  0.00  0.00    +0.000 C 
ATOM     10  C   UNL     1       9.582  -0.630  23.155  0.00  0.00    +0.000 C 
ATOM     11  C   UNL     1       9.461  -1.119  21.628  0.00  0.00    +0.000 C 
ATOM     12  C   UNL     1       8.596   0.089  21.193  0.00  0.00    +0.000 C 
ATOM     13  C   UNL     1       8.796   1.458  21.544  0.00  0.00    +0.000 C 
BRANCH   9  14
ATOM     14  C   UNL     1      10.473   1.146  24.183  0.00  0.00    +0.000 C 
ATOM     15  N   UNL     1      10.776   0.391  25.037  0.00  0.00    +0.000 NA
ENDBRANCH   9  14
ENDBRANCH   2   8
BRANCH   1  17
ATOM     16  N   UNL     1       7.138   4.733  22.035  0.00  0.00    +0.000 NA
ATOM     17  C   UNL     1       6.710   3.705  22.434  0.00  0.00    +0.000 C 
ENDBRANCH   1  17
BRANCH   4  18
ATOM     18  S   UNL     1       6.943   0.257  26.732  0.00  0.00    +0.000 S 
BRANCH  18  19
ATOM     19  C   UNL     1       6.289  -1.413  26.909  0.00  0.00    +0.000 C 
BRANCH  19  20
ATOM     20  C   UNL     1       7.242  -2.366  26.146  0.00  0.00    +0.000 C 
ATOM     21  N   UNL     1       6.654  -3.112  25.212  0.00  0.00    +0.000 NA
ATOM     22  O   UNL     1       8.414  -2.027  26.034  0.00  0.00    +0.000 OA
BRANCH  21  23
ATOM     23  C   UNL     1       6.720  -3.118  23.862  0.00  0.00    +0.000 C 
ATOM     24  C   UNL     1       7.548  -4.095  23.149  0.00  0.00    +0.000 C 
ATOM     25  C   UNL     1       6.913  -4.756  22.005  0.00  0.00    +0.000 C 
ATOM     26  N   UNL     1       6.045  -4.181  21.329  0.00  0.00    +0.000 NA
ATOM     27  C   UNL     1       5.940  -2.781  21.539  0.00  0.00    +0.000 C 
ATOM     28  C   UNL     1       5.679  -2.464  23.018  0.00  0.00    +0.000 C 
BRANCH  24  29
ATOM     29  C   UNL     1       8.253  -5.078  24.053  0.00  0.00    +0.000 C 
ATOM     30  F   UNL     1       9.447  -4.530  24.495  0.00  0.00    +0.000 F 
ATOM     31  F   UNL     1       8.531  -6.245  23.369  0.00  0.00    +0.000 F 
ENDBRANCH  24  29
ENDBRANCH  21  23
ENDBRANCH  19  20
ENDBRANCH  18  19
ENDBRANCH   4  18
TORSDOF 8
ENDMDL
MODEL 7
REMARK VINA RESULT:      -6.5      2.531      7.278
REMARK  Name = 
REMARK  8 active torsions:
REMARK  status: ('A' for Active; 'I' for Inactive)
REMARK    1  A    between atoms: C_2  and  C_3
REMARK    2  A    between atoms: C_4  and  C_5
REMARK    3  A    between atoms: C_6  and  C_7
REMARK    4  A    between atoms: C_14  and  S_15
REMARK    5  A    between atoms: S_15  and  C_16
REMARK    6  A    between atoms: C_16  and  C_17
REMARK    7  A    between atoms: N_18  and  C_19
REMARK    8  A    between atoms: C_20  and  C_21
REMARK                            x       y       z     vdW  Elec       q    Type
REMARK                         _______ _______ _______ _____ _____    ______ ____
ROOT
ATOM      1  C   UNL     1       9.532   0.049  21.701  0.00  0.00    +0.000 C 
ATOM      2  C   UNL     1       9.055   0.746  23.067  0.00  0.00    +0.000 C 
ATOM      3  N   UNL     1       9.335   0.288  24.155  0.00  0.00    +0.000 NA
ATOM      4  C   UNL     1       9.589  -0.876  24.632  0.00  0.00    +0.000 C 
ATOM      5  N   UNL     1       9.575  -1.640  23.669  0.00  0.00    +0.000 NA
ATOM      6  C   UNL     1       9.537  -1.422  22.293  0.00  0.00    +0.000 C 
ATOM      7  O   UNL     1       8.371  -2.012  21.736  0.00  0.00    +0.000 OA
ENDROOT
BRANCH   2   8
ATOM      8  C   UNL     1       7.703   1.419  22.855  0.00  0.00    +0.000 C 
ATOM      9  C   UNL     1       7.320   1.823  24.400  0.00  0.00    +0.000 C 
ATOM     10  C   UNL     1       7.787   2.766  25.243  0.00  0.00    +0.000 C 
ATOM     11  C   UNL     1       8.581   4.113  24.864  0.00  0.00    +0.000 C 
ATOM     12  C   UNL     1       8.961   3.622  23.446  0.00  0.00    +0.000 C 
ATOM     13  C   UNL     1       8.114   2.946  22.517  0.00  0.00    +0.000 C 
BRANCH   9  14
ATOM     14  C   UNL     1       5.965   1.730  24.461  0.00  0.00    +0.000 C 
ATOM     15  N   UNL     1       5.760   0.574  24.578  0.00  0.00    +0.000 NA
ENDBRANCH   9  14
ENDBRANCH   2   8
BRANCH   1  17
ATOM     16  N   UNL     1       7.830   0.315  19.763  0.00  0.00    +0.000 NA
ATOM     17  C   UNL     1       8.538   0.172  20.699  0.00  0.00    +0.000 C 
ENDBRANCH   1  17
BRANCH   4  18
ATOM     18  S   UNL     1       8.643  -1.354  25.998  0.00  0.00    +0.000 S 
BRANCH  18  19
ATOM     19  C   UNL     1       7.969  -2.866  25.285  0.00  0.00    +0.000 C 
BRANCH  19  20
ATOM     20  C   UNL     1       6.440  -2.667  25.142  0.00  0.00    +0.000 C 
ATOM     21  N   UNL     1       5.941  -3.019  23.958  0.00  0.00    +0.000 NA
ATOM     22  O   UNL     1       5.760  -2.742  26.158  0.00  0.00    +0.000 OA
BRANCH  21  23
ATOM     23  C   UNL     1       5.129  -4.026  23.564  0.00  0.00    +0.000 C 
ATOM     24  C   UNL     1       5.653  -5.173  22.817  0.00  0.00    +0.000 C 
ATOM     25  C   UNL     1       5.209  -6.492  23.280  0.00  0.00    +0.000 C 
ATOM     26  N   UNL     1       4.097  -6.649  23.809  0.00  0.00    +0.000 NA
ATOM     27  C   UNL     1       3.194  -5.564  23.657  0.00  0.00    +0.000 C 
ATOM     28  C   UNL     1       3.801  -4.262  24.199  0.00  0.00    +0.000 C 
BRANCH  24  29
ATOM     29  C   UNL     1       7.145  -5.125  22.586  0.00  0.00    +0.000 C 
ATOM     30  F   UNL     1       7.451  -5.765  21.395  0.00  0.00    +0.000 F 
ATOM     31  F   UNL     1       7.811  -5.765  23.613  0.00  0.00    +0.000 F 
ENDBRANCH  24  29
ENDBRANCH  21  23
ENDBRANCH  19  20
ENDBRANCH  18  19
ENDBRANCH   4  18
TORSDOF 8
ENDMDL
MODEL 8
REMARK VINA RESULT:      -6.4      2.409      3.472
REMARK  Name = 
REMARK  8 active torsions:
REMARK  status: ('A' for Active; 'I' for Inactive)
REMARK    1  A    between atoms: C_2  and  C_3
REMARK    2  A    between atoms: C_4  and  C_5
REMARK    3  A    between atoms: C_6  and  C_7
REMARK    4  A    between atoms: C_14  and  S_15
REMARK    5  A    between atoms: S_15  and  C_16
REMARK    6  A    between atoms: C_16  and  C_17
REMARK    7  A    between atoms: N_18  and  C_19
REMARK    8  A    between atoms: C_20  and  C_21
REMARK                            x       y       z     vdW  Elec       q    Type
REMARK                         _______ _______ _______ _____ _____    ______ ____
ROOT
ATOM      1  C   UNL     1       7.695  -5.453  25.239  0.00  0.00    +0.000 C 
ATOM      2  C   UNL     1       6.321  -5.195  24.448  0.00  0.00    +0.000 C 
ATOM      3  N   UNL     1       6.297  -4.677  23.352  0.00  0.00    +0.000 NA
ATOM      4  C   UNL     1       7.030  -3.844  22.705  0.00  0.00    +0.000 C 
ATOM      5  N   UNL     1       7.994  -3.616  23.433  0.00  0.00    +0.000 NA
ATOM      6  C   UNL     1       8.450  -4.210  24.608  0.00  0.00    +0.000 C 
ATOM      7  O   UNL     1       8.470  -3.259  25.662  0.00  0.00    +0.000 OA
ENDROOT
BRANCH   2   8
ATOM      8  C   UNL     1       5.201  -4.912  25.443  0.00  0.00    +0.000 C 
ATOM      9  C   UNL     1       4.001  -4.443  24.425  0.00  0.00    +0.000 C 
ATOM     10  C   UNL     1       3.217  -5.119  23.560  0.00  0.00    +0.000 C 
ATOM     11  C   UNL     1       2.893  -6.694  23.556  0.00  0.00    +0.000 C 
ATOM     12  C   UNL     1       4.094  -7.056  24.464  0.00  0.00    +0.000 C 
ATOM     13  C   UNL     1       4.520  -6.365  25.639  0.00  0.00    +0.000 C 
BRANCH   9  14
ATOM     14  C   UNL     1       3.288  -3.520  25.123  0.00  0.00    +0.000 C 
ATOM     15  N   UNL     1       2.164  -3.771  24.870  0.00  0.00    +0.000 NA
ENDBRANCH   9  14
ENDBRANCH   2   8
BRANCH   1  17
ATOM     16  N   UNL     1       7.294  -5.253  27.793  0.00  0.00    +0.000 NA
ATOM     17  C   UNL     1       7.516  -5.264  26.632  0.00  0.00    +0.000 C 
ENDBRANCH   1  17
BRANCH   4  18
ATOM     18  S   UNL     1       6.214  -2.461  22.064  0.00  0.00    +0.000 S 
BRANCH  18  19
ATOM     19  C   UNL     1       7.677  -1.443  21.797  0.00  0.00    +0.000 C 
BRANCH  19  20
ATOM     20  C   UNL     1       7.232   0.038  21.885  0.00  0.00    +0.000 C 
ATOM     21  N   UNL     1       7.404   0.602  23.079  0.00  0.00    +0.000 NA
ATOM     22  O   UNL     1       7.283   0.708  20.860  0.00  0.00    +0.000 OA
BRANCH  21  23
ATOM     23  C   UNL     1       8.237   1.567  23.530  0.00  0.00    +0.000 C 
ATOM     24  C   UNL     1       9.347   1.248  24.432  0.00  0.00    +0.000 C 
ATOM     25  C   UNL     1      10.639   1.852  24.091  0.00  0.00    +0.000 C 
ATOM     26  N   UNL     1      10.705   2.949  23.512  0.00  0.00    +0.000 NA
ATOM     27  C   UNL     1       9.497   3.694  23.484  0.00  0.00    +0.000 C 
ATOM     28  C   UNL     1       8.364   2.883  22.841  0.00  0.00    +0.000 C 
BRANCH  24  29
ATOM     29  C   UNL     1       9.476  -0.222  24.752  0.00  0.00    +0.000 C 
ATOM     30  F   UNL     1       9.747  -0.382  26.102  0.00  0.00    +0.000 F 
ATOM     31  F   UNL     1      10.507  -0.784  24.026  0.00  0.00    +0.000 F 
ENDBRANCH  24  29
ENDBRANCH  21  23
ENDBRANCH  19  20
ENDBRANCH  18  19
ENDBRANCH   4  18
TORSDOF 8
ENDMDL
MODEL 9
REMARK VINA RESULT:      -6.4      2.905      7.058
REMARK  Name = 
REMARK  8 active torsions:
REMARK  status: ('A' for Active; 'I' for Inactive)
REMARK    1  A    between atoms: C_2  and  C_3
REMARK    2  A    between atoms: C_4  and  C_5
REMARK    3  A    between atoms: C_6  and  C_7
REMARK    4  A    between atoms: C_14  and  S_15
REMARK    5  A    between atoms: S_15  and  C_16
REMARK    6  A    between atoms: C_16  and  C_17
REMARK    7  A    between atoms: N_18  and  C_19
REMARK    8  A    between atoms: C_20  and  C_21
REMARK                            x       y       z     vdW  Elec       q    Type
REMARK                         _______ _______ _______ _____ _____    ______ ____
ROOT
ATOM      1  C   UNL     1       6.142   2.754  22.331  0.00  0.00    +0.000 C 
ATOM      2  C   UNL     1       7.078   1.548  22.832  0.00  0.00    +0.000 C 
ATOM      3  N   UNL     1       6.663   0.674  23.564  0.00  0.00    +0.000 NA
ATOM      4  C   UNL     1       5.752   0.574  24.463  0.00  0.00    +0.000 C 
ATOM      5  N   UNL     1       5.178   1.660  24.476  0.00  0.00    +0.000 NA
ATOM      6  C   UNL     1       5.228   2.764  23.626  0.00  0.00    +0.000 C 
ATOM      7  O   UNL     1       5.667   3.911  24.339  0.00  0.00    +0.000 OA
ENDROOT
BRANCH   2   8
ATOM      8  C   UNL     1       8.514   2.038  22.977  0.00  0.00    +0.000 C 
ATOM      9  C   UNL     1       9.196   0.758  23.748  0.00  0.00    +0.000 C 
ATOM     10  C   UNL     1       9.538  -0.480  23.339  0.00  0.00    +0.000 C 
ATOM     11  C   UNL     1       9.799  -0.978  21.832  0.00  0.00    +0.000 C 
ATOM     12  C   UNL     1       9.073   0.229  21.189  0.00  0.00    +0.000 C 
ATOM     13  C   UNL     1       9.185   1.599  21.573  0.00  0.00    +0.000 C 
BRANCH   9  14
ATOM     14  C   UNL     1      10.152   1.299  24.547  0.00  0.00    +0.000 C 
ATOM     15  N   UNL     1      10.770   0.370  24.929  0.00  0.00    +0.000 NA
ENDBRANCH   9  14
ENDBRANCH   2   8
BRANCH   1  17
ATOM     16  N   UNL     1       7.370   5.036  22.240  0.00  0.00    +0.000 NA
ATOM     17  C   UNL     1       6.881   3.960  22.242  0.00  0.00    +0.000 C 
ENDBRANCH   1  17
BRANCH   4  18
ATOM     18  S   UNL     1       6.269  -0.034  25.997  0.00  0.00    +0.000 S 
BRANCH  18  19
ATOM     19  C   UNL     1       4.870  -1.131  26.286  0.00  0.00    +0.000 C 
BRANCH  19  20
ATOM     20  C   UNL     1       5.043  -2.357  25.356  0.00  0.00    +0.000 C 
ATOM     21  N   UNL     1       6.304  -2.639  25.034  0.00  0.00    +0.000 NA
ATOM     22  O   UNL     1       4.197  -3.241  25.418  0.00  0.00    +0.000 OA
BRANCH  21  23
ATOM     23  C   UNL     1       7.129  -3.662  25.354  0.00  0.00    +0.000 C 
ATOM     24  C   UNL     1       7.374  -4.759  24.412  0.00  0.00    +0.000 C 
ATOM     25  C   UNL     1       8.775  -5.154  24.244  0.00  0.00    +0.000 C 
ATOM     26  N   UNL     1       9.594  -5.039  25.171  0.00  0.00    +0.000 NA
ATOM     27  C   UNL     1       9.029  -4.801  26.452  0.00  0.00    +0.000 C 
ATOM     28  C   UNL     1       8.143  -3.548  26.440  0.00  0.00    +0.000 C 
BRANCH  24  29
ATOM     29  C   UNL     1       6.666  -4.600  23.088  0.00  0.00    +0.000 C 
ATOM     30  F   UNL     1       6.669  -5.811  22.411  0.00  0.00    +0.000 F 
ATOM     31  F   UNL     1       7.309  -3.659  22.309  0.00  0.00    +0.000 F 
ENDBRANCH  24  29
ENDBRANCH  21  23
ENDBRANCH  19  20
ENDBRANCH  18  19
ENDBRANCH   4  18
TORSDOF 8
ENDMDL
