MODEL 1
REMARK VINA RESULT:      -5.8      0.000      0.000
REMARK  Name = 
REMARK  3 active torsions:
REMARK  status: ('A' for Active; 'I' for Inactive)
REMARK    1  A    between atoms: N_4  and  C_5
REMARK    2  A    between atoms: C_10  and  C_11
REMARK    3  A    between atoms: C_11  and  C_14
REMARK                            x       y       z     vdW  Elec       q    Type
REMARK                         _______ _______ _______ _____ _____    ______ ____
ROOT
ATOM      1  C   UNL     1       8.343   0.249  23.077  0.00  0.00    +0.000 C 
ATOM      2  C   UNL     1       8.855  -0.840  24.123  0.00  0.00    +0.000 C 
ATOM      3  C   UNL     1      10.127  -1.411  23.499  0.00  0.00    +0.000 C 
ATOM      4  O   UNL     1      10.145  -2.790  23.632  0.00  0.00    +0.000 OA
ATOM      5  C   UNL     1      10.114  -1.073  21.999  0.00  0.00    +0.000 C 
ATOM      6  C   UNL     1       8.915  -0.159  21.751  0.00  0.00    +0.000 C 
ENDROOT
BRANCH   1  10
ATOM      7  C   UNL     1       7.091   4.078  22.565  0.00  0.00    +0.000 C 
ATOM      8  N   UNL     1       8.301   3.280  22.699  0.00  0.00    +0.000 NA
ATOM      9  C   UNL     1       8.483   2.530  23.799  0.00  0.00    +0.000 C 
ATOM     10  N   UNL     1       9.237   1.441  23.473  0.00  0.00    +0.000 NA
ATOM     11  O   UNL     1       8.487   2.999  24.905  0.00  0.00    +0.000 OA
ENDBRANCH   1  10
BRANCH   6  12
ATOM     12  C   UNL     1       8.014  -0.670  20.711  0.00  0.00    +0.000 C 
ATOM     13  C   UNL     1       6.771  -1.305  21.367  0.00  0.00    +0.000 C 
BRANCH  12  14
ATOM     14  C   UNL     1       7.455   0.534  19.916  0.00  0.00    +0.000 C 
ATOM     15  N   UNL     1       7.285   0.204  18.602  0.00  0.00    +0.000 NA
ATOM     16  C   UNL     1       5.958   0.269  18.027  0.00  0.00    +0.000 C 
ATOM     17  O   UNL     1       6.616   1.222  20.480  0.00  0.00    +0.000 OA
ENDBRANCH  12  14
ENDBRANCH   6  12
TORSDOF 3
ENDMDL
MODEL 2
REMARK VINA RESULT:      -5.8      2.755      4.461
REMARK  Name = 
REMARK  3 active torsions:
REMARK  status: ('A' for Active; 'I' for Inactive)
REMARK    1  A    between atoms: N_4  and  C_5
REMARK    2  A    between atoms: C_10  and  C_11
REMARK    3  A    between atoms: C_11  and  C_14
REMARK                            x       y       z     vdW  Elec       q    Type
REMARK                         _______ _______ _______ _____ _____    ______ ____
ROOT
ATOM      1  C   UNL     1       8.142  -1.869  22.340  0.00  0.00    +0.000 C 
ATOM      2  C   UNL     1       9.677  -1.764  22.759  0.00  0.00    +0.000 C 
ATOM      3  C   UNL     1       9.713  -0.683  23.838  0.00  0.00    +0.000 C 
ATOM      4  O   UNL     1      10.789   0.164  23.628  0.00  0.00    +0.000 OA
ATOM      5  C   UNL     1       8.421   0.142  23.728  0.00  0.00    +0.000 C 
ATOM      6  C   UNL     1       7.534  -0.542  22.690  0.00  0.00    +0.000 C 
ENDROOT
BRANCH   1  10
ATOM      7  C   UNL     1       7.014  -5.696  21.590  0.00  0.00    +0.000 C 
ATOM      8  N   UNL     1       6.813  -4.611  22.540  0.00  0.00    +0.000 NA
ATOM      9  C   UNL     1       7.870  -4.094  23.188  0.00  0.00    +0.000 C 
ATOM     10  N   UNL     1       7.619  -2.782  23.466  0.00  0.00    +0.000 NA
ATOM     11  O   UNL     1       8.596  -4.762  23.872  0.00  0.00    +0.000 OA
ENDBRANCH   1  10
BRANCH   6  12
ATOM     12  C   UNL     1       7.120   0.362  21.609  0.00  0.00    +0.000 C 
ATOM     13  C   UNL     1       8.106   1.543  21.515  0.00  0.00    +0.000 C 
BRANCH  12  14
ATOM     14  C   UNL     1       7.285  -0.383  20.262  0.00  0.00    +0.000 C 
ATOM     15  N   UNL     1       6.067  -0.609  19.687  0.00  0.00    +0.000 NA
ATOM     16  C   UNL     1       5.785  -0.035  18.388  0.00  0.00    +0.000 C 
ATOM     17  O   UNL     1       8.231  -0.050  19.562  0.00  0.00    +0.000 OA
ENDBRANCH  12  14
ENDBRANCH   6  12
TORSDOF 3
ENDMDL
MODEL 3
REMARK VINA RESULT:      -5.8      5.020      6.505
REMARK  Name = 
REMARK  3 active torsions:
REMARK  status: ('A' for Active; 'I' for Inactive)
REMARK    1  A    between atoms: N_4  and  C_5
REMARK    2  A    between atoms: C_10  and  C_11
REMARK    3  A    between atoms: C_11  and  C_14
REMARK                            x       y       z     vdW  Elec       q    Type
REMARK                         _______ _______ _______ _____ _____    ______ ____
ROOT
ATOM      1  C   UNL     1       8.021  -4.931  24.579  0.00  0.00    +0.000 C 
ATOM      2  C   UNL     1       9.514  -4.406  24.765  0.00  0.00    +0.000 C 
ATOM      3  C   UNL     1       9.474  -2.950  24.302  0.00  0.00    +0.000 C 
ATOM      4  O   UNL     1      10.579  -2.670  23.515  0.00  0.00    +0.000 OA
ATOM      5  C   UNL     1       8.211  -2.757  23.447  0.00  0.00    +0.000 C 
ATOM      6  C   UNL     1       7.407  -4.053  23.527  0.00  0.00    +0.000 C 
ENDROOT
BRANCH   1  10
ATOM      7  C   UNL     1       4.929  -6.867  26.364  0.00  0.00    +0.000 C 
ATOM      8  N   UNL     1       5.552  -5.555  26.267  0.00  0.00    +0.000 NA
ATOM      9  C   UNL     1       6.843  -5.407  26.612  0.00  0.00    +0.000 C 
ATOM     10  N   UNL     1       7.383  -4.393  25.875  0.00  0.00    +0.000 NA
ATOM     11  O   UNL     1       7.255  -5.690  27.703  0.00  0.00    +0.000 OA
ENDBRANCH   1  10
BRANCH   6  12
ATOM     12  C   UNL     1       7.108  -4.622  22.207  0.00  0.00    +0.000 C 
ATOM     13  C   UNL     1       7.155  -6.161  22.283  0.00  0.00    +0.000 C 
BRANCH  12  14
ATOM     14  C   UNL     1       5.634  -4.300  21.862  0.00  0.00    +0.000 C 
ATOM     15  N   UNL     1       4.796  -5.207  22.444  0.00  0.00    +0.000 NA
ATOM     16  C   UNL     1       3.808  -4.742  23.395  0.00  0.00    +0.000 C 
ATOM     17  O   UNL     1       5.322  -3.118  21.837  0.00  0.00    +0.000 OA
ENDBRANCH  12  14
ENDBRANCH   6  12
TORSDOF 3
ENDMDL
MODEL 4
REMARK VINA RESULT:      -5.7      3.218      5.812
REMARK  Name = 
REMARK  3 active torsions:
REMARK  status: ('A' for Active; 'I' for Inactive)
REMARK    1  A    between atoms: N_4  and  C_5
REMARK    2  A    between atoms: C_10  and  C_11
REMARK    3  A    between atoms: C_11  and  C_14
REMARK                            x       y       z     vdW  Elec       q    Type
REMARK                         _______ _______ _______ _____ _____    ______ ____
ROOT
ATOM      1  C   UNL     1       8.907  -2.071  24.261  0.00  0.00    +0.000 C 
ATOM      2  C   UNL     1       8.260  -2.109  22.805  0.00  0.00    +0.000 C 
ATOM      3  C   UNL     1       9.356  -1.584  21.879  0.00  0.00    +0.000 C 
ATOM      4  O   UNL     1       8.818  -0.696  20.961  0.00  0.00    +0.000 OA
ATOM      5  C   UNL     1      10.382  -0.827  22.737  0.00  0.00    +0.000 C 
ATOM      6  C   UNL     1       9.990  -1.034  24.199  0.00  0.00    +0.000 C 
ENDROOT
BRANCH   1  10
ATOM      7  C   UNL     1       8.042  -5.110  26.812  0.00  0.00    +0.000 C 
ATOM      8  N   UNL     1       9.123  -4.577  25.996  0.00  0.00    +0.000 NA
ATOM      9  C   UNL     1       8.944  -4.433  24.671  0.00  0.00    +0.000 C 
ATOM     10  N   UNL     1       9.706  -3.389  24.234  0.00  0.00    +0.000 NA
ATOM     11  O   UNL     1       8.653  -5.353  23.957  0.00  0.00    +0.000 OA
ENDBRANCH   1  10
BRANCH   6  12
ATOM     12  C   UNL     1       9.813   0.229  24.927  0.00  0.00    +0.000 C 
ATOM     13  C   UNL     1      10.655   1.335  24.259  0.00  0.00    +0.000 C 
BRANCH  12  14
ATOM     14  C   UNL     1       8.350   0.696  24.743  0.00  0.00    +0.000 C 
ATOM     15  N   UNL     1       7.778   0.970  25.952  0.00  0.00    +0.000 NA
ATOM     16  C   UNL     1       7.301   2.311  26.217  0.00  0.00    +0.000 C 
ATOM     17  O   UNL     1       8.122   1.424  23.788  0.00  0.00    +0.000 OA
ENDBRANCH  12  14
ENDBRANCH   6  12
TORSDOF 3
ENDMDL
MODEL 5
REMARK VINA RESULT:      -5.7      3.607      4.628
REMARK  Name = 
REMARK  3 active torsions:
REMARK  status: ('A' for Active; 'I' for Inactive)
REMARK    1  A    between atoms: N_4  and  C_5
REMARK    2  A    between atoms: C_10  and  C_11
REMARK    3  A    between atoms: C_11  and  C_14
REMARK                            x       y       z     vdW  Elec       q    Type
REMARK                         _______ _______ _______ _____ _____    ______ ____
ROOT
ATOM      1  C   UNL     1       8.261  -2.479  24.671  0.00  0.00    +0.000 C 
ATOM      2  C   UNL     1       8.481  -2.818  26.213  0.00  0.00    +0.000 C 
ATOM      3  C   UNL     1       8.770  -4.318  26.244  0.00  0.00    +0.000 C 
ATOM      4  O   UNL     1       8.076  -4.915  27.283  0.00  0.00    +0.000 OA
ATOM      5  C   UNL     1       8.275  -4.925  24.921  0.00  0.00    +0.000 C 
ATOM      6  C   UNL     1       7.836  -3.767  24.028  0.00  0.00    +0.000 C 
ENDROOT
BRANCH   1  10
ATOM      7  C   UNL     1       9.245  -0.328  21.371  0.00  0.00    +0.000 C 
ATOM      8  N   UNL     1       9.734  -1.404  22.221  0.00  0.00    +0.000 NA
ATOM      9  C   UNL     1       9.922  -1.180  23.533  0.00  0.00    +0.000 C 
ATOM     10  N   UNL     1       9.726  -2.346  24.213  0.00  0.00    +0.000 NA
ATOM     11  O   UNL     1      10.653  -0.319  23.941  0.00  0.00    +0.000 OA
ENDBRANCH   1  10
BRANCH   6  12
ATOM     12  C   UNL     1       6.453  -3.906  23.552  0.00  0.00    +0.000 C 
ATOM     13  C   UNL     1       5.651  -2.640  23.911  0.00  0.00    +0.000 C 
BRANCH  12  14
ATOM     14  C   UNL     1       6.471  -3.924  22.005  0.00  0.00    +0.000 C 
ATOM     15  N   UNL     1       6.977  -5.106  21.544  0.00  0.00    +0.000 NA
ATOM     16  C   UNL     1       6.142  -5.955  20.720  0.00  0.00    +0.000 C 
ATOM     17  O   UNL     1       5.514  -3.415  21.439  0.00  0.00    +0.000 OA
ENDBRANCH  12  14
ENDBRANCH   6  12
TORSDOF 3
ENDMDL
MODEL 6
REMARK VINA RESULT:      -5.6      2.018      4.307
REMARK  Name = 
REMARK  3 active torsions:
REMARK  status: ('A' for Active; 'I' for Inactive)
REMARK    1  A    between atoms: N_4  and  C_5
REMARK    2  A    between atoms: C_10  and  C_11
REMARK    3  A    between atoms: C_11  and  C_14
REMARK                            x       y       z     vdW  Elec       q    Type
REMARK                         _______ _______ _______ _____ _____    ______ ____
ROOT
ATOM      1  C   UNL     1       7.569   0.472  21.926  0.00  0.00    +0.000 C 
ATOM      2  C   UNL     1       7.771   1.448  23.169  0.00  0.00    +0.000 C 
ATOM      3  C   UNL     1       9.239   1.866  23.101  0.00  0.00    +0.000 C 
ATOM      4  O   UNL     1       9.804   1.830  24.365  0.00  0.00    +0.000 OA
ATOM      5  C   UNL     1       9.981   0.855  22.212  0.00  0.00    +0.000 C 
ATOM      6  C   UNL     1       8.930  -0.079  21.615  0.00  0.00    +0.000 C 
ENDROOT
BRANCH   1  10
ATOM      7  C   UNL     1       6.069  -0.615  18.312  0.00  0.00    +0.000 C 
ATOM      8  N   UNL     1       6.874   0.416  18.952  0.00  0.00    +0.000 NA
ATOM      9  C   UNL     1       6.355   1.128  19.966  0.00  0.00    +0.000 C 
ATOM     10  N   UNL     1       7.364   1.507  20.802  0.00  0.00    +0.000 NA
ATOM     11  O   UNL     1       5.347   1.771  19.852  0.00  0.00    +0.000 OA
ENDBRANCH   1  10
BRANCH   6  12
ATOM     12  C   UNL     1       9.207  -1.496  21.884  0.00  0.00    +0.000 C 
ATOM     13  C   UNL     1      10.515  -1.625  22.689  0.00  0.00    +0.000 C 
BRANCH  12  14
ATOM     14  C   UNL     1       8.114  -2.032  22.839  0.00  0.00    +0.000 C 
ATOM     15  N   UNL     1       7.480  -3.108  22.287  0.00  0.00    +0.000 NA
ATOM     16  C   UNL     1       7.535  -4.384  22.970  0.00  0.00    +0.000 C 
ATOM     17  O   UNL     1       8.381  -2.036  24.033  0.00  0.00    +0.000 OA
ENDBRANCH  12  14
ENDBRANCH   6  12
TORSDOF 3
ENDMDL
MODEL 7
REMARK VINA RESULT:      -5.5      4.123      5.466
REMARK  Name = 
REMARK  3 active torsions:
REMARK  status: ('A' for Active; 'I' for Inactive)
REMARK    1  A    between atoms: N_4  and  C_5
REMARK    2  A    between atoms: C_10  and  C_11
REMARK    3  A    between atoms: C_11  and  C_14
REMARK                            x       y       z     vdW  Elec       q    Type
REMARK                         _______ _______ _______ _____ _____    ______ ____
ROOT
ATOM      1  C   UNL     1       8.280  -2.830  24.383  0.00  0.00    +0.000 C 
ATOM      2  C   UNL     1       8.238  -2.949  25.971  0.00  0.00    +0.000 C 
ATOM      3  C   UNL     1       8.699  -4.375  26.268  0.00  0.00    +0.000 C 
ATOM      4  O   UNL     1       7.895  -4.942  27.243  0.00  0.00    +0.000 OA
ATOM      5  C   UNL     1       8.549  -5.200  24.980  0.00  0.00    +0.000 C 
ATOM      6  C   UNL     1       8.151  -4.234  23.866  0.00  0.00    +0.000 C 
ENDROOT
BRANCH   1  10
ATOM      7  C   UNL     1       9.538  -0.226  21.533  0.00  0.00    +0.000 C 
ATOM      8  N   UNL     1       9.993  -1.359  22.325  0.00  0.00    +0.000 NA
ATOM      9  C   UNL     1       9.966  -1.284  23.667  0.00  0.00    +0.000 C 
ATOM     10  N   UNL     1       9.779  -2.536  24.176  0.00  0.00    +0.000 NA
ATOM     11  O   UNL     1      10.549  -0.429  24.276  0.00  0.00    +0.000 OA
ENDBRANCH   1  10
BRANCH   6  12
ATOM     12  C   UNL     1       6.916  -4.632  23.179  0.00  0.00    +0.000 C 
ATOM     13  C   UNL     1       7.200  -5.837  22.260  0.00  0.00    +0.000 C 
BRANCH  12  14
ATOM     14  C   UNL     1       5.926  -5.178  24.235  0.00  0.00    +0.000 C 
ATOM     15  N   UNL     1       5.121  -4.179  24.700  0.00  0.00    +0.000 NA
ATOM     16  C   UNL     1       3.689  -4.283  24.512  0.00  0.00    +0.000 C 
ATOM     17  O   UNL     1       5.453  -6.286  24.022  0.00  0.00    +0.000 OA
ENDBRANCH  12  14
ENDBRANCH   6  12
TORSDOF 3
ENDMDL
MODEL 8
REMARK VINA RESULT:      -5.4      2.260      3.745
REMARK  Name = 
REMARK  3 active torsions:
REMARK  status: ('A' for Active; 'I' for Inactive)
REMARK    1  A    between atoms: N_4  and  C_5
REMARK    2  A    between atoms: C_10  and  C_11
REMARK    3  A    between atoms: C_11  and  C_14
REMARK                            x       y       z     vdW  Elec       q    Type
REMARK                         _______ _______ _______ _____ _____    ______ ____
ROOT
ATOM      1  C   UNL     1       9.574   0.074  24.023  0.00  0.00    +0.000 C 
ATOM      2  C   UNL     1      10.714   1.112  24.426  0.00  0.00    +0.000 C 
ATOM      3  C   UNL     1      10.172   2.474  23.994  0.00  0.00    +0.000 C 
ATOM      4  O   UNL     1      11.169   3.209  23.375  0.00  0.00    +0.000 OA
ATOM      5  C   UNL     1       9.045   2.235  22.976  0.00  0.00    +0.000 C 
ATOM      6  C   UNL     1       8.801   0.728  22.916  0.00  0.00    +0.000 C 
ENDROOT
BRANCH   1  10
ATOM      7  C   UNL     1       8.012  -3.162  25.914  0.00  0.00    +0.000 C 
ATOM      8  N   UNL     1       7.772  -1.744  25.690  0.00  0.00    +0.000 NA
ATOM      9  C   UNL     1       8.704  -0.848  26.057  0.00  0.00    +0.000 C 
ATOM     10  N   UNL     1       8.627   0.234  25.229  0.00  0.00    +0.000 NA
ATOM     11  O   UNL     1       9.101  -0.759  27.187  0.00  0.00    +0.000 OA
ENDBRANCH   1  10
BRANCH   6  12
ATOM     12  C   UNL     1       8.905   0.187  21.555  0.00  0.00    +0.000 C 
ATOM     13  C   UNL     1       9.512  -1.229  21.605  0.00  0.00    +0.000 C 
BRANCH  12  14
ATOM     14  C   UNL     1       7.474  -0.028  21.006  0.00  0.00    +0.000 C 
ATOM     15  N   UNL     1       7.270   0.729  19.888  0.00  0.00    +0.000 NA
ATOM     16  C   UNL     1       6.957   0.068  18.638  0.00  0.00    +0.000 C 
ATOM     17  O   UNL     1       7.034  -1.168  21.051  0.00  0.00    +0.000 OA
ENDBRANCH  12  14
ENDBRANCH   6  12
TORSDOF 3
ENDMDL
MODEL 9
REMARK VINA RESULT:      -5.4      2.448      5.376
REMARK  Name = 
REMARK  3 active torsions:
REMARK  status: ('A' for Active; 'I' for Inactive)
REMARK    1  A    between atoms: N_4  and  C_5
REMARK    2  A    between atoms: C_10  and  C_11
REMARK    3  A    between atoms: C_11  and  C_14
REMARK                            x       y       z     vdW  Elec       q    Type
REMARK                         _______ _______ _______ _____ _____    ______ ____
ROOT
ATOM      1  C   UNL     1       8.255  -1.138  23.136  0.00  0.00    +0.000 C 
ATOM      2  C   UNL     1       7.287  -0.732  21.936  0.00  0.00    +0.000 C 
ATOM      3  C   UNL     1       8.207  -0.112  20.886  0.00  0.00    +0.000 C 
ATOM      4  O   UNL     1       7.630   1.034  20.364  0.00  0.00    +0.000 OA
ATOM      5  C   UNL     1       9.521   0.283  21.580  0.00  0.00    +0.000 C 
ATOM      6  C   UNL     1       9.454  -0.244  23.012  0.00  0.00    +0.000 C 
ENDROOT
BRANCH   1  10
ATOM      7  C   UNL     1       9.063  -4.216  25.658  0.00  0.00    +0.000 C 
ATOM      8  N   UNL     1       9.401  -3.701  24.339  0.00  0.00    +0.000 NA
ATOM      9  C   UNL     1       8.427  -3.510  23.433  0.00  0.00    +0.000 C 
ATOM     10  N   UNL     1       8.786  -2.485  22.607  0.00  0.00    +0.000 NA
ATOM     11  O   UNL     1       7.703  -4.396  23.069  0.00  0.00    +0.000 OA
ENDBRANCH   1  10
BRANCH   6  12
ATOM     12  C   UNL     1       9.673   0.803  24.017  0.00  0.00    +0.000 C 
ATOM     13  C   UNL     1      11.083   0.655  24.622  0.00  0.00    +0.000 C 
BRANCH  12  14
ATOM     14  C   UNL     1       9.706   2.171  23.296  0.00  0.00    +0.000 C 
ATOM     15  N   UNL     1       8.534   2.845  23.489  0.00  0.00    +0.000 NA
ATOM     16  C   UNL     1       8.563   4.129  24.158  0.00  0.00    +0.000 C 
ATOM     17  O   UNL     1      10.765   2.782  23.324  0.00  0.00    +0.000 OA
ENDBRANCH  12  14
ENDBRANCH   6  12
TORSDOF 3
ENDMDL
