MODEL 1
REMARK VINA RESULT:      -5.8      0.000      0.000
REMARK  Name = 
REMARK  5 active torsions:
REMARK  status: ('A' for Active; 'I' for Inactive)
REMARK    1  A    between atoms: C_2  and  C_3
REMARK    2  A    between atoms: C_2  and  C_12
REMARK    3  A    between atoms: C_2  and  C_20
REMARK    4  A    between atoms: C_6  and  C_8
REMARK    5  A    between atoms: C_20  and  C_21
REMARK                            x       y       z     vdW  Elec       q    Type
REMARK                         _______ _______ _______ _____ _____    ______ ____
ROOT
ATOM      1  C   UNL     1       6.808   0.202  24.171  0.00  0.00    +0.000 C 
ATOM      2  C   UNL     1       8.215  -0.315  23.727  0.00  0.00    +0.000 C 
ENDROOT
BRANCH   2   3
ATOM      3  C   UNL     1       8.528  -1.506  24.563  0.00  0.00    +0.000 C 
ATOM      4  C   UNL     1       7.027  -2.120  24.847  0.00  0.00    +0.000 C 
ATOM      5  C   UNL     1       6.318  -3.060  24.121  0.00  0.00    +0.000 C 
ATOM      6  O   UNL     1       5.053  -2.883  23.722  0.00  0.00    +0.000 OA
ATOM      7  O   UNL     1       6.892  -4.080  23.231  0.00  0.00    +0.000 OA
ATOM      8  C   UNL     1       8.129  -3.492  22.847  0.00  0.00    +0.000 C 
ATOM      9  C   UNL     1       8.966  -2.799  23.804  0.00  0.00    +0.000 C 
ATOM     10  O   UNL     1      10.276  -2.749  23.480  0.00  0.00    +0.000 OA
ENDBRANCH   2   3
BRANCH   2  11
ATOM     11  C   UNL     1       8.173  -0.629  22.252  0.00  0.00    +0.000 C 
ATOM     12  O   UNL     1       6.913  -0.349  21.702  0.00  0.00    +0.000 OA
ATOM     13  C   UNL     1       7.050   0.562  20.627  0.00  0.00    +0.000 C 
ATOM     14  C   UNL     1       8.145   1.562  21.249  0.00  0.00    +0.000 C 
ATOM     15  C   UNL     1       9.161   0.392  21.590  0.00  0.00    +0.000 C 
BRANCH  13  16
ATOM     16  C   UNL     1       7.801  -0.140  19.501  0.00  0.00    +0.000 C 
ATOM     17  O   UNL     1       7.406   0.430  18.265  0.00  0.00    +0.000 OA
ENDBRANCH  13  16
ENDBRANCH   2  11
BRANCH   2  18
ATOM     18  C   UNL     1       9.200   0.817  23.997  0.00  0.00    +0.000 C 
BRANCH  18  19
ATOM     19  C   UNL     1      10.162   0.411  25.106  0.00  0.00    +0.000 C 
ATOM     20  O   UNL     1      11.469   0.679  24.664  0.00  0.00    +0.000 OA
ENDBRANCH  18  19
ENDBRANCH   2  18
TORSDOF 5
ENDMDL
MODEL 2
REMARK VINA RESULT:      -5.8      1.356      2.202
REMARK  Name = 
REMARK  5 active torsions:
REMARK  status: ('A' for Active; 'I' for Inactive)
REMARK    1  A    between atoms: C_2  and  C_3
REMARK    2  A    between atoms: C_2  and  C_12
REMARK    3  A    between atoms: C_2  and  C_20
REMARK    4  A    between atoms: C_6  and  C_8
REMARK    5  A    between atoms: C_20  and  C_21
REMARK                            x       y       z     vdW  Elec       q    Type
REMARK                         _______ _______ _______ _____ _____    ______ ____
ROOT
ATOM      1  C   UNL     1       6.409  -0.260  24.048  0.00  0.00    +0.000 C 
ATOM      2  C   UNL     1       7.767   0.419  23.676  0.00  0.00    +0.000 C 
ENDROOT
BRANCH   2   3
ATOM      3  C   UNL     1       8.772  -0.032  24.677  0.00  0.00    +0.000 C 
ATOM      4  C   UNL     1       8.392  -1.627  24.838  0.00  0.00    +0.000 C 
ATOM      5  C   UNL     1       8.886  -2.714  24.141  0.00  0.00    +0.000 C 
ATOM      6  O   UNL     1       8.107  -3.638  23.566  0.00  0.00    +0.000 OA
ATOM      7  O   UNL     1      10.184  -2.787  23.455  0.00  0.00    +0.000 OA
ATOM      8  C   UNL     1      10.455  -1.421  23.165  0.00  0.00    +0.000 C 
ATOM      9  C   UNL     1      10.195  -0.376  24.134  0.00  0.00    +0.000 C 
ATOM     10  O   UNL     1      10.936   0.742  23.975  0.00  0.00    +0.000 OA
ENDBRANCH   2   3
BRANCH   2  11
ATOM     11  C   UNL     1       8.132   0.034  22.264  0.00  0.00    +0.000 C 
ATOM     12  O   UNL     1       7.111  -0.712  21.654  0.00  0.00    +0.000 OA
ATOM     13  C   UNL     1       6.701  -0.076  20.458  0.00  0.00    +0.000 C 
ATOM     14  C   UNL     1       6.705   1.458  20.944  0.00  0.00    +0.000 C 
ATOM     15  C   UNL     1       8.198   1.386  21.476  0.00  0.00    +0.000 C 
BRANCH  13  16
ATOM     16  C   UNL     1       7.855  -0.141  19.464  0.00  0.00    +0.000 C 
ATOM     17  O   UNL     1       7.399   0.322  18.205  0.00  0.00    +0.000 OA
ENDBRANCH  13  16
ENDBRANCH   2  11
BRANCH   2  18
ATOM     18  C   UNL     1       7.541   1.924  23.769  0.00  0.00    +0.000 C 
BRANCH  18  19
ATOM     19  C   UNL     1       8.088   2.448  25.090  0.00  0.00    +0.000 C 
ATOM     20  O   UNL     1       8.954   3.518  24.805  0.00  0.00    +0.000 OA
ENDBRANCH  18  19
ENDBRANCH   2  18
TORSDOF 5
ENDMDL
MODEL 3
REMARK VINA RESULT:      -5.8      1.601      4.299
REMARK  Name = 
REMARK  5 active torsions:
REMARK  status: ('A' for Active; 'I' for Inactive)
REMARK    1  A    between atoms: C_2  and  C_3
REMARK    2  A    between atoms: C_2  and  C_12
REMARK    3  A    between atoms: C_2  and  C_20
REMARK    4  A    between atoms: C_6  and  C_8
REMARK    5  A    between atoms: C_20  and  C_21
REMARK                            x       y       z     vdW  Elec       q    Type
REMARK                         _______ _______ _______ _____ _____    ______ ____
ROOT
ATOM      1  C   UNL     1      10.114  -1.564  22.442  0.00  0.00    +0.000 C 
ATOM      2  C   UNL     1       8.891  -0.590  22.472  0.00  0.00    +0.000 C 
ENDROOT
BRANCH   2   3
ATOM      3  C   UNL     1       9.148   0.467  21.457  0.00  0.00    +0.000 C 
ATOM      4  C   UNL     1       8.221  -0.047  20.196  0.00  0.00    +0.000 C 
ATOM      5  C   UNL     1       6.906   0.261  19.900  0.00  0.00    +0.000 C 
ATOM      6  O   UNL     1       5.974  -0.661  19.630  0.00  0.00    +0.000 OA
ATOM      7  O   UNL     1       6.180   1.466  20.330  0.00  0.00    +0.000 OA
ATOM      8  C   UNL     1       6.875   1.836  21.515  0.00  0.00    +0.000 C 
ATOM      9  C   UNL     1       8.320   1.784  21.592  0.00  0.00    +0.000 C 
ATOM     10  O   UNL     1       8.868   2.609  22.510  0.00  0.00    +0.000 OA
ENDBRANCH   2   3
BRANCH   2  11
ATOM     11  C   UNL     1       7.636  -1.378  22.194  0.00  0.00    +0.000 C 
ATOM     12  O   UNL     1       7.898  -2.754  22.116  0.00  0.00    +0.000 OA
ATOM     13  C   UNL     1       7.097  -3.450  23.052  0.00  0.00    +0.000 C 
ATOM     14  C   UNL     1       7.208  -2.452  24.309  0.00  0.00    +0.000 C 
ATOM     15  C   UNL     1       6.744  -1.188  23.468  0.00  0.00    +0.000 C 
BRANCH  13  16
ATOM     16  C   UNL     1       5.641  -3.323  22.620  0.00  0.00    +0.000 C 
ATOM     17  O   UNL     1       5.461  -4.034  21.407  0.00  0.00    +0.000 OA
ENDBRANCH  13  16
ENDBRANCH   2  11
BRANCH   2  18
ATOM     18  C   UNL     1       8.842   0.001  23.877  0.00  0.00    +0.000 C 
BRANCH  18  19
ATOM     19  C   UNL     1      10.176  -0.218  24.577  0.00  0.00    +0.000 C 
ATOM     20  O   UNL     1      10.854   1.013  24.610  0.00  0.00    +0.000 OA
ENDBRANCH  18  19
ENDBRANCH   2  18
TORSDOF 5
ENDMDL
MODEL 4
REMARK VINA RESULT:      -5.6      2.388      4.662
REMARK  Name = 
REMARK  5 active torsions:
REMARK  status: ('A' for Active; 'I' for Inactive)
REMARK    1  A    between atoms: C_2  and  C_3
REMARK    2  A    between atoms: C_2  and  C_12
REMARK    3  A    between atoms: C_2  and  C_20
REMARK    4  A    between atoms: C_6  and  C_8
REMARK    5  A    between atoms: C_20  and  C_21
REMARK                            x       y       z     vdW  Elec       q    Type
REMARK                         _______ _______ _______ _____ _____    ______ ____
ROOT
ATOM      1  C   UNL     1       9.740   1.550  21.731  0.00  0.00    +0.000 C 
ATOM      2  C   UNL     1       8.342   0.892  21.966  0.00  0.00    +0.000 C 
ENDROOT
BRANCH   2   3
ATOM      3  C   UNL     1       8.577  -0.551  22.243  0.00  0.00    +0.000 C 
ATOM      4  C   UNL     1       9.984  -0.503  23.100  0.00  0.00    +0.000 C 
ATOM      5  C   UNL     1      10.167  -0.411  24.467  0.00  0.00    +0.000 C 
ATOM      6  O   UNL     1      10.978   0.484  25.044  0.00  0.00    +0.000 OA
ATOM      7  O   UNL     1       9.204  -0.821  25.500  0.00  0.00    +0.000 OA
ATOM      8  C   UNL     1       7.960  -0.716  24.819  0.00  0.00    +0.000 C 
ATOM      9  C   UNL     1       7.805  -1.168  23.452  0.00  0.00    +0.000 C 
ATOM     10  O   UNL     1       6.543  -1.496  23.103  0.00  0.00    +0.000 OA
ENDBRANCH   2   3
BRANCH   2  11
ATOM     11  C   UNL     1       7.656   1.603  23.106  0.00  0.00    +0.000 C 
ATOM     12  O   UNL     1       8.466   2.616  23.642  0.00  0.00    +0.000 OA
ATOM     13  C   UNL     1       7.781   3.854  23.593  0.00  0.00    +0.000 C 
ATOM     14  C   UNL     1       7.105   3.740  22.138  0.00  0.00    +0.000 C 
ATOM     15  C   UNL     1       6.435   2.337  22.453  0.00  0.00    +0.000 C 
BRANCH  13  16
ATOM     16  C   UNL     1       6.595   3.781  24.548  0.00  0.00    +0.000 C 
ATOM     17  O   UNL     1       6.073   5.086  24.728  0.00  0.00    +0.000 OA
ENDBRANCH  13  16
ENDBRANCH   2  11
BRANCH   2  18
ATOM     18  C   UNL     1       7.551   1.079  20.676  0.00  0.00    +0.000 C 
BRANCH  18  19
ATOM     19  C   UNL     1       7.839  -0.072  19.722  0.00  0.00    +0.000 C 
ATOM     20  O   UNL     1       7.512   0.353  18.422  0.00  0.00    +0.000 OA
ENDBRANCH  18  19
ENDBRANCH   2  18
TORSDOF 5
ENDMDL
MODEL 5
REMARK VINA RESULT:      -5.5      2.118      5.664
REMARK  Name = 
REMARK  5 active torsions:
REMARK  status: ('A' for Active; 'I' for Inactive)
REMARK    1  A    between atoms: C_2  and  C_3
REMARK    2  A    between atoms: C_2  and  C_12
REMARK    3  A    between atoms: C_2  and  C_20
REMARK    4  A    between atoms: C_6  and  C_8
REMARK    5  A    between atoms: C_20  and  C_21
REMARK                            x       y       z     vdW  Elec       q    Type
REMARK                         _______ _______ _______ _____ _____    ______ ____
ROOT
ATOM      1  C   UNL     1       7.422  -0.746  23.814  0.00  0.00    +0.000 C 
ATOM      2  C   UNL     1       8.221  -2.089  23.739  0.00  0.00    +0.000 C 
ENDROOT
BRANCH   2   3
ATOM      3  C   UNL     1       9.628  -1.743  23.400  0.00  0.00    +0.000 C 
ATOM      4  C   UNL     1       9.517  -1.434  21.786  0.00  0.00    +0.000 C 
ATOM      5  C   UNL     1       9.274  -0.233  21.145  0.00  0.00    +0.000 C 
ATOM      6  O   UNL     1       8.340  -0.077  20.199  0.00  0.00    +0.000 OA
ATOM      7  O   UNL     1       9.538   1.108  21.687  0.00  0.00    +0.000 OA
ATOM      8  C   UNL     1       9.480   0.889  23.091  0.00  0.00    +0.000 C 
ATOM      9  C   UNL     1      10.082  -0.280  23.699  0.00  0.00    +0.000 C 
ATOM     10  O   UNL     1      10.416  -0.133  25.000  0.00  0.00    +0.000 OA
ENDBRANCH   2   3
BRANCH   2  11
ATOM     11  C   UNL     1       8.094  -2.802  25.062  0.00  0.00    +0.000 C 
ATOM     12  O   UNL     1       6.922  -3.571  25.123  0.00  0.00    +0.000 OA
ATOM     13  C   UNL     1       7.245  -4.919  25.405  0.00  0.00    +0.000 C 
ATOM     14  C   UNL     1       8.543  -5.094  24.470  0.00  0.00    +0.000 C 
ATOM     15  C   UNL     1       9.277  -3.829  25.086  0.00  0.00    +0.000 C 
BRANCH  13  16
ATOM     16  C   UNL     1       7.810  -4.988  26.819  0.00  0.00    +0.000 C 
ATOM     17  O   UNL     1       7.255  -6.114  27.477  0.00  0.00    +0.000 OA
ENDBRANCH  13  16
ENDBRANCH   2  11
BRANCH   2  18
ATOM     18  C   UNL     1       7.578  -2.916  22.632  0.00  0.00    +0.000 C 
BRANCH  18  19
ATOM     19  C   UNL     1       6.239  -2.304  22.240  0.00  0.00    +0.000 C 
ATOM     20  O   UNL     1       5.511  -3.276  21.533  0.00  0.00    +0.000 OA
ENDBRANCH  18  19
ENDBRANCH   2  18
TORSDOF 5
ENDMDL
MODEL 6
REMARK VINA RESULT:      -5.5      1.637      4.855
REMARK  Name = 
REMARK  5 active torsions:
REMARK  status: ('A' for Active; 'I' for Inactive)
REMARK    1  A    between atoms: C_2  and  C_3
REMARK    2  A    between atoms: C_2  and  C_12
REMARK    3  A    between atoms: C_2  and  C_20
REMARK    4  A    between atoms: C_6  and  C_8
REMARK    5  A    between atoms: C_20  and  C_21
REMARK                            x       y       z     vdW  Elec       q    Type
REMARK                         _______ _______ _______ _____ _____    ______ ____
ROOT
ATOM      1  C   UNL     1       7.456  -0.993  23.724  0.00  0.00    +0.000 C 
ATOM      2  C   UNL     1       7.617  -1.398  22.222  0.00  0.00    +0.000 C 
ENDROOT
BRANCH   2   3
ATOM      3  C   UNL     1       9.061  -1.679  21.997  0.00  0.00    +0.000 C 
ATOM      4  C   UNL     1       9.634  -0.188  21.593  0.00  0.00    +0.000 C 
ATOM      5  C   UNL     1      10.154   0.796  22.414  0.00  0.00    +0.000 C 
ATOM      6  O   UNL     1       9.747   2.070  22.387  0.00  0.00    +0.000 OA
ATOM      7  O   UNL     1      10.771   0.588  23.733  0.00  0.00    +0.000 OA
ATOM      8  C   UNL     1      10.163  -0.623  24.168  0.00  0.00    +0.000 C 
ATOM      9  C   UNL     1       9.969  -1.739  23.265  0.00  0.00    +0.000 C 
ATOM     10  O   UNL     1       9.884  -2.945  23.866  0.00  0.00    +0.000 OA
ENDBRANCH   2   3
BRANCH   2  11
ATOM     11  C   UNL     1       6.737  -2.591  21.945  0.00  0.00    +0.000 C 
ATOM     12  O   UNL     1       7.479  -3.781  21.907  0.00  0.00    +0.000 OA
ATOM     13  C   UNL     1       6.959  -4.702  22.848  0.00  0.00    +0.000 C 
ATOM     14  C   UNL     1       6.673  -3.707  24.079  0.00  0.00    +0.000 C 
ATOM     15  C   UNL     1       5.806  -2.711  23.199  0.00  0.00    +0.000 C 
BRANCH  13  16
ATOM     16  C   UNL     1       5.566  -5.116  22.389  0.00  0.00    +0.000 C 
ATOM     17  O   UNL     1       5.677  -5.793  21.149  0.00  0.00    +0.000 OA
ENDBRANCH  13  16
ENDBRANCH   2  11
BRANCH   2  18
ATOM     18  C   UNL     1       7.158  -0.201  21.397  0.00  0.00    +0.000 C 
BRANCH  18  19
ATOM     19  C   UNL     1       6.490  -0.683  20.116  0.00  0.00    +0.000 C 
ATOM     20  O   UNL     1       7.178  -0.116  19.030  0.00  0.00    +0.000 OA
ENDBRANCH  18  19
ENDBRANCH   2  18
TORSDOF 5
ENDMDL
MODEL 7
REMARK VINA RESULT:      -5.4      2.069      5.286
REMARK  Name = 
REMARK  5 active torsions:
REMARK  status: ('A' for Active; 'I' for Inactive)
REMARK    1  A    between atoms: C_2  and  C_3
REMARK    2  A    between atoms: C_2  and  C_12
REMARK    3  A    between atoms: C_2  and  C_20
REMARK    4  A    between atoms: C_6  and  C_8
REMARK    5  A    between atoms: C_20  and  C_21
REMARK                            x       y       z     vdW  Elec       q    Type
REMARK                         _______ _______ _______ _____ _____    ______ ____
ROOT
ATOM      1  C   UNL     1       8.610  -0.448  24.266  0.00  0.00    +0.000 C 
ATOM      2  C   UNL     1       7.894  -1.797  23.933  0.00  0.00    +0.000 C 
ENDROOT
BRANCH   2   3
ATOM      3  C   UNL     1       8.376  -2.230  22.593  0.00  0.00    +0.000 C 
ATOM      4  C   UNL     1       7.350  -1.420  21.590  0.00  0.00    +0.000 C 
ATOM      5  C   UNL     1       7.497  -0.168  21.023  0.00  0.00    +0.000 C 
ATOM      6  O   UNL     1       6.557   0.783  21.079  0.00  0.00    +0.000 OA
ATOM      7  O   UNL     1       8.769   0.526  20.770  0.00  0.00    +0.000 OA
ATOM      8  C   UNL     1       9.632  -0.053  21.741  0.00  0.00    +0.000 C 
ATOM      9  C   UNL     1       9.614  -1.475  22.017  0.00  0.00    +0.000 C 
ATOM     10  O   UNL     1      10.763  -1.967  22.529  0.00  0.00    +0.000 OA
ENDBRANCH   2   3
BRANCH   2  11
ATOM     11  C   UNL     1       8.209  -2.795  25.020  0.00  0.00    +0.000 C 
ATOM     12  O   UNL     1       7.070  -3.104  25.780  0.00  0.00    +0.000 OA
ATOM     13  C   UNL     1       6.842  -4.501  25.756  0.00  0.00    +0.000 C 
ATOM     14  C   UNL     1       7.161  -4.807  24.209  0.00  0.00    +0.000 C 
ATOM     15  C   UNL     1       8.587  -4.114  24.266  0.00  0.00    +0.000 C 
BRANCH  13  16
ATOM     16  C   UNL     1       7.984  -5.183  26.500  0.00  0.00    +0.000 C 
ATOM     17  O   UNL     1       7.471  -5.773  27.682  0.00  0.00    +0.000 OA
ENDBRANCH  13  16
ENDBRANCH   2  11
BRANCH   2  18
ATOM     18  C   UNL     1       6.399  -1.501  23.907  0.00  0.00    +0.000 C 
BRANCH  18  19
ATOM     19  C   UNL     1       6.127  -0.155  24.567  0.00  0.00    +0.000 C 
ATOM     20  O   UNL     1       4.970  -0.286  25.354  0.00  0.00    +0.000 OA
ENDBRANCH  18  19
ENDBRANCH   2  18
TORSDOF 5
ENDMDL
MODEL 8
REMARK VINA RESULT:      -5.4      2.341      5.138
REMARK  Name = 
REMARK  5 active torsions:
REMARK  status: ('A' for Active; 'I' for Inactive)
REMARK    1  A    between atoms: C_2  and  C_3
REMARK    2  A    between atoms: C_2  and  C_12
REMARK    3  A    between atoms: C_2  and  C_20
REMARK    4  A    between atoms: C_6  and  C_8
REMARK    5  A    between atoms: C_20  and  C_21
REMARK                            x       y       z     vdW  Elec       q    Type
REMARK                         _______ _______ _______ _____ _____    ______ ____
ROOT
ATOM      1  C   UNL     1       9.198  -4.277  24.912  0.00  0.00    +0.000 C 
ATOM      2  C   UNL     1       7.847  -3.490  24.917  0.00  0.00    +0.000 C 
ENDROOT
BRANCH   2   3
ATOM      3  C   UNL     1       8.157  -2.088  25.309  0.00  0.00    +0.000 C 
ATOM      4  C   UNL     1       9.558  -1.812  24.486  0.00  0.00    +0.000 C 
ATOM      5  C   UNL     1       9.734  -1.290  23.218  0.00  0.00    +0.000 C 
ATOM      6  O   UNL     1      10.496  -1.867  22.281  0.00  0.00    +0.000 OA
ATOM      7  O   UNL     1       8.792  -0.416  22.502  0.00  0.00    +0.000 OA
ATOM      8  C   UNL     1       7.545  -0.759  23.094  0.00  0.00    +0.000 C 
ATOM      9  C   UNL     1       7.416  -0.961  24.523  0.00  0.00    +0.000 C 
ATOM     10  O   UNL     1       6.173  -0.766  25.013  0.00  0.00    +0.000 OA
ENDBRANCH   2   3
BRANCH   2  11
ATOM     11  C   UNL     1       7.223  -3.591  23.547  0.00  0.00    +0.000 C 
ATOM     12  O   UNL     1       7.899  -4.519  22.740  0.00  0.00    +0.000 OA
ATOM     13  C   UNL     1       6.994  -5.505  22.281  0.00  0.00    +0.000 C 
ATOM     14  C   UNL     1       6.137  -5.741  23.621  0.00  0.00    +0.000 C 
ATOM     15  C   UNL     1       5.800  -4.200  23.792  0.00  0.00    +0.000 C 
BRANCH  13  16
ATOM     16  C   UNL     1       6.004  -4.839  21.333  0.00  0.00    +0.000 C 
ATOM     17  O   UNL     1       5.991  -5.555  20.110  0.00  0.00    +0.000 OA
ENDBRANCH  13  16
ENDBRANCH   2  11
BRANCH   2  18
ATOM     18  C   UNL     1       6.955  -4.163  25.953  0.00  0.00    +0.000 C 
BRANCH  18  19
ATOM     19  C   UNL     1       7.791  -5.078  26.838  0.00  0.00    +0.000 C 
ATOM     20  O   UNL     1       7.077  -5.299  28.028  0.00  0.00    +0.000 OA
ENDBRANCH  18  19
ENDBRANCH   2  18
TORSDOF 5
ENDMDL
MODEL 9
REMARK VINA RESULT:      -5.4      2.231      4.752
REMARK  Name = 
REMARK  5 active torsions:
REMARK  status: ('A' for Active; 'I' for Inactive)
REMARK    1  A    between atoms: C_2  and  C_3
REMARK    2  A    between atoms: C_2  and  C_12
REMARK    3  A    between atoms: C_2  and  C_20
REMARK    4  A    between atoms: C_6  and  C_8
REMARK    5  A    between atoms: C_20  and  C_21
REMARK                            x       y       z     vdW  Elec       q    Type
REMARK                         _______ _______ _______ _____ _____    ______ ____
ROOT
ATOM      1  C   UNL     1       7.246  -4.788  22.660  0.00  0.00    +0.000 C 
ATOM      2  C   UNL     1       6.614  -3.743  23.637  0.00  0.00    +0.000 C 
ENDROOT
BRANCH   2   3
ATOM      3  C   UNL     1       6.433  -4.422  24.949  0.00  0.00    +0.000 C 
ATOM      4  C   UNL     1       7.828  -5.289  25.073  0.00  0.00    +0.000 C 
ATOM      5  C   UNL     1       9.031  -4.925  25.648  0.00  0.00    +0.000 C 
ATOM      6  O   UNL     1      10.212  -5.048  25.031  0.00  0.00    +0.000 OA
ATOM      7  O   UNL     1       9.218  -3.910  26.696  0.00  0.00    +0.000 OA
ATOM      8  C   UNL     1       8.098  -3.056  26.500  0.00  0.00    +0.000 C 
ATOM      9  C   UNL     1       6.780  -3.589  26.223  0.00  0.00    +0.000 C 
ATOM     10  O   UNL     1       5.757  -2.776  26.563  0.00  0.00    +0.000 OA
ENDBRANCH   2   3
BRANCH   2  11
ATOM     11  C   UNL     1       7.524  -2.543  23.719  0.00  0.00    +0.000 C 
ATOM     12  O   UNL     1       8.637  -2.682  22.875  0.00  0.00    +0.000 OA
ATOM     13  C   UNL     1       8.699  -1.589  21.978  0.00  0.00    +0.000 C 
ATOM     14  C   UNL     1       7.140  -1.445  21.609  0.00  0.00    +0.000 C 
ATOM     15  C   UNL     1       6.689  -1.356  23.128  0.00  0.00    +0.000 C 
BRANCH  13  16
ATOM     16  C   UNL     1       8.996  -0.329  22.782  0.00  0.00    +0.000 C 
ATOM     17  O   UNL     1       9.665   0.599  21.945  0.00  0.00    +0.000 OA
ENDBRANCH  13  16
ENDBRANCH   2  11
BRANCH   2  18
ATOM     18  C   UNL     1       5.270  -3.344  23.037  0.00  0.00    +0.000 C 
BRANCH  18  19
ATOM     19  C   UNL     1       4.155  -4.157  23.681  0.00  0.00    +0.000 C 
ATOM     20  O   UNL     1       3.694  -5.086  22.733  0.00  0.00    +0.000 OA
ENDBRANCH  18  19
ENDBRANCH   2  18
TORSDOF 5
ENDMDL
