MODEL 1
REMARK VINA RESULT:      -7.4      0.000      0.000
REMARK  Name = 
REMARK  5 active torsions:
REMARK  status: ('A' for Active; 'I' for Inactive)
REMARK    1  A    between atoms: N_3  and  C_4
REMARK    2  A    between atoms: C_7  and  C_9
REMARK    3  A    between atoms: C_19  and  N_24
REMARK    4  A    between atoms: N_24  and  C_25
REMARK    5  A    between atoms: C_25  and  S_26
REMARK                            x       y       z     vdW  Elec       q    Type
REMARK                         _______ _______ _______ _____ _____    ______ ____
ROOT
ATOM      1  C   UNL     1       9.819  -2.531  24.409  0.00  0.00    +0.000 C 
ATOM      2  C   UNL     1       8.738  -1.730  23.696  0.00  0.00    +0.000 C 
ATOM      3  N   UNL     1       8.914  -0.378  23.528  0.00  0.00    +0.000 N 
ATOM      4  C   UNL     1       9.095   0.217  24.936  0.00  0.00    +0.000 C 
ATOM      5  C   UNL     1       7.684   0.128  25.522  0.00  0.00    +0.000 C 
ATOM      6  C   UNL     1       7.054  -1.211  25.382  0.00  0.00    +0.000 C 
ATOM      7  N   UNL     1       7.530  -1.947  24.233  0.00  0.00    +0.000 N 
ATOM      8  C   UNL     1       6.840  -3.145  23.932  0.00  0.00    +0.000 C 
ATOM      9  C   UNL     1       5.708  -3.506  24.599  0.00  0.00    +0.000 C 
ATOM     10  C   UNL     1       4.861  -2.417  25.361  0.00  0.00    +0.000 C 
ATOM     11  C   UNL     1       5.534  -1.088  25.252  0.00  0.00    +0.000 C 
ATOM     12  C   UNL     1       5.534  -4.839  25.477  0.00  0.00    +0.000 C 
ENDROOT
BRANCH   3  13
ATOM     13  C   UNL     1       7.914   0.079  22.698  0.00  0.00    +0.000 C 
ATOM     14  O   UNL     1       7.439   1.208  21.444  0.00  0.00    +0.000 OA
ATOM     15  C   UNL     1       8.102   0.879  20.448  0.00  0.00    +0.000 C 
ATOM     16  C   UNL     1       8.935  -0.027  21.163  0.00  0.00    +0.000 C 
ATOM     17  C   UNL     1       7.936   1.363  22.789  0.00  0.00    +0.000 C 
BRANCH  15  18
ATOM     18  C   UNL     1       7.257   0.257  19.371  0.00  0.00    +0.000 C 
ATOM     19  N   UNL     1       5.917   0.242  19.529  0.00  0.00    +0.000 NA
ATOM     20  C   UNL     1       5.123   1.337  19.004  0.00  0.00    +0.000 C 
ATOM     21  O   UNL     1       7.758  -0.134  18.333  0.00  0.00    +0.000 OA
ENDBRANCH  15  18
ENDBRANCH   3  13
BRANCH   8  22
ATOM     22  N   UNL     1       7.187  -3.308  22.558  0.00  0.00    +0.000 NA
BRANCH  22  23
ATOM     23  C   UNL     1       6.037  -3.634  21.726  0.00  0.00    +0.000 C 
BRANCH  23  24
ATOM     24  S   UNL     1       5.980  -5.384  21.436  0.00  0.00    +0.000 S 
ATOM     25  O   UNL     1       5.969  -5.597  20.015  0.00  0.00    +0.000 OA
ATOM     26  O   UNL     1       4.831  -5.891  22.147  0.00  0.00    +0.000 OA
ATOM     27  N   UNL     1       7.328  -6.089  22.065  0.00  0.00    +0.000 NA
ENDBRANCH  23  24
ENDBRANCH  22  23
ENDBRANCH   8  22
TORSDOF 5
ENDMDL
MODEL 2
REMARK VINA RESULT:      -7.0      1.441      1.661
REMARK  Name = 
REMARK  5 active torsions:
REMARK  status: ('A' for Active; 'I' for Inactive)
REMARK    1  A    between atoms: N_3  and  C_4
REMARK    2  A    between atoms: C_7  and  C_9
REMARK    3  A    between atoms: C_19  and  N_24
REMARK    4  A    between atoms: N_24  and  C_25
REMARK    5  A    between atoms: C_25  and  S_26
REMARK                            x       y       z     vdW  Elec       q    Type
REMARK                         _______ _______ _______ _____ _____    ______ ____
ROOT
ATOM      1  C   UNL     1      10.100  -2.748  23.893  0.00  0.00    +0.000 C 
ATOM      2  C   UNL     1       9.150  -1.645  23.447  0.00  0.00    +0.000 C 
ATOM      3  N   UNL     1       9.674  -0.478  22.946  0.00  0.00    +0.000 N 
ATOM      4  C   UNL     1      10.587   0.097  24.044  0.00  0.00    +0.000 C 
ATOM      5  C   UNL     1       9.584   0.594  25.088  0.00  0.00    +0.000 C 
ATOM      6  C   UNL     1       8.553  -0.408  25.462  0.00  0.00    +0.000 C 
ATOM      7  N   UNL     1       8.259  -1.346  24.402  0.00  0.00    +0.000 N 
ATOM      8  C   UNL     1       7.157  -2.207  24.620  0.00  0.00    +0.000 C 
ATOM      9  C   UNL     1       6.337  -2.061  25.698  0.00  0.00    +0.000 C 
ATOM     10  C   UNL     1       6.273  -0.681  26.458  0.00  0.00    +0.000 C 
ATOM     11  C   UNL     1       7.238   0.279  25.844  0.00  0.00    +0.000 C 
ATOM     12  C   UNL     1       6.105  -3.162  26.843  0.00  0.00    +0.000 C 
ENDROOT
BRANCH   3  13
ATOM     13  C   UNL     1       8.633   0.269  22.438  0.00  0.00    +0.000 C 
ATOM     14  O   UNL     1       8.034   1.258  21.120  0.00  0.00    +0.000 OA
ATOM     15  C   UNL     1       7.936   0.483  20.156  0.00  0.00    +0.000 C 
ATOM     16  C   UNL     1       8.625  -0.584  20.799  0.00  0.00    +0.000 C 
ATOM     17  C   UNL     1       9.158   1.368  22.018  0.00  0.00    +0.000 C 
BRANCH  15  18
ATOM     18  C   UNL     1       6.507   0.192  19.792  0.00  0.00    +0.000 C 
ATOM     19  N   UNL     1       5.773   1.171  19.223  0.00  0.00    +0.000 NA
ATOM     20  C   UNL     1       5.731   1.284  17.777  0.00  0.00    +0.000 C 
ATOM     21  O   UNL     1       6.047  -0.929  19.912  0.00  0.00    +0.000 OA
ENDBRANCH  15  18
ENDBRANCH   3  13
BRANCH   8  22
ATOM     22  N   UNL     1       6.851  -2.584  23.279  0.00  0.00    +0.000 NA
BRANCH  22  23
ATOM     23  C   UNL     1       5.445  -2.921  23.100  0.00  0.00    +0.000 C 
BRANCH  23  24
ATOM     24  S   UNL     1       5.286  -4.644  22.704  0.00  0.00    +0.000 S 
ATOM     25  O   UNL     1       3.887  -4.973  22.714  0.00  0.00    +0.000 OA
ATOM     26  O   UNL     1       6.100  -5.370  23.650  0.00  0.00    +0.000 OA
ATOM     27  N   UNL     1       5.882  -4.917  21.195  0.00  0.00    +0.000 NA
ENDBRANCH  23  24
ENDBRANCH  22  23
ENDBRANCH   8  22
TORSDOF 5
ENDMDL
MODEL 3
REMARK VINA RESULT:      -6.9      2.706      3.759
REMARK  Name = 
REMARK  5 active torsions:
REMARK  status: ('A' for Active; 'I' for Inactive)
REMARK    1  A    between atoms: N_3  and  C_4
REMARK    2  A    between atoms: C_7  and  C_9
REMARK    3  A    between atoms: C_19  and  N_24
REMARK    4  A    between atoms: N_24  and  C_25
REMARK    5  A    between atoms: C_25  and  S_26
REMARK                            x       y       z     vdW  Elec       q    Type
REMARK                         _______ _______ _______ _____ _____    ______ ____
ROOT
ATOM      1  C   UNL     1      10.133  -1.591  22.264  0.00  0.00    +0.000 C 
ATOM      2  C   UNL     1       9.051  -0.624  22.728  0.00  0.00    +0.000 C 
ATOM      3  N   UNL     1       9.373   0.340  23.652  0.00  0.00    +0.000 N 
ATOM      4  C   UNL     1       9.908  -0.403  24.890  0.00  0.00    +0.000 C 
ATOM      5  C   UNL     1       8.642  -1.029  25.478  0.00  0.00    +0.000 C 
ATOM      6  C   UNL     1       7.821  -1.776  24.490  0.00  0.00    +0.000 C 
ATOM      7  N   UNL     1       7.955  -1.274  23.142  0.00  0.00    +0.000 N 
ATOM      8  C   UNL     1       7.063  -1.812  22.184  0.00  0.00    +0.000 C 
ATOM      9  C   UNL     1       6.046  -2.646  22.543  0.00  0.00    +0.000 C 
ATOM     10  C   UNL     1       5.523  -2.656  24.030  0.00  0.00    +0.000 C 
ATOM     11  C   UNL     1       6.335  -1.715  24.857  0.00  0.00    +0.000 C 
ATOM     12  C   UNL     1       5.869  -4.161  22.043  0.00  0.00    +0.000 C 
ENDROOT
BRANCH   3  13
ATOM     13  C   UNL     1       8.300   1.198  23.759  0.00  0.00    +0.000 C 
ATOM     14  O   UNL     1       7.740   2.822  24.108  0.00  0.00    +0.000 OA
ATOM     15  C   UNL     1       8.196   3.522  23.192  0.00  0.00    +0.000 C 
ATOM     16  C   UNL     1       9.042   2.499  22.679  0.00  0.00    +0.000 C 
ATOM     17  C   UNL     1       8.462   1.832  24.869  0.00  0.00    +0.000 C 
BRANCH  15  18
ATOM     18  C   UNL     1       7.130   4.004  22.246  0.00  0.00    +0.000 C 
ATOM     19  N   UNL     1       6.114   3.170  21.940  0.00  0.00    +0.000 NA
ATOM     20  C   UNL     1       4.902   3.198  22.736  0.00  0.00    +0.000 C 
ATOM     21  O   UNL     1       7.125   5.152  21.844  0.00  0.00    +0.000 OA
ENDBRANCH  15  18
ENDBRANCH   3  13
BRANCH   8  22
ATOM     22  N   UNL     1       7.106  -0.795  21.185  0.00  0.00    +0.000 NA
BRANCH  22  23
ATOM     23  C   UNL     1       5.988  -0.876  20.256  0.00  0.00    +0.000 C 
BRANCH  23  24
ATOM     24  S   UNL     1       6.449  -0.169  18.695  0.00  0.00    +0.000 S 
ATOM     25  O   UNL     1       6.019  -1.066  17.658  0.00  0.00    +0.000 OA
ATOM     26  O   UNL     1       7.870   0.079  18.750  0.00  0.00    +0.000 OA
ATOM     27  N   UNL     1       5.682   1.273  18.498  0.00  0.00    +0.000 NA
ENDBRANCH  23  24
ENDBRANCH  22  23
ENDBRANCH   8  22
TORSDOF 5
ENDMDL
MODEL 4
REMARK VINA RESULT:      -6.6      2.926      5.270
REMARK  Name = 
REMARK  5 active torsions:
REMARK  status: ('A' for Active; 'I' for Inactive)
REMARK    1  A    between atoms: N_3  and  C_4
REMARK    2  A    between atoms: C_7  and  C_9
REMARK    3  A    between atoms: C_19  and  N_24
REMARK    4  A    between atoms: N_24  and  C_25
REMARK    5  A    between atoms: C_25  and  S_26
REMARK                            x       y       z     vdW  Elec       q    Type
REMARK                         _______ _______ _______ _____ _____    ______ ____
ROOT
ATOM      1  C   UNL     1       9.808  -2.484  23.810  0.00  0.00    +0.000 C 
ATOM      2  C   UNL     1       8.306  -2.709  23.701  0.00  0.00    +0.000 C 
ATOM      3  N   UNL     1       7.740  -2.824  22.455  0.00  0.00    +0.000 N 
ATOM      4  C   UNL     1       8.080  -1.526  21.700  0.00  0.00    +0.000 C 
ATOM      5  C   UNL     1       7.186  -0.493  22.389  0.00  0.00    +0.000 C 
ATOM      6  C   UNL     1       7.275  -0.507  23.871  0.00  0.00    +0.000 C 
ATOM      7  N   UNL     1       7.620  -1.803  24.409  0.00  0.00    +0.000 N 
ATOM      8  C   UNL     1       7.538  -1.936  25.816  0.00  0.00    +0.000 C 
ATOM      9  C   UNL     1       7.026  -0.945  26.599  0.00  0.00    +0.000 C 
ATOM     10  C   UNL     1       6.078   0.147  25.971  0.00  0.00    +0.000 C 
ATOM     11  C   UNL     1       5.944  -0.087  24.502  0.00  0.00    +0.000 C 
ATOM     12  C   UNL     1       7.828  -0.168  27.752  0.00  0.00    +0.000 C 
ENDROOT
BRANCH   3  13
ATOM     13  C   UNL     1       6.429  -3.214  22.621  0.00  0.00    +0.000 C 
ATOM     14  O   UNL     1       5.112  -4.231  22.070  0.00  0.00    +0.000 OA
ATOM     15  C   UNL     1       5.478  -5.391  22.315  0.00  0.00    +0.000 C 
ATOM     16  C   UNL     1       6.813  -5.020  22.642  0.00  0.00    +0.000 C 
ATOM     17  C   UNL     1       5.903  -3.199  21.445  0.00  0.00    +0.000 C 
BRANCH  15  18
ATOM     18  C   UNL     1       4.697  -6.018  23.436  0.00  0.00    +0.000 C 
ATOM     19  N   UNL     1       3.679  -5.322  23.984  0.00  0.00    +0.000 NA
ATOM     20  C   UNL     1       2.338  -5.480  23.454  0.00  0.00    +0.000 C 
ATOM     21  O   UNL     1       4.908  -7.168  23.778  0.00  0.00    +0.000 OA
ENDBRANCH  15  18
ENDBRANCH   3  13
BRANCH   8  22
ATOM     22  N   UNL     1       7.426  -3.353  25.938  0.00  0.00    +0.000 NA
BRANCH  22  23
ATOM     23  C   UNL     1       6.195  -3.761  26.601  0.00  0.00    +0.000 C 
BRANCH  23  24
ATOM     24  S   UNL     1       6.480  -5.238  27.543  0.00  0.00    +0.000 S 
ATOM     25  O   UNL     1       6.057  -4.990  28.894  0.00  0.00    +0.000 OA
ATOM     26  O   UNL     1       7.875  -5.576  27.384  0.00  0.00    +0.000 OA
ATOM     27  N   UNL     1       5.578  -6.467  26.924  0.00  0.00    +0.000 NA
ENDBRANCH  23  24
ENDBRANCH  22  23
ENDBRANCH   8  22
TORSDOF 5
ENDMDL
MODEL 5
REMARK VINA RESULT:      -6.3      2.582      3.731
REMARK  Name = 
REMARK  5 active torsions:
REMARK  status: ('A' for Active; 'I' for Inactive)
REMARK    1  A    between atoms: N_3  and  C_4
REMARK    2  A    between atoms: C_7  and  C_9
REMARK    3  A    between atoms: C_19  and  N_24
REMARK    4  A    between atoms: N_24  and  C_25
REMARK    5  A    between atoms: C_25  and  S_26
REMARK                            x       y       z     vdW  Elec       q    Type
REMARK                         _______ _______ _______ _____ _____    ______ ____
ROOT
ATOM      1  C   UNL     1       8.881  -0.562  20.974  0.00  0.00    +0.000 C 
ATOM      2  C   UNL     1       8.252   0.311  22.051  0.00  0.00    +0.000 C 
ATOM      3  N   UNL     1       8.414   1.673  21.980  0.00  0.00    +0.000 N 
ATOM      4  C   UNL     1       9.931   1.933  21.986  0.00  0.00    +0.000 C 
ATOM      5  C   UNL     1      10.321   1.618  23.432  0.00  0.00    +0.000 C 
ATOM      6  C   UNL     1       9.813   0.311  23.924  0.00  0.00    +0.000 C 
ATOM      7  N   UNL     1       8.588  -0.104  23.280  0.00  0.00    +0.000 N 
ATOM      8  C   UNL     1       7.949  -1.241  23.829  0.00  0.00    +0.000 C 
ATOM      9  C   UNL     1       8.387  -1.821  24.982  0.00  0.00    +0.000 C 
ATOM     10  C   UNL     1       9.276  -0.997  25.990  0.00  0.00    +0.000 C 
ATOM     11  C   UNL     1       9.545   0.362  25.431  0.00  0.00    +0.000 C 
ATOM     12  C   UNL     1       8.917  -3.330  25.118  0.00  0.00    +0.000 C 
ENDROOT
BRANCH   3  13
ATOM     13  C   UNL     1       7.602   2.245  22.936  0.00  0.00    +0.000 C 
ATOM     14  O   UNL     1       6.571   3.591  23.381  0.00  0.00    +0.000 OA
ATOM     15  C   UNL     1       5.600   3.520  22.612  0.00  0.00    +0.000 C 
ATOM     16  C   UNL     1       6.188   2.525  21.780  0.00  0.00    +0.000 C 
ATOM     17  C   UNL     1       7.962   3.479  23.014  0.00  0.00    +0.000 C 
BRANCH  15  18
ATOM     18  C   UNL     1       4.338   3.100  23.313  0.00  0.00    +0.000 C 
ATOM     19  N   UNL     1       3.179   3.702  22.972  0.00  0.00    +0.000 NA
ATOM     20  C   UNL     1       2.353   3.125  21.929  0.00  0.00    +0.000 C 
ATOM     21  O   UNL     1       4.338   2.169  24.097  0.00  0.00    +0.000 OA
ENDBRANCH  15  18
ENDBRANCH   3  13
BRANCH   8  22
ATOM     22  N   UNL     1       6.621  -1.056  23.342  0.00  0.00    +0.000 NA
BRANCH  22  23
ATOM     23  C   UNL     1       5.782  -2.228  23.548  0.00  0.00    +0.000 C 
BRANCH  23  24
ATOM     24  S   UNL     1       5.903  -3.309  22.146  0.00  0.00    +0.000 S 
ATOM     25  O   UNL     1       7.199  -3.930  22.176  0.00  0.00    +0.000 OA
ATOM     26  O   UNL     1       5.625  -2.512  20.975  0.00  0.00    +0.000 OA
ATOM     27  N   UNL     1       4.753  -4.482  22.256  0.00  0.00    +0.000 NA
ENDBRANCH  23  24
ENDBRANCH  22  23
ENDBRANCH   8  22
TORSDOF 5
ENDMDL
MODEL 6
REMARK VINA RESULT:      -6.3      3.628      5.528
REMARK  Name = 
REMARK  5 active torsions:
REMARK  status: ('A' for Active; 'I' for Inactive)
REMARK    1  A    between atoms: N_3  and  C_4
REMARK    2  A    between atoms: C_7  and  C_9
REMARK    3  A    between atoms: C_19  and  N_24
REMARK    4  A    between atoms: N_24  and  C_25
REMARK    5  A    between atoms: C_25  and  S_26
REMARK                            x       y       z     vdW  Elec       q    Type
REMARK                         _______ _______ _______ _____ _____    ______ ____
ROOT
ATOM      1  C   UNL     1       8.561  -4.869  26.395  0.00  0.00    +0.000 C 
ATOM      2  C   UNL     1       7.241  -4.140  26.184  0.00  0.00    +0.000 C 
ATOM      3  N   UNL     1       6.422  -3.922  27.265  0.00  0.00    +0.000 N 
ATOM      4  C   UNL     1       6.111  -5.306  27.863  0.00  0.00    +0.000 C 
ATOM      5  C   UNL     1       5.157  -5.911  26.830  0.00  0.00    +0.000 C 
ATOM      6  C   UNL     1       5.648  -5.826  25.430  0.00  0.00    +0.000 C 
ATOM      7  N   UNL     1       6.522  -4.698  25.200  0.00  0.00    +0.000 N 
ATOM      8  C   UNL     1       6.875  -4.448  23.853  0.00  0.00    +0.000 C 
ATOM      9  C   UNL     1       6.309  -5.140  22.825  0.00  0.00    +0.000 C 
ATOM     10  C   UNL     1       4.929  -5.872  23.033  0.00  0.00    +0.000 C 
ATOM     11  C   UNL     1       4.480  -5.709  24.448  0.00  0.00    +0.000 C 
ATOM     12  C   UNL     1       7.104  -6.066  21.782  0.00  0.00    +0.000 C 
ENDROOT
BRANCH   3  13
ATOM     13  C   UNL     1       5.403  -3.088  26.862  0.00  0.00    +0.000 C 
ATOM     14  O   UNL     1       4.476  -1.633  27.176  0.00  0.00    +0.000 OA
ATOM     15  C   UNL     1       5.282  -0.702  27.033  0.00  0.00    +0.000 C 
ATOM     16  C   UNL     1       6.422  -1.551  26.958  0.00  0.00    +0.000 C 
ATOM     17  C   UNL     1       4.699  -2.852  27.915  0.00  0.00    +0.000 C 
BRANCH  15  18
ATOM     18  C   UNL     1       5.010   0.113  25.799  0.00  0.00    +0.000 C 
ATOM     19  N   UNL     1       4.302   1.255  25.922  0.00  0.00    +0.000 NA
ATOM     20  C   UNL     1       4.999   2.508  26.148  0.00  0.00    +0.000 C 
ATOM     21  O   UNL     1       5.502  -0.192  24.728  0.00  0.00    +0.000 OA
ENDBRANCH  15  18
ENDBRANCH   3  13
BRANCH   8  22
ATOM     22  N   UNL     1       7.260  -3.076  23.934  0.00  0.00    +0.000 NA
BRANCH  22  23
ATOM     23  C   UNL     1       8.081  -2.659  22.806  0.00  0.00    +0.000 C 
BRANCH  23  24
ATOM     24  S   UNL     1       9.696  -2.195  23.375  0.00  0.00    +0.000 S 
ATOM     25  O   UNL     1      10.436  -1.696  22.249  0.00  0.00    +0.000 OA
ATOM     26  O   UNL     1      10.262  -3.354  24.024  0.00  0.00    +0.000 OA
ATOM     27  N   UNL     1       9.561  -0.994  24.492  0.00  0.00    +0.000 NA
ENDBRANCH  23  24
ENDBRANCH  22  23
ENDBRANCH   8  22
TORSDOF 5
ENDMDL
MODEL 7
REMARK VINA RESULT:      -6.0      2.059      2.753
REMARK  Name = 
REMARK  5 active torsions:
REMARK  status: ('A' for Active; 'I' for Inactive)
REMARK    1  A    between atoms: N_3  and  C_4
REMARK    2  A    between atoms: C_7  and  C_9
REMARK    3  A    between atoms: C_19  and  N_24
REMARK    4  A    between atoms: N_24  and  C_25
REMARK    5  A    between atoms: C_25  and  S_26
REMARK                            x       y       z     vdW  Elec       q    Type
REMARK                         _______ _______ _______ _____ _____    ______ ____
ROOT
ATOM      1  C   UNL     1       9.610  -0.762  25.315  0.00  0.00    +0.000 C 
ATOM      2  C   UNL     1       8.649  -0.089  24.345  0.00  0.00    +0.000 C 
ATOM      3  N   UNL     1       9.134   0.863  23.481  0.00  0.00    +0.000 N 
ATOM      4  C   UNL     1       9.771   1.959  24.354  0.00  0.00    +0.000 C 
ATOM      5  C   UNL     1       8.552   2.648  24.972  0.00  0.00    +0.000 C 
ATOM      6  C   UNL     1       7.577   1.713  25.590  0.00  0.00    +0.000 C 
ATOM      7  N   UNL     1       7.576   0.404  24.977  0.00  0.00    +0.000 N 
ATOM      8  C   UNL     1       6.545  -0.475  25.388  0.00  0.00    +0.000 C 
ATOM      9  C   UNL     1       5.535  -0.061  26.202  0.00  0.00    +0.000 C 
ATOM     10  C   UNL     1       5.195   1.474  26.320  0.00  0.00    +0.000 C 
ATOM     11  C   UNL     1       6.153   2.267  25.494  0.00  0.00    +0.000 C 
ATOM     12  C   UNL     1       5.213  -0.658  27.657  0.00  0.00    +0.000 C 
ENDROOT
BRANCH   3  13
ATOM     13  C   UNL     1       8.131   1.174  22.588  0.00  0.00    +0.000 C 
ATOM     14  O   UNL     1       7.678   1.446  20.917  0.00  0.00    +0.000 OA
ATOM     15  C   UNL     1       7.816   0.345  20.363  0.00  0.00    +0.000 C 
ATOM     16  C   UNL     1       8.480  -0.254  21.471  0.00  0.00    +0.000 C 
ATOM     17  C   UNL     1       8.617   2.079  21.811  0.00  0.00    +0.000 C 
BRANCH  15  18
ATOM     18  C   UNL     1       6.502  -0.284  19.990  0.00  0.00    +0.000 C 
ATOM     19  N   UNL     1       5.627   0.435  19.257  0.00  0.00    +0.000 NA
ATOM     20  C   UNL     1       5.662   0.342  17.809  0.00  0.00    +0.000 C 
ATOM     21  O   UNL     1       6.270  -1.449  20.254  0.00  0.00    +0.000 OA
ENDBRANCH  15  18
ENDBRANCH   3  13
BRANCH   8  22
ATOM     22  N   UNL     1       6.525  -1.385  24.289  0.00  0.00    +0.000 NA
BRANCH  22  23
ATOM     23  C   UNL     1       6.122  -2.728  24.683  0.00  0.00    +0.000 C 
BRANCH  23  24
ATOM     24  S   UNL     1       7.269  -3.915  24.034  0.00  0.00    +0.000 S 
ATOM     25  O   UNL     1       8.183  -4.268  25.085  0.00  0.00    +0.000 OA
ATOM     26  O   UNL     1       7.871  -3.322  22.863  0.00  0.00    +0.000 OA
ATOM     27  N   UNL     1       6.455  -5.267  23.566  0.00  0.00    +0.000 NA
ENDBRANCH  23  24
ENDBRANCH  22  23
ENDBRANCH   8  22
TORSDOF 5
ENDMDL
MODEL 8
REMARK VINA RESULT:      -5.9      3.266      6.264
REMARK  Name = 
REMARK  5 active torsions:
REMARK  status: ('A' for Active; 'I' for Inactive)
REMARK    1  A    between atoms: N_3  and  C_4
REMARK    2  A    between atoms: C_7  and  C_9
REMARK    3  A    between atoms: C_19  and  N_24
REMARK    4  A    between atoms: N_24  and  C_25
REMARK    5  A    between atoms: C_25  and  S_26
REMARK                            x       y       z     vdW  Elec       q    Type
REMARK                         _______ _______ _______ _____ _____    ______ ____
ROOT
ATOM      1  C   UNL     1      10.362   0.576  24.686  0.00  0.00    +0.000 C 
ATOM      2  C   UNL     1       9.158  -0.260  24.275  0.00  0.00    +0.000 C 
ATOM      3  N   UNL     1       9.334  -1.598  24.020  0.00  0.00    +0.000 N 
ATOM      4  C   UNL     1      10.383  -1.694  22.897  0.00  0.00    +0.000 C 
ATOM      5  C   UNL     1       9.607  -1.212  21.670  0.00  0.00    +0.000 C 
ATOM      6  C   UNL     1       8.887   0.072  21.875  0.00  0.00    +0.000 C 
ATOM      7  N   UNL     1       8.500   0.295  23.249  0.00  0.00    +0.000 N 
ATOM      8  C   UNL     1       7.650   1.402  23.485  0.00  0.00    +0.000 C 
ATOM      9  C   UNL     1       7.116   2.125  22.461  0.00  0.00    +0.000 C 
ATOM     10  C   UNL     1       7.012   1.493  21.020  0.00  0.00    +0.000 C 
ATOM     11  C   UNL     1       7.615   0.127  21.024  0.00  0.00    +0.000 C 
ATOM     12  C   UNL     1       7.370   3.688  22.197  0.00  0.00    +0.000 C 
ENDROOT
BRANCH   3  13
ATOM     13  C   UNL     1       8.088  -2.166  23.865  0.00  0.00    +0.000 C 
ATOM     14  O   UNL     1       7.033  -3.524  24.207  0.00  0.00    +0.000 OA
ATOM     15  C   UNL     1       6.854  -3.488  25.434  0.00  0.00    +0.000 C 
ATOM     16  C   UNL     1       7.852  -2.500  25.665  0.00  0.00    +0.000 C 
ATOM     17  C   UNL     1       8.297  -3.391  23.524  0.00  0.00    +0.000 C 
BRANCH  15  18
ATOM     18  C   UNL     1       5.454  -3.081  25.802  0.00  0.00    +0.000 C 
ATOM     19  N   UNL     1       4.532  -2.978  24.822  0.00  0.00    +0.000 NA
ATOM     20  C   UNL     1       3.714  -4.128  24.487  0.00  0.00    +0.000 C 
ATOM     21  O   UNL     1       5.129  -2.944  26.967  0.00  0.00    +0.000 OA
ENDBRANCH  15  18
ENDBRANCH   3  13
BRANCH   8  22
ATOM     22  N   UNL     1       7.084   1.034  24.741  0.00  0.00    +0.000 NA
BRANCH  22  23
ATOM     23  C   UNL     1       6.461   2.159  25.424  0.00  0.00    +0.000 C 
BRANCH  23  24
ATOM     24  S   UNL     1       4.754   1.796  25.749  0.00  0.00    +0.000 S 
ATOM     25  O   UNL     1       4.413   2.372  27.020  0.00  0.00    +0.000 OA
ATOM     26  O   UNL     1       4.606   0.363  25.659  0.00  0.00    +0.000 OA
ATOM     27  N   UNL     1       3.815   2.485  24.587  0.00  0.00    +0.000 NA
ENDBRANCH  23  24
ENDBRANCH  22  23
ENDBRANCH   8  22
TORSDOF 5
ENDMDL
MODEL 9
REMARK VINA RESULT:      -5.9      2.008      2.301
REMARK  Name = 
REMARK  5 active torsions:
REMARK  status: ('A' for Active; 'I' for Inactive)
REMARK    1  A    between atoms: N_3  and  C_4
REMARK    2  A    between atoms: C_7  and  C_9
REMARK    3  A    between atoms: C_19  and  N_24
REMARK    4  A    between atoms: N_24  and  C_25
REMARK    5  A    between atoms: C_25  and  S_26
REMARK                            x       y       z     vdW  Elec       q    Type
REMARK                         _______ _______ _______ _____ _____    ______ ____
ROOT
ATOM      1  C   UNL     1      10.142  -2.068  22.994  0.00  0.00    +0.000 C 
ATOM      2  C   UNL     1       9.110  -1.007  23.352  0.00  0.00    +0.000 C 
ATOM      3  N   UNL     1       9.511   0.303  23.456  0.00  0.00    +0.000 N 
ATOM      4  C   UNL     1      10.617   0.337  24.526  0.00  0.00    +0.000 C 
ATOM      5  C   UNL     1       9.836   0.115  25.823  0.00  0.00    +0.000 C 
ATOM      6  C   UNL     1       8.911  -1.047  25.782  0.00  0.00    +0.000 C 
ATOM      7  N   UNL     1       8.424  -1.340  24.453  0.00  0.00    +0.000 N 
ATOM      8  C   UNL     1       7.397  -2.311  24.366  0.00  0.00    +0.000 C 
ATOM      9  C   UNL     1       6.806  -2.828  25.479  0.00  0.00    +0.000 C 
ATOM     10  C   UNL     1       6.877  -2.046  26.846  0.00  0.00    +0.000 C 
ATOM     11  C   UNL     1       7.691  -0.805  26.675  0.00  0.00    +0.000 C 
ATOM     12  C   UNL     1       6.819  -4.377  25.901  0.00  0.00    +0.000 C 
ENDROOT
BRANCH   3  13
ATOM     13  C   UNL     1       8.382   1.081  23.590  0.00  0.00    +0.000 C 
ATOM     14  O   UNL     1       7.584   2.598  23.224  0.00  0.00    +0.000 OA
ATOM     15  C   UNL     1       7.417   2.584  21.995  0.00  0.00    +0.000 C 
ATOM     16  C   UNL     1       8.230   1.435  21.784  0.00  0.00    +0.000 C 
ATOM     17  C   UNL     1       8.797   2.253  23.926  0.00  0.00    +0.000 C 
BRANCH  15  18
ATOM     18  C   UNL     1       5.972   2.424  21.611  0.00  0.00    +0.000 C 
ATOM     19  N   UNL     1       5.023   2.742  22.516  0.00  0.00    +0.000 NA
ATOM     20  C   UNL     1       4.484   4.089  22.543  0.00  0.00    +0.000 C 
ATOM     21  O   UNL     1       5.658   2.112  20.477  0.00  0.00    +0.000 OA
ENDBRANCH  15  18
ENDBRANCH   3  13
BRANCH   8  22
ATOM     22  N   UNL     1       6.835  -1.983  23.097  0.00  0.00    +0.000 NA
BRANCH  22  23
ATOM     23  C   UNL     1       5.613  -2.726  22.818  0.00  0.00    +0.000 C 
BRANCH  23  24
ATOM     24  S   UNL     1       5.987  -4.145  21.820  0.00  0.00    +0.000 S 
ATOM     25  O   UNL     1       7.344  -4.532  22.091  0.00  0.00    +0.000 OA
ATOM     26  O   UNL     1       5.708  -3.782  20.451  0.00  0.00    +0.000 OA
ATOM     27  N   UNL     1       4.991  -5.387  22.237  0.00  0.00    +0.000 NA
ENDBRANCH  23  24
ENDBRANCH  22  23
ENDBRANCH   8  22
TORSDOF 5
ENDMDL
