MODEL 1
REMARK VINA RESULT:      -6.6      0.000      0.000
REMARK  Name = 
REMARK  3 active torsions:
REMARK  status: ('A' for Active; 'I' for Inactive)
REMARK    1  A    between atoms: C_2  and  C_3
REMARK    2  A    between atoms: N_8  and  C_9
REMARK    3  A    between atoms: C_9  and  C_10
REMARK                            x       y       z     vdW  Elec       q    Type
REMARK                         _______ _______ _______ _____ _____    ______ ____
ROOT
ATOM      1  O   UNL     1       8.245  -5.517  23.199  0.00  0.00    -0.273 OA
ATOM      2  C   UNL     1       7.232  -4.999  23.636  0.00  0.00    +0.242 C 
ATOM      3  N   UNL     1       7.130  -4.678  24.940  0.00  0.00    -0.276 N 
ATOM      4  C   UNL     1       8.051  -5.256  25.898  0.00  0.00    +0.111 C 
ATOM      5  C   UNL     1       8.873  -4.170  26.563  0.00  0.00    +0.094 C 
ATOM      6  N   UNL     1       8.480  -2.871  26.088  0.00  0.00    -0.266 NA
ATOM      7  C   UNL     1       7.080  -2.703  26.340  0.00  0.00    +0.094 C 
ATOM      8  C   UNL     1       6.292  -3.558  25.345  0.00  0.00    +0.111 C 
ENDROOT
BRANCH   2   9
ATOM      9  C   UNL     1       5.948  -5.024  22.840  0.00  0.00    +0.180 C 
ATOM     10 CL   UNL     1       6.234  -5.832  21.272  0.00  0.00    -0.103 Cl
ENDBRANCH   2   9
BRANCH   6  11
ATOM     11  C   UNL     1       8.749  -2.751  24.729  0.00  0.00    +0.099 C 
BRANCH  11  12
ATOM     12  C   UNL     1       9.706  -1.889  24.186  0.00  0.00    -0.003 A 
ATOM     13  C   UNL     1       9.839  -1.809  22.725  0.00  0.00    +0.037 A 
ATOM     14  C   UNL     1       9.721  -0.757  21.726  0.00  0.00    +0.176 A 
ATOM     15  O   UNL     1       8.682  -0.587  20.824  0.00  0.00    -0.435 OA
ATOM     16  C   UNL     1       8.278   0.793  20.738  0.00  0.00    +0.429 C 
ATOM     17  O   UNL     1       8.886   1.522  21.826  0.00  0.00    -0.435 OA
ATOM     18  C   UNL     1       9.908   0.718  22.399  0.00  0.00    +0.176 A 
ATOM     19  C   UNL     1      10.021   0.641  23.879  0.00  0.00    +0.040 A 
ATOM     20  C   UNL     1       9.807  -0.416  24.900  0.00  0.00    +0.000 A 
ENDBRANCH  11  12
ENDBRANCH   6  11
TORSDOF 3
ENDMDL
MODEL 2
REMARK VINA RESULT:      -6.3      2.404      5.599
REMARK  Name = 
REMARK  3 active torsions:
REMARK  status: ('A' for Active; 'I' for Inactive)
REMARK    1  A    between atoms: C_2  and  C_3
REMARK    2  A    between atoms: N_8  and  C_9
REMARK    3  A    between atoms: C_9  and  C_10
REMARK                            x       y       z     vdW  Elec       q    Type
REMARK                         _______ _______ _______ _____ _____    ______ ____
ROOT
ATOM      1  O   UNL     1       7.043   1.455  21.548  0.00  0.00    -0.273 OA
ATOM      2  C   UNL     1       7.755   0.638  20.990  0.00  0.00    +0.242 C 
ATOM      3  N   UNL     1       8.956   0.308  21.501  0.00  0.00    -0.276 N 
ATOM      4  C   UNL     1       9.572   1.158  22.500  0.00  0.00    +0.111 C 
ATOM      5  C   UNL     1       9.754   0.401  23.800  0.00  0.00    +0.094 C 
ATOM      6  N   UNL     1       9.303  -0.958  23.665  0.00  0.00    -0.266 NA
ATOM      7  C   UNL     1      10.027  -1.570  22.592  0.00  0.00    +0.094 C 
ATOM      8  C   UNL     1       9.502  -1.022  21.263  0.00  0.00    +0.111 C 
ENDROOT
BRANCH   2   9
ATOM      9  C   UNL     1       7.494   0.241  19.556  0.00  0.00    +0.180 C 
ATOM     10 CL   UNL     1       6.032  -0.783  19.476  0.00  0.00    -0.103 Cl
ENDBRANCH   2   9
BRANCH   6  11
ATOM     11  C   UNL     1       7.935  -0.991  23.411  0.00  0.00    +0.099 C 
BRANCH  11  12
ATOM     12  C   UNL     1       7.066  -1.972  23.894  0.00  0.00    -0.003 A 
ATOM     13  C   UNL     1       5.995  -2.463  23.016  0.00  0.00    +0.037 A 
ATOM     14  C   UNL     1       5.611  -3.755  22.465  0.00  0.00    +0.176 A 
ATOM     15  O   UNL     1       5.764  -4.171  21.152  0.00  0.00    -0.435 OA
ATOM     16  C   UNL     1       6.269  -5.518  21.080  0.00  0.00    +0.429 C 
ATOM     17  O   UNL     1       6.727  -5.911  22.392  0.00  0.00    -0.435 OA
ATOM     18  C   UNL     1       6.235  -4.979  23.345  0.00  0.00    +0.176 A 
ATOM     19  C   UNL     1       7.146  -4.487  24.412  0.00  0.00    +0.040 A 
ATOM     20  C   UNL     1       7.778  -3.184  24.740  0.00  0.00    +0.000 A 
ENDBRANCH  11  12
ENDBRANCH   6  11
TORSDOF 3
ENDMDL
MODEL 3
REMARK VINA RESULT:      -6.3      2.382      3.180
REMARK  Name = 
REMARK  3 active torsions:
REMARK  status: ('A' for Active; 'I' for Inactive)
REMARK    1  A    between atoms: C_2  and  C_3
REMARK    2  A    between atoms: N_8  and  C_9
REMARK    3  A    between atoms: C_9  and  C_10
REMARK                            x       y       z     vdW  Elec       q    Type
REMARK                         _______ _______ _______ _____ _____    ______ ____
ROOT
ATOM      1  O   UNL     1       8.569  -2.208  26.543  0.00  0.00    -0.273 OA
ATOM      2  C   UNL     1       8.441  -3.245  25.916  0.00  0.00    +0.242 C 
ATOM      3  N   UNL     1       7.598  -3.316  24.868  0.00  0.00    -0.276 N 
ATOM      4  C   UNL     1       6.582  -2.298  24.690  0.00  0.00    +0.111 C 
ATOM      5  C   UNL     1       6.798  -1.558  23.386  0.00  0.00    +0.094 C 
ATOM      6  N   UNL     1       7.922  -2.099  22.673  0.00  0.00    -0.266 NA
ATOM      7  C   UNL     1       7.690  -3.495  22.455  0.00  0.00    +0.094 C 
ATOM      8  C   UNL     1       7.877  -4.241  23.778  0.00  0.00    +0.111 C 
ENDROOT
BRANCH   2   9
ATOM      9  C   UNL     1       8.927  -4.556  26.487  0.00  0.00    +0.180 C 
ATOM     10 CL   UNL     1       7.557  -5.427  27.234  0.00  0.00    -0.103 Cl
ENDBRANCH   2   9
BRANCH   6  11
ATOM     11  C   UNL     1       9.093  -1.908  23.399  0.00  0.00    +0.099 C 
BRANCH  11  12
ATOM     12  C   UNL     1       9.979  -0.845  23.205  0.00  0.00    -0.003 A 
ATOM     13  C   UNL     1       9.765   0.056  22.064  0.00  0.00    +0.037 A 
ATOM     14  C   UNL     1       9.524   1.481  21.894  0.00  0.00    +0.176 A 
ATOM     15  O   UNL     1       8.324   2.081  21.547  0.00  0.00    -0.435 OA
ATOM     16  C   UNL     1       8.063   3.246  22.355  0.00  0.00    +0.429 C 
ATOM     17  O   UNL     1       8.990   3.259  23.462  0.00  0.00    -0.435 OA
ATOM     18  C   UNL     1      10.026   2.323  23.199  0.00  0.00    +0.176 A 
ATOM     19  C   UNL     1      10.483   1.426  24.294  0.00  0.00    +0.040 A 
ATOM     20  C   UNL     1      10.408  -0.032  24.564  0.00  0.00    +0.000 A 
ENDBRANCH  11  12
ENDBRANCH   6  11
TORSDOF 3
ENDMDL
MODEL 4
REMARK VINA RESULT:      -6.2      2.780      5.819
REMARK  Name = 
REMARK  3 active torsions:
REMARK  status: ('A' for Active; 'I' for Inactive)
REMARK    1  A    between atoms: C_2  and  C_3
REMARK    2  A    between atoms: N_8  and  C_9
REMARK    3  A    between atoms: C_9  and  C_10
REMARK                            x       y       z     vdW  Elec       q    Type
REMARK                         _______ _______ _______ _____ _____    ______ ____
ROOT
ATOM      1  O   UNL     1       6.602   1.369  21.115  0.00  0.00    -0.273 OA
ATOM      2  C   UNL     1       7.606   0.761  20.788  0.00  0.00    +0.242 C 
ATOM      3  N   UNL     1       8.762   0.928  21.458  0.00  0.00    -0.276 N 
ATOM      4  C   UNL     1       8.930   2.073  22.330  0.00  0.00    +0.111 C 
ATOM      5  C   UNL     1       9.145   1.621  23.761  0.00  0.00    +0.094 C 
ATOM      6  N   UNL     1       9.163   0.186  23.844  0.00  0.00    -0.266 NA
ATOM      7  C   UNL     1      10.192  -0.304  22.976  0.00  0.00    +0.094 C 
ATOM      8  C   UNL     1       9.723  -0.165  21.526  0.00  0.00    +0.111 C 
ENDROOT
BRANCH   2   9
ATOM      9  C   UNL     1       7.695   0.091  19.436  0.00  0.00    +0.180 C 
ATOM     10 CL   UNL     1       6.362   0.668  18.395  0.00  0.00    -0.103 Cl
ENDBRANCH   2   9
BRANCH   6  11
ATOM     11  C   UNL     1       7.927  -0.336  23.479  0.00  0.00    +0.099 C 
BRANCH  11  12
ATOM     12  C   UNL     1       7.238  -1.314  24.201  0.00  0.00    -0.003 A 
ATOM     13  C   UNL     1       7.396  -2.723  23.815  0.00  0.00    +0.037 A 
ATOM     14  C   UNL     1       7.864  -3.935  24.470  0.00  0.00    +0.176 A 
ATOM     15  O   UNL     1       9.067  -4.585  24.244  0.00  0.00    -0.435 OA
ATOM     16  C   UNL     1       9.693  -4.983  25.479  0.00  0.00    +0.429 C 
ATOM     17  O   UNL     1       9.015  -4.329  26.573  0.00  0.00    -0.435 OA
ATOM     18  C   UNL     1       7.789  -3.792  26.094  0.00  0.00    +0.176 A 
ATOM     19  C   UNL     1       7.389  -2.423  26.512  0.00  0.00    +0.040 A 
ATOM     20  C   UNL     1       7.238  -1.113  25.829  0.00  0.00    +0.000 A 
ENDBRANCH  11  12
ENDBRANCH   6  11
TORSDOF 3
ENDMDL
MODEL 5
REMARK VINA RESULT:      -6.1      3.422      6.205
REMARK  Name = 
REMARK  3 active torsions:
REMARK  status: ('A' for Active; 'I' for Inactive)
REMARK    1  A    between atoms: C_2  and  C_3
REMARK    2  A    between atoms: N_8  and  C_9
REMARK    3  A    between atoms: C_9  and  C_10
REMARK                            x       y       z     vdW  Elec       q    Type
REMARK                         _______ _______ _______ _____ _____    ______ ____
ROOT
ATOM      1  O   UNL     1      10.043   0.723  24.739  0.00  0.00    -0.273 OA
ATOM      2  C   UNL     1       9.140   1.356  24.221  0.00  0.00    +0.242 C 
ATOM      3  N   UNL     1       8.868   1.222  22.909  0.00  0.00    -0.276 N 
ATOM      4  C   UNL     1       9.847   0.615  22.029  0.00  0.00    +0.111 C 
ATOM      5  C   UNL     1       9.289  -0.652  21.412  0.00  0.00    +0.094 C 
ATOM      6  N   UNL     1       7.934  -0.873  21.838  0.00  0.00    -0.266 NA
ATOM      7  C   UNL     1       7.156   0.276  21.482  0.00  0.00    +0.094 C 
ATOM      8  C   UNL     1       7.509   1.426  22.428  0.00  0.00    +0.111 C 
ENDROOT
BRANCH   2   9
ATOM      9  C   UNL     1       8.538   2.553  24.920  0.00  0.00    +0.180 C 
ATOM     10 CL   UNL     1       9.288   4.049  24.296  0.00  0.00    -0.103 Cl
ENDBRANCH   2   9
BRANCH   6  11
ATOM     11  C   UNL     1       7.888  -1.086  23.212  0.00  0.00    +0.099 C 
BRANCH  11  12
ATOM     12  C   UNL     1       7.438  -2.264  23.814  0.00  0.00    -0.003 A 
ATOM     13  C   UNL     1       6.214  -2.897  23.304  0.00  0.00    +0.037 A 
ATOM     14  C   UNL     1       5.872  -4.191  22.734  0.00  0.00    +0.176 A 
ATOM     15  O   UNL     1       5.590  -4.459  21.404  0.00  0.00    -0.435 OA
ATOM     16  C   UNL     1       6.248  -5.661  20.956  0.00  0.00    +0.429 C 
ATOM     17  O   UNL     1       7.222  -6.052  21.948  0.00  0.00    -0.435 OA
ATOM     18  C   UNL     1       6.973  -5.324  23.143  0.00  0.00    +0.176 A 
ATOM     19  C   UNL     1       8.121  -4.739  23.883  0.00  0.00    +0.040 A 
ATOM     20  C   UNL     1       8.605  -3.362  24.163  0.00  0.00    +0.000 A 
ENDBRANCH  11  12
ENDBRANCH   6  11
TORSDOF 3
ENDMDL
MODEL 6
REMARK VINA RESULT:      -6.1      2.977      5.957
REMARK  Name = 
REMARK  3 active torsions:
REMARK  status: ('A' for Active; 'I' for Inactive)
REMARK    1  A    between atoms: C_2  and  C_3
REMARK    2  A    between atoms: N_8  and  C_9
REMARK    3  A    between atoms: C_9  and  C_10
REMARK                            x       y       z     vdW  Elec       q    Type
REMARK                         _______ _______ _______ _____ _____    ______ ____
ROOT
ATOM      1  O   UNL     1      10.142  -1.673  23.614  0.00  0.00    -0.273 OA
ATOM      2  C   UNL     1       9.727  -0.548  23.832  0.00  0.00    +0.242 C 
ATOM      3  N   UNL     1       9.211   0.200  22.838  0.00  0.00    -0.276 N 
ATOM      4  C   UNL     1       9.461  -0.164  21.458  0.00  0.00    +0.111 C 
ATOM      5  C   UNL     1       8.160  -0.487  20.752  0.00  0.00    +0.094 C 
ATOM      6  N   UNL     1       7.041  -0.302  21.635  0.00  0.00    -0.266 NA
ATOM      7  C   UNL     1       7.062   1.048  22.113  0.00  0.00    +0.094 C 
ATOM      8  C   UNL     1       8.189   1.194  23.138  0.00  0.00    +0.111 C 
ENDROOT
BRANCH   2   9
ATOM      9  C   UNL     1      10.095   0.175  25.106  0.00  0.00    +0.180 C 
ATOM     10 CL   UNL     1       9.169  -0.513  26.471  0.00  0.00    -0.103 Cl
ENDBRANCH   2   9
BRANCH   6  11
ATOM     11  C   UNL     1       7.112  -1.196  22.698  0.00  0.00    +0.099 C 
BRANCH  11  12
ATOM     12  C   UNL     1       6.600  -2.496  22.672  0.00  0.00    -0.003 A 
ATOM     13  C   UNL     1       7.537  -3.625  22.604  0.00  0.00    +0.037 A 
ATOM     14  C   UNL     1       7.831  -4.785  23.432  0.00  0.00    +0.176 A 
ATOM     15  O   UNL     1       8.946  -4.965  24.236  0.00  0.00    -0.435 OA
ATOM     16  C   UNL     1       8.587  -5.503  25.524  0.00  0.00    +0.429 C 
ATOM     17  O   UNL     1       7.153  -5.419  25.677  0.00  0.00    -0.435 OA
ATOM     18  C   UNL     1       6.574  -5.145  24.409  0.00  0.00    +0.176 A 
ATOM     19  C   UNL     1       5.491  -4.131  24.314  0.00  0.00    +0.040 A 
ATOM     20  C   UNL     1       5.359  -2.782  23.707  0.00  0.00    +0.000 A 
ENDBRANCH  11  12
ENDBRANCH   6  11
TORSDOF 3
ENDMDL
MODEL 7
REMARK VINA RESULT:      -6.1      2.167      2.719
REMARK  Name = 
REMARK  3 active torsions:
REMARK  status: ('A' for Active; 'I' for Inactive)
REMARK    1  A    between atoms: C_2  and  C_3
REMARK    2  A    between atoms: N_8  and  C_9
REMARK    3  A    between atoms: C_9  and  C_10
REMARK                            x       y       z     vdW  Elec       q    Type
REMARK                         _______ _______ _______ _____ _____    ______ ____
ROOT
ATOM      1  O   UNL     1       5.729  -2.498  24.523  0.00  0.00    -0.273 OA
ATOM      2  C   UNL     1       6.309  -2.824  25.544  0.00  0.00    +0.242 C 
ATOM      3  N   UNL     1       7.026  -3.962  25.594  0.00  0.00    -0.276 N 
ATOM      4  C   UNL     1       6.835  -4.980  24.580  0.00  0.00    +0.111 C 
ATOM      5  C   UNL     1       8.117  -5.200  23.803  0.00  0.00    +0.094 C 
ATOM      6  N   UNL     1       9.173  -4.370  24.316  0.00  0.00    -0.266 NA
ATOM      7  C   UNL     1       9.342  -4.662  25.708  0.00  0.00    +0.094 C 
ATOM      8  C   UNL     1       8.173  -4.055  26.487  0.00  0.00    +0.111 C 
ENDROOT
BRANCH   2   9
ATOM      9  C   UNL     1       5.964  -2.180  26.866  0.00  0.00    +0.180 C 
ATOM     10 CL   UNL     1       6.882  -0.657  27.045  0.00  0.00    -0.103 Cl
ENDBRANCH   2   9
BRANCH   6  11
ATOM     11  C   UNL     1       8.862  -3.026  24.135  0.00  0.00    +0.099 C 
BRANCH  11  12
ATOM     12  C   UNL     1       9.801  -2.030  23.851  0.00  0.00    -0.003 A 
ATOM     13  C   UNL     1       9.954  -1.576  22.463  0.00  0.00    +0.037 A 
ATOM     14  C   UNL     1       9.820  -0.308  21.761  0.00  0.00    +0.176 A 
ATOM     15  O   UNL     1       8.791   0.059  20.908  0.00  0.00    -0.435 OA
ATOM     16  C   UNL     1       8.345   1.405  21.167  0.00  0.00    +0.429 C 
ATOM     17  O   UNL     1       8.913   1.848  22.418  0.00  0.00    -0.435 OA
ATOM     18  C   UNL     1       9.950   0.951  22.791  0.00  0.00    +0.176 A 
ATOM     19  C   UNL     1      10.043   0.502  24.206  0.00  0.00    +0.040 A 
ATOM     20  C   UNL     1       9.845  -0.785  24.919  0.00  0.00    +0.000 A 
ENDBRANCH  11  12
ENDBRANCH   6  11
TORSDOF 3
ENDMDL
MODEL 8
REMARK VINA RESULT:      -6.0      2.673      5.857
REMARK  Name = 
REMARK  3 active torsions:
REMARK  status: ('A' for Active; 'I' for Inactive)
REMARK    1  A    between atoms: C_2  and  C_3
REMARK    2  A    between atoms: N_8  and  C_9
REMARK    3  A    between atoms: C_9  and  C_10
REMARK                            x       y       z     vdW  Elec       q    Type
REMARK                         _______ _______ _______ _____ _____    ______ ____
ROOT
ATOM      1  O   UNL     1       6.784  -1.253  21.555  0.00  0.00    -0.273 OA
ATOM      2  C   UNL     1       7.844  -0.680  21.736  0.00  0.00    +0.242 C 
ATOM      3  N   UNL     1       8.179  -0.219  22.956  0.00  0.00    -0.276 N 
ATOM      4  C   UNL     1       7.160  -0.074  23.976  0.00  0.00    +0.111 C 
ATOM      5  C   UNL     1       7.464  -0.971  25.159  0.00  0.00    +0.094 C 
ATOM      6  N   UNL     1       8.697  -1.682  24.956  0.00  0.00    -0.266 NA
ATOM      7  C   UNL     1       9.740  -0.724  24.737  0.00  0.00    +0.094 C 
ATOM      8  C   UNL     1       9.583  -0.132  23.335  0.00  0.00    +0.111 C 
ENDROOT
BRANCH   2   9
ATOM      9  C   UNL     1       8.643  -0.153  20.567  0.00  0.00    +0.180 C 
ATOM     10 CL   UNL     1       7.550   0.161  19.189  0.00  0.00    -0.103 Cl
ENDBRANCH   2   9
BRANCH   6  11
ATOM     11  C   UNL     1       8.588  -2.539  23.866  0.00  0.00    +0.099 C 
BRANCH  11  12
ATOM     12  C   UNL     1       8.165  -3.869  23.946  0.00  0.00    -0.003 A 
ATOM     13  C   UNL     1       8.498  -4.646  25.147  0.00  0.00    +0.037 A 
ATOM     14  C   UNL     1       7.744  -5.349  26.175  0.00  0.00    +0.176 A 
ATOM     15  O   UNL     1       7.555  -4.940  27.485  0.00  0.00    -0.435 OA
ATOM     16  C   UNL     1       6.187  -5.119  27.902  0.00  0.00    +0.429 C 
ATOM     17  O   UNL     1       5.381  -5.400  26.737  0.00  0.00    -0.435 OA
ATOM     18  C   UNL     1       6.243  -5.719  25.653  0.00  0.00    +0.176 A 
ATOM     19  C   UNL     1       5.963  -5.139  24.313  0.00  0.00    +0.040 A 
ATOM     20  C   UNL     1       6.633  -4.149  23.432  0.00  0.00    +0.000 A 
ENDBRANCH  11  12
ENDBRANCH   6  11
TORSDOF 3
ENDMDL
MODEL 9
REMARK VINA RESULT:      -5.8      2.488      3.393
REMARK  Name = 
REMARK  3 active torsions:
REMARK  status: ('A' for Active; 'I' for Inactive)
REMARK    1  A    between atoms: C_2  and  C_3
REMARK    2  A    between atoms: N_8  and  C_9
REMARK    3  A    between atoms: C_9  and  C_10
REMARK                            x       y       z     vdW  Elec       q    Type
REMARK                         _______ _______ _______ _____ _____    ______ ____
ROOT
ATOM      1  O   UNL     1       5.446  -1.379  24.697  0.00  0.00    -0.273 OA
ATOM      2  C   UNL     1       6.103  -2.290  25.170  0.00  0.00    +0.242 C 
ATOM      3  N   UNL     1       6.159  -3.488  24.558  0.00  0.00    -0.276 N 
ATOM      4  C   UNL     1       5.177  -3.828  23.547  0.00  0.00    +0.111 C 
ATOM      5  C   UNL     1       5.853  -4.058  22.210  0.00  0.00    +0.094 C 
ATOM      6  N   UNL     1       7.278  -3.917  22.329  0.00  0.00    -0.266 NA
ATOM      7  C   UNL     1       7.743  -4.839  23.321  0.00  0.00    +0.094 C 
ATOM      8  C   UNL     1       7.346  -4.320  24.705  0.00  0.00    +0.111 C 
ENDROOT
BRANCH   2   9
ATOM      9  C   UNL     1       6.574  -2.237  26.604  0.00  0.00    +0.180 C 
ATOM     10 CL   UNL     1       8.160  -1.417  26.681  0.00  0.00    -0.103 Cl
ENDBRANCH   2   9
BRANCH   6  11
ATOM     11  C   UNL     1       7.607  -2.613  22.684  0.00  0.00    +0.099 C 
BRANCH  11  12
ATOM     12  C   UNL     1       8.702  -1.908  22.176  0.00  0.00    -0.003 A 
ATOM     13  C   UNL     1       8.460  -0.812  21.227  0.00  0.00    +0.037 A 
ATOM     14  C   UNL     1       8.745   0.615  21.190  0.00  0.00    +0.176 A 
ATOM     15  O   UNL     1       7.831   1.644  21.354  0.00  0.00    -0.435 OA
ATOM     16  C   UNL     1       8.345   2.674  22.220  0.00  0.00    +0.429 C 
ATOM     17  O   UNL     1       9.534   2.179  22.873  0.00  0.00    -0.435 OA
ATOM     18  C   UNL     1       9.961   0.998  22.208  0.00  0.00    +0.176 A 
ATOM     19  C   UNL     1      10.395  -0.170  23.019  0.00  0.00    +0.040 A 
ATOM     20  C   UNL     1       9.864  -1.534  23.271  0.00  0.00    +0.000 A 
ENDBRANCH  11  12
ENDBRANCH   6  11
TORSDOF 3
ENDMDL
