MODEL 1
REMARK VINA RESULT:      -5.6      0.000      0.000
REMARK  Name = 
REMARK  3 active torsions:
REMARK  status: ('A' for Active; 'I' for Inactive)
REMARK    1  A    between atoms: C_2  and  C_3
REMARK    2  A    between atoms: N_8  and  C_9
REMARK    3  A    between atoms: C_9  and  C_10
REMARK                            x       y       z     vdW  Elec       q    Type
REMARK                         _______ _______ _______ _____ _____    ______ ____
ROOT
ATOM      1  O   UNL     1       9.841  -3.479  24.202  0.00  0.00    -0.273 OA
ATOM      2  C   UNL     1       8.741  -3.028  24.438  0.00  0.00    +0.242 C 
ATOM      3  N   UNL     1       7.631  -3.797  24.291  0.00  0.00    -0.276 N 
ATOM      4  C   UNL     1       7.553  -4.655  23.111  0.00  0.00    +0.111 C 
ATOM      5  C   UNL     1       6.714  -3.987  22.042  0.00  0.00    +0.094 C 
ATOM      6  N   UNL     1       6.202  -2.731  22.489  0.00  0.00    -0.266 NA
ATOM      7  C   UNL     1       5.431  -2.963  23.689  0.00  0.00    +0.094 C 
ATOM      8  C   UNL     1       6.370  -3.294  24.842  0.00  0.00    +0.111 C 
ENDROOT
BRANCH   2   9
ATOM      9  C   UNL     1       8.539  -1.617  24.922  0.00  0.00    +0.180 C 
ATOM     10 CL   UNL     1      10.080  -0.731  24.912  0.00  0.00    -0.103 Cl
ENDBRANCH   2   9
BRANCH   6  11
ATOM     11  C   UNL     1       7.262  -1.851  22.796  0.00  0.00    +0.099 C 
BRANCH  11  12
ATOM     12  C   UNL     1       7.474  -0.746  21.834  0.00  0.00    -0.006 A 
ATOM     13  C   UNL     1       7.096   0.626  22.201  0.00  0.00    -0.002 A 
ATOM     14  C   UNL     1       7.828   1.893  22.629  0.00  0.00    +0.011 A 
ATOM     15  C   UNL     1       9.280   1.862  22.072  0.00  0.00    +0.058 A 
ATOM     16 CL   UNL     1      10.342   2.320  23.373  0.00  0.00    -0.082 Cl
ATOM     17  C   UNL     1       9.689   0.517  21.658  0.00  0.00    +0.011 A 
ATOM     18  C   UNL     1       9.034  -0.789  21.306  0.00  0.00    -0.002 A 
ENDBRANCH  11  12
ENDBRANCH   6  11
TORSDOF 3
ENDMDL
MODEL 2
REMARK VINA RESULT:      -5.5      1.828      2.330
REMARK  Name = 
REMARK  3 active torsions:
REMARK  status: ('A' for Active; 'I' for Inactive)
REMARK    1  A    between atoms: C_2  and  C_3
REMARK    2  A    between atoms: N_8  and  C_9
REMARK    3  A    between atoms: C_9  and  C_10
REMARK                            x       y       z     vdW  Elec       q    Type
REMARK                         _______ _______ _______ _____ _____    ______ ____
ROOT
ATOM      1  O   UNL     1       8.160  -5.280  23.196  0.00  0.00    -0.273 OA
ATOM      2  C   UNL     1       7.871  -4.306  23.856  0.00  0.00    +0.242 C 
ATOM      3  N   UNL     1       6.711  -3.636  23.631  0.00  0.00    -0.276 N 
ATOM      4  C   UNL     1       6.319  -3.407  22.243  0.00  0.00    +0.111 C 
ATOM      5  C   UNL     1       6.714  -2.007  21.821  0.00  0.00    +0.094 C 
ATOM      6  N   UNL     1       7.319  -1.288  22.895  0.00  0.00    -0.266 NA
ATOM      7  C   UNL     1       6.384  -1.258  23.997  0.00  0.00    +0.094 C 
ATOM      8  C   UNL     1       6.289  -2.643  24.623  0.00  0.00    +0.111 C 
ENDROOT
BRANCH   2   9
ATOM      9  C   UNL     1       8.755  -3.795  24.963  0.00  0.00    +0.180 C 
ATOM     10 CL   UNL     1       9.892  -5.059  25.482  0.00  0.00    -0.103 Cl
ENDBRANCH   2   9
BRANCH   6  11
ATOM     11  C   UNL     1       8.497  -1.941  23.320  0.00  0.00    +0.099 C 
BRANCH  11  12
ATOM     12  C   UNL     1       9.748  -1.168  23.160  0.00  0.00    -0.006 A 
ATOM     13  C   UNL     1       9.882  -0.214  22.049  0.00  0.00    -0.002 A 
ATOM     14  C   UNL     1       9.839   1.301  21.888  0.00  0.00    +0.011 A 
ATOM     15  C   UNL     1      10.240   1.974  23.231  0.00  0.00    +0.058 A 
ATOM     16 CL   UNL     1       9.083   3.237  23.542  0.00  0.00    -0.082 Cl
ATOM     17  C   UNL     1      10.157   1.049  24.364  0.00  0.00    +0.011 A 
ATOM     18  C   UNL     1      10.111  -0.436  24.590  0.00  0.00    -0.002 A 
ENDBRANCH  11  12
ENDBRANCH   6  11
TORSDOF 3
ENDMDL
MODEL 3
REMARK VINA RESULT:      -5.5      2.182      2.964
REMARK  Name = 
REMARK  3 active torsions:
REMARK  status: ('A' for Active; 'I' for Inactive)
REMARK    1  A    between atoms: C_2  and  C_3
REMARK    2  A    between atoms: N_8  and  C_9
REMARK    3  A    between atoms: C_9  and  C_10
REMARK                            x       y       z     vdW  Elec       q    Type
REMARK                         _______ _______ _______ _____ _____    ______ ____
ROOT
ATOM      1  O   UNL     1       6.893  -1.554  26.528  0.00  0.00    -0.273 OA
ATOM      2  C   UNL     1       6.843  -2.232  25.525  0.00  0.00    +0.242 C 
ATOM      3  N   UNL     1       7.031  -3.575  25.587  0.00  0.00    -0.276 N 
ATOM      4  C   UNL     1       8.104  -4.070  26.446  0.00  0.00    +0.111 C 
ATOM      5  C   UNL     1       9.335  -4.364  25.615  0.00  0.00    +0.094 C 
ATOM      6  N   UNL     1       9.101  -4.116  24.228  0.00  0.00    -0.266 NA
ATOM      7  C   UNL     1       7.982  -4.930  23.811  0.00  0.00    +0.094 C 
ATOM      8  C   UNL     1       6.695  -4.370  24.403  0.00  0.00    +0.111 C 
ENDROOT
BRANCH   2   9
ATOM      9  C   UNL     1       6.553  -1.641  24.171  0.00  0.00    +0.180 C 
ATOM     10 CL   UNL     1       6.314   0.116  24.298  0.00  0.00    -0.103 Cl
ENDBRANCH   2   9
BRANCH   6  11
ATOM     11  C   UNL     1       8.774  -2.758  24.021  0.00  0.00    +0.099 C 
BRANCH  11  12
ATOM     12  C   UNL     1       9.860  -1.918  23.469  0.00  0.00    -0.006 A 
ATOM     13  C   UNL     1       9.800  -1.471  22.070  0.00  0.00    -0.002 A 
ATOM     14  C   UNL     1       9.476  -0.172  21.342  0.00  0.00    +0.011 A 
ATOM     15  C   UNL     1       9.766   1.033  22.283  0.00  0.00    +0.058 A 
ATOM     16 CL   UNL     1       8.401   2.108  22.181  0.00  0.00    -0.082 Cl
ATOM     17  C   UNL     1       9.871   0.629  23.687  0.00  0.00    +0.011 A 
ATOM     18  C   UNL     1      10.102  -0.632  24.471  0.00  0.00    -0.002 A 
ENDBRANCH  11  12
ENDBRANCH   6  11
TORSDOF 3
ENDMDL
MODEL 4
REMARK VINA RESULT:      -5.5      2.422      3.117
REMARK  Name = 
REMARK  3 active torsions:
REMARK  status: ('A' for Active; 'I' for Inactive)
REMARK    1  A    between atoms: C_2  and  C_3
REMARK    2  A    between atoms: N_8  and  C_9
REMARK    3  A    between atoms: C_9  and  C_10
REMARK                            x       y       z     vdW  Elec       q    Type
REMARK                         _______ _______ _______ _____ _____    ______ ____
ROOT
ATOM      1  O   UNL     1       5.195  -3.477  21.936  0.00  0.00    -0.273 OA
ATOM      2  C   UNL     1       6.119  -3.789  22.653  0.00  0.00    +0.242 C 
ATOM      3  N   UNL     1       6.124  -3.444  23.967  0.00  0.00    -0.276 N 
ATOM      4  C   UNL     1       5.683  -2.096  24.314  0.00  0.00    +0.111 C 
ATOM      5  C   UNL     1       6.885  -1.195  24.511  0.00  0.00    +0.094 C 
ATOM      6  N   UNL     1       8.108  -1.913  24.343  0.00  0.00    -0.266 NA
ATOM      7  C   UNL     1       8.117  -3.009  25.284  0.00  0.00    +0.094 C 
ATOM      8  C   UNL     1       7.121  -4.072  24.838  0.00  0.00    +0.111 C 
ENDROOT
BRANCH   2   9
ATOM      9  C   UNL     1       7.294  -4.586  22.149  0.00  0.00    +0.180 C 
ATOM     10 CL   UNL     1       6.820  -6.275  21.860  0.00  0.00    -0.103 Cl
ENDBRANCH   2   9
BRANCH   6  11
ATOM     11  C   UNL     1       8.192  -2.438  23.035  0.00  0.00    +0.099 C 
BRANCH  11  12
ATOM     12  C   UNL     1       9.063  -1.690  22.102  0.00  0.00    -0.006 A 
ATOM     13  C   UNL     1       8.471  -0.729  21.160  0.00  0.00    -0.002 A 
ATOM     14  C   UNL     1       8.366   0.788  21.054  0.00  0.00    +0.011 A 
ATOM     15  C   UNL     1       9.553   1.441  21.819  0.00  0.00    +0.058 A 
ATOM     16 CL   UNL     1       8.895   2.725  22.793  0.00  0.00    -0.082 Cl
ATOM     17  C   UNL     1      10.199   0.508  22.745  0.00  0.00    +0.011 A 
ATOM     18  C   UNL     1      10.278  -0.978  22.958  0.00  0.00    -0.002 A 
ENDBRANCH  11  12
ENDBRANCH   6  11
TORSDOF 3
ENDMDL
MODEL 5
REMARK VINA RESULT:      -5.4      2.468      3.472
REMARK  Name = 
REMARK  3 active torsions:
REMARK  status: ('A' for Active; 'I' for Inactive)
REMARK    1  A    between atoms: C_2  and  C_3
REMARK    2  A    between atoms: N_8  and  C_9
REMARK    3  A    between atoms: C_9  and  C_10
REMARK                            x       y       z     vdW  Elec       q    Type
REMARK                         _______ _______ _______ _____ _____    ______ ____
ROOT
ATOM      1  O   UNL     1       5.085  -3.536  23.751  0.00  0.00    -0.273 OA
ATOM      2  C   UNL     1       6.254  -3.808  23.587  0.00  0.00    +0.242 C 
ATOM      3  N   UNL     1       6.956  -4.456  24.553  0.00  0.00    -0.276 N 
ATOM      4  C   UNL     1       6.753  -4.034  25.936  0.00  0.00    +0.111 C 
ATOM      5  C   UNL     1       7.862  -3.093  26.356  0.00  0.00    +0.094 C 
ATOM      6  N   UNL     1       8.814  -2.907  25.309  0.00  0.00    -0.266 NA
ATOM      7  C   UNL     1       9.339  -4.204  24.946  0.00  0.00    +0.094 C 
ATOM      8  C   UNL     1       8.273  -4.994  24.199  0.00  0.00    +0.111 C 
ENDROOT
BRANCH   2   9
ATOM      9  C   UNL     1       6.987  -3.471  22.315  0.00  0.00    +0.180 C 
ATOM     10 CL   UNL     1       5.906  -2.632  21.181  0.00  0.00    -0.103 Cl
ENDBRANCH   2   9
BRANCH   6  11
ATOM     11  C   UNL     1       8.193  -2.338  24.177  0.00  0.00    +0.099 C 
BRANCH  11  12
ATOM     12  C   UNL     1       8.535  -0.924  23.904  0.00  0.00    -0.006 A 
ATOM     13  C   UNL     1       9.573  -0.600  22.915  0.00  0.00    -0.002 A 
ATOM     14  C   UNL     1       9.605  -0.076  21.484  0.00  0.00    +0.011 A 
ATOM     15  C   UNL     1       8.318   0.755  21.210  0.00  0.00    +0.058 A 
ATOM     16 CL   UNL     1       7.690   0.240  19.670  0.00  0.00    -0.082 Cl
ATOM     17  C   UNL     1       7.266   0.491  22.195  0.00  0.00    +0.011 A 
ATOM     18  C   UNL     1       7.151  -0.093  23.574  0.00  0.00    -0.002 A 
ENDBRANCH  11  12
ENDBRANCH   6  11
TORSDOF 3
ENDMDL
MODEL 6
REMARK VINA RESULT:      -5.3      2.193      2.656
REMARK  Name = 
REMARK  3 active torsions:
REMARK  status: ('A' for Active; 'I' for Inactive)
REMARK    1  A    between atoms: C_2  and  C_3
REMARK    2  A    between atoms: N_8  and  C_9
REMARK    3  A    between atoms: C_9  and  C_10
REMARK                            x       y       z     vdW  Elec       q    Type
REMARK                         _______ _______ _______ _____ _____    ______ ____
ROOT
ATOM      1  O   UNL     1       8.875  -5.489  23.933  0.00  0.00    -0.273 OA
ATOM      2  C   UNL     1       7.869  -4.970  24.364  0.00  0.00    +0.242 C 
ATOM      3  N   UNL     1       6.687  -5.100  23.706  0.00  0.00    -0.276 N 
ATOM      4  C   UNL     1       6.704  -4.975  22.251  0.00  0.00    +0.111 C 
ATOM      5  C   UNL     1       6.288  -3.575  21.850  0.00  0.00    +0.094 C 
ATOM      6  N   UNL     1       5.958  -2.781  22.989  0.00  0.00    -0.266 NA
ATOM      7  C   UNL     1       4.903  -3.452  23.713  0.00  0.00    +0.094 C 
ATOM      8  C   UNL     1       5.465  -4.688  24.403  0.00  0.00    +0.111 C 
ENDROOT
BRANCH   2   9
ATOM      9  C   UNL     1       7.857  -4.180  25.646  0.00  0.00    +0.180 C 
ATOM     10 CL   UNL     1       7.838  -5.274  27.048  0.00  0.00    -0.103 Cl
ENDBRANCH   2   9
BRANCH   6  11
ATOM     11  C   UNL     1       7.079  -2.653  23.838  0.00  0.00    +0.099 C 
BRANCH  11  12
ATOM     12  C   UNL     1       7.858  -1.405  23.683  0.00  0.00    -0.006 A 
ATOM     13  C   UNL     1       9.047  -1.387  22.819  0.00  0.00    -0.002 A 
ATOM     14  C   UNL     1       9.392  -0.859  21.431  0.00  0.00    +0.011 A 
ATOM     15  C   UNL     1       8.452   0.332  21.085  0.00  0.00    +0.058 A 
ATOM     16 CL   UNL     1       7.871   0.076  19.464  0.00  0.00    -0.082 Cl
ATOM     17  C   UNL     1       7.269   0.376  21.947  0.00  0.00    +0.011 A 
ATOM     18  C   UNL     1       6.833  -0.182  23.273  0.00  0.00    -0.002 A 
ENDBRANCH  11  12
ENDBRANCH   6  11
TORSDOF 3
ENDMDL
MODEL 7
REMARK VINA RESULT:      -5.3      2.292      4.946
REMARK  Name = 
REMARK  3 active torsions:
REMARK  status: ('A' for Active; 'I' for Inactive)
REMARK    1  A    between atoms: C_2  and  C_3
REMARK    2  A    between atoms: N_8  and  C_9
REMARK    3  A    between atoms: C_9  and  C_10
REMARK                            x       y       z     vdW  Elec       q    Type
REMARK                         _______ _______ _______ _____ _____    ______ ____
ROOT
ATOM      1  O   UNL     1       9.380  -0.621  25.096  0.00  0.00    -0.273 OA
ATOM      2  C   UNL     1       9.468  -0.766  23.896  0.00  0.00    +0.242 C 
ATOM      3  N   UNL     1       9.315   0.292  23.058  0.00  0.00    -0.276 N 
ATOM      4  C   UNL     1       8.238   1.235  23.348  0.00  0.00    +0.111 C 
ATOM      5  C   UNL     1       7.032   0.921  22.487  0.00  0.00    +0.094 C 
ATOM      6  N   UNL     1       7.289  -0.175  21.609  0.00  0.00    -0.266 NA
ATOM      7  C   UNL     1       8.437   0.160  20.798  0.00  0.00    +0.094 C 
ATOM      8  C   UNL     1       9.696   0.115  21.654  0.00  0.00    +0.111 C 
ENDROOT
BRANCH   2   9
ATOM      9  C   UNL     1       9.770  -2.101  23.268  0.00  0.00    +0.180 C 
ATOM     10 CL   UNL     1       9.750  -3.384  24.499  0.00  0.00    -0.103 Cl
ENDBRANCH   2   9
BRANCH   6  11
ATOM     11  C   UNL     1       7.583  -1.339  22.352  0.00  0.00    +0.099 C 
BRANCH  11  12
ATOM     12  C   UNL     1       6.465  -2.295  22.509  0.00  0.00    -0.006 A 
ATOM     13  C   UNL     1       6.675  -3.721  22.219  0.00  0.00    -0.002 A 
ATOM     14  C   UNL     1       6.858  -4.995  23.035  0.00  0.00    +0.011 A 
ATOM     15  C   UNL     1       6.181  -4.820  24.425  0.00  0.00    +0.058 A 
ATOM     16 CL   UNL     1       7.307  -5.392  25.623  0.00  0.00    -0.082 Cl
ATOM     17  C   UNL     1       5.918  -3.413  24.742  0.00  0.00    +0.011 A 
ATOM     18  C   UNL     1       5.808  -2.107  24.009  0.00  0.00    -0.002 A 
ENDBRANCH  11  12
ENDBRANCH   6  11
TORSDOF 3
ENDMDL
MODEL 8
REMARK VINA RESULT:      -5.3      2.039      2.821
REMARK  Name = 
REMARK  3 active torsions:
REMARK  status: ('A' for Active; 'I' for Inactive)
REMARK    1  A    between atoms: C_2  and  C_3
REMARK    2  A    between atoms: N_8  and  C_9
REMARK    3  A    between atoms: C_9  and  C_10
REMARK                            x       y       z     vdW  Elec       q    Type
REMARK                         _______ _______ _______ _____ _____    ______ ____
ROOT
ATOM      1  O   UNL     1       9.788  -4.108  24.479  0.00  0.00    -0.273 OA
ATOM      2  C   UNL     1       8.665  -3.780  24.795  0.00  0.00    +0.242 C 
ATOM      3  N   UNL     1       7.707  -3.591  23.852  0.00  0.00    -0.276 N 
ATOM      4  C   UNL     1       8.087  -2.879  22.634  0.00  0.00    +0.111 C 
ATOM      5  C   UNL     1       7.674  -1.426  22.736  0.00  0.00    +0.094 C 
ATOM      6  N   UNL     1       6.999  -1.160  23.965  0.00  0.00    -0.266 NA
ATOM      7  C   UNL     1       5.852  -2.035  24.046  0.00  0.00    +0.094 C 
ATOM      8  C   UNL     1       6.318  -3.463  24.301  0.00  0.00    +0.111 C 
ENDROOT
BRANCH   2   9
ATOM      9  C   UNL     1       8.261  -3.586  26.233  0.00  0.00    +0.180 C 
ATOM     10 CL   UNL     1       7.970  -5.157  27.012  0.00  0.00    -0.103 Cl
ENDBRANCH   2   9
BRANCH   6  11
ATOM     11  C   UNL     1       7.850  -1.428  25.060  0.00  0.00    +0.099 C 
BRANCH  11  12
ATOM     12  C   UNL     1       8.621  -0.271  25.567  0.00  0.00    -0.006 A 
ATOM     13  C   UNL     1      10.053  -0.153  25.258  0.00  0.00    -0.002 A 
ATOM     14  C   UNL     1      10.910   0.679  24.311  0.00  0.00    +0.011 A 
ATOM     15  C   UNL     1      10.174   2.011  23.985  0.00  0.00    +0.058 A 
ATOM     16 CL   UNL     1      10.275   2.248  22.264  0.00  0.00    -0.082 Cl
ATOM     17  C   UNL     1       8.747   1.953  24.313  0.00  0.00    +0.011 A 
ATOM     18  C   UNL     1       7.831   1.117  25.162  0.00  0.00    -0.002 A 
ENDBRANCH  11  12
ENDBRANCH   6  11
TORSDOF 3
ENDMDL
MODEL 9
REMARK VINA RESULT:      -5.3      2.887      5.270
REMARK  Name = 
REMARK  3 active torsions:
REMARK  status: ('A' for Active; 'I' for Inactive)
REMARK    1  A    between atoms: C_2  and  C_3
REMARK    2  A    between atoms: N_8  and  C_9
REMARK    3  A    between atoms: C_9  and  C_10
REMARK                            x       y       z     vdW  Elec       q    Type
REMARK                         _______ _______ _______ _____ _____    ______ ____
ROOT
ATOM      1  O   UNL     1       7.951  -2.536  26.160  0.00  0.00    -0.273 OA
ATOM      2  C   UNL     1       8.561  -2.750  25.135  0.00  0.00    +0.242 C 
ATOM      3  N   UNL     1       9.212  -1.745  24.494  0.00  0.00    -0.276 N 
ATOM      4  C   UNL     1       8.531  -0.457  24.385  0.00  0.00    +0.111 C 
ATOM      5  C   UNL     1       7.880  -0.332  23.024  0.00  0.00    +0.094 C 
ATOM      6  N   UNL     1       8.140  -1.478  22.213  0.00  0.00    -0.266 NA
ATOM      7  C   UNL     1       9.572  -1.628  22.096  0.00  0.00    +0.094 C 
ATOM      8  C   UNL     1      10.146  -2.105  23.424  0.00  0.00    +0.111 C 
ENDROOT
BRANCH   2   9
ATOM      9  C   UNL     1       8.653  -4.125  24.527  0.00  0.00    +0.180 C 
ATOM     10 CL   UNL     1       7.688  -5.284  25.467  0.00  0.00    -0.103 Cl
ENDBRANCH   2   9
BRANCH   6  11
ATOM     11  C   UNL     1       7.612  -2.638  22.821  0.00  0.00    +0.099 C 
BRANCH  11  12
ATOM     12  C   UNL     1       6.316  -3.107  22.283  0.00  0.00    -0.006 A 
ATOM     13  C   UNL     1       6.226  -4.421  21.629  0.00  0.00    -0.002 A 
ATOM     14  C   UNL     1       5.692  -5.800  21.997  0.00  0.00    +0.011 A 
ATOM     15  C   UNL     1       4.571  -5.650  23.066  0.00  0.00    +0.058 A 
ATOM     16 CL   UNL     1       4.883  -6.827  24.309  0.00  0.00    -0.082 Cl
ATOM     17  C   UNL     1       4.598  -4.339  23.720  0.00  0.00    +0.011 A 
ATOM     18  C   UNL     1       5.170  -2.974  23.460  0.00  0.00    -0.002 A 
ENDBRANCH  11  12
ENDBRANCH   6  11
TORSDOF 3
ENDMDL
