MODEL 1
REMARK VINA RESULT:      -6.8      0.000      0.000
REMARK  Name = 
REMARK  4 active torsions:
REMARK  status: ('A' for Active; 'I' for Inactive)
REMARK    1  A    between atoms: C_2  and  C_3
REMARK    2  A    between atoms: N_8  and  S_9
REMARK    3  A    between atoms: S_9  and  C_12
REMARK    4  A    between atoms: C_13  and  C_14
REMARK                            x       y       z     vdW  Elec       q    Type
REMARK                         _______ _______ _______ _____ _____    ______ ____
ROOT
ATOM      1  S   UNL     1       9.171  -2.542  24.132  0.00  0.00    +0.065 S 
ATOM      2  O   UNL     1       9.410  -1.430  25.006  0.00  0.00    -0.153 OA
ATOM      3  O   UNL     1      10.129  -3.574  24.085  0.00  0.00    -0.153 OA
ENDROOT
BRANCH   1   9
ATOM      4  O   UNL     1       6.959  -6.064  28.329  0.00  0.00    -0.273 OA
ATOM      5  C   UNL     1       6.483  -5.350  27.449  0.00  0.00    +0.242 C 
ATOM      6  N   UNL     1       7.198  -4.155  27.213  0.00  0.00    -0.276 N 
ATOM      7  C   UNL     1       6.377  -3.095  26.624  0.00  0.00    +0.113 C 
ATOM      8  C   UNL     1       7.087  -2.377  25.524  0.00  0.00    +0.117 C 
ATOM      9  N   UNL     1       7.678  -3.182  24.537  0.00  0.00    -0.152 NA
ATOM     10  C   UNL     1       7.937  -4.521  24.981  0.00  0.00    +0.117 C 
ATOM     11  C   UNL     1       8.454  -4.473  26.438  0.00  0.00    +0.113 C 
BRANCH   5  12
ATOM     12  C   UNL     1       6.096  -6.012  26.119  0.00  0.00    +0.180 C 
ATOM     13 CL   UNL     1       4.571  -6.908  26.344  0.00  0.00    -0.103 Cl
ENDBRANCH   5  12
ENDBRANCH   1   9
BRANCH   1  14
ATOM     14  C   UNL     1       8.944  -1.861  22.460  0.00  0.00    +0.141 C 
ATOM     15  C   UNL     1       9.623  -0.698  22.231  0.00  0.00    +0.021 C 
BRANCH  15  16
ATOM     16  C   UNL     1       9.340   0.285  21.228  0.00  0.00    +0.001 A 
ATOM     17  C   UNL     1       8.143   0.056  20.419  0.00  0.00    +0.000 A 
ATOM     18  C   UNL     1       6.798   0.622  20.188  0.00  0.00    +0.000 A 
ATOM     19  C   UNL     1       6.638   1.960  21.017  0.00  0.00    +0.000 A 
ATOM     20  C   UNL     1       7.798   2.224  21.878  0.00  0.00    +0.000 A 
ATOM     21  C   UNL     1       9.181   1.693  22.088  0.00  0.00    +0.000 A 
ENDBRANCH  15  16
ENDBRANCH   1  14
TORSDOF 4
ENDMDL
MODEL 2
REMARK VINA RESULT:      -6.6      2.459      3.006
REMARK  Name = 
REMARK  4 active torsions:
REMARK  status: ('A' for Active; 'I' for Inactive)
REMARK    1  A    between atoms: C_2  and  C_3
REMARK    2  A    between atoms: N_8  and  S_9
REMARK    3  A    between atoms: S_9  and  C_12
REMARK    4  A    between atoms: C_13  and  C_14
REMARK                            x       y       z     vdW  Elec       q    Type
REMARK                         _______ _______ _______ _____ _____    ______ ____
ROOT
ATOM      1  S   UNL     1       8.529  -3.304  23.926  0.00  0.00    +0.065 S 
ATOM      2  O   UNL     1       7.773  -2.652  24.956  0.00  0.00    -0.153 OA
ATOM      3  O   UNL     1       9.907  -3.510  24.136  0.00  0.00    -0.153 OA
ENDROOT
BRANCH   1   9
ATOM      4  O   UNL     1       3.032  -5.270  23.015  0.00  0.00    -0.273 OA
ATOM      5  C   UNL     1       4.159  -5.749  22.904  0.00  0.00    +0.242 C 
ATOM      6  N   UNL     1       5.141  -4.837  22.457  0.00  0.00    -0.276 N 
ATOM      7  C   UNL     1       6.280  -5.487  21.804  0.00  0.00    +0.113 C 
ATOM      8  C   UNL     1       7.585  -4.898  22.231  0.00  0.00    +0.117 C 
ATOM      9  N   UNL     1       7.785  -4.772  23.615  0.00  0.00    -0.152 NA
ATOM     10  C   UNL     1       6.562  -4.754  24.363  0.00  0.00    +0.117 C 
ATOM     11  C   UNL     1       5.517  -3.915  23.591  0.00  0.00    +0.113 C 
BRANCH   5  12
ATOM     12  C   UNL     1       4.701  -6.586  24.071  0.00  0.00    +0.180 C 
ATOM     13 CL   UNL     1       3.339  -7.420  24.863  0.00  0.00    -0.103 Cl
ENDBRANCH   5  12
ENDBRANCH   1   9
BRANCH   1  14
ATOM     14  C   UNL     1       8.296  -2.335  22.404  0.00  0.00    +0.141 C 
ATOM     15  C   UNL     1       9.373  -1.574  22.051  0.00  0.00    +0.021 C 
BRANCH  15  16
ATOM     16  C   UNL     1       9.378  -0.422  21.201  0.00  0.00    +0.001 A 
ATOM     17  C   UNL     1       8.086  -0.030  20.638  0.00  0.00    +0.000 A 
ATOM     18  C   UNL     1       7.085   1.053  20.727  0.00  0.00    +0.000 A 
ATOM     19  C   UNL     1       7.632   2.203  21.666  0.00  0.00    +0.000 A 
ATOM     20  C   UNL     1       8.914   1.849  22.289  0.00  0.00    +0.000 A 
ATOM     21  C   UNL     1       9.960   0.787  22.175  0.00  0.00    +0.000 A 
ENDBRANCH  15  16
ENDBRANCH   1  14
TORSDOF 4
ENDMDL
MODEL 3
REMARK VINA RESULT:      -6.5      2.211      2.785
REMARK  Name = 
REMARK  4 active torsions:
REMARK  status: ('A' for Active; 'I' for Inactive)
REMARK    1  A    between atoms: C_2  and  C_3
REMARK    2  A    between atoms: N_8  and  S_9
REMARK    3  A    between atoms: S_9  and  C_12
REMARK    4  A    between atoms: C_13  and  C_14
REMARK                            x       y       z     vdW  Elec       q    Type
REMARK                         _______ _______ _______ _____ _____    ______ ____
ROOT
ATOM      1  S   UNL     1       6.509  -3.613  22.322  0.00  0.00    +0.065 S 
ATOM      2  O   UNL     1       7.241  -4.792  21.961  0.00  0.00    -0.153 OA
ATOM      3  O   UNL     1       5.682  -3.016  21.350  0.00  0.00    -0.153 OA
ENDROOT
BRANCH   1   9
ATOM      4  O   UNL     1       7.471  -5.847  27.707  0.00  0.00    -0.273 OA
ATOM      5  C   UNL     1       6.522  -5.304  27.145  0.00  0.00    +0.242 C 
ATOM      6  N   UNL     1       6.884  -4.275  26.248  0.00  0.00    -0.276 N 
ATOM      7  C   UNL     1       5.816  -3.295  26.029  0.00  0.00    +0.113 C 
ATOM      8  C   UNL     1       5.680  -2.922  24.589  0.00  0.00    +0.117 C 
ATOM      9  N   UNL     1       5.599  -3.986  23.677  0.00  0.00    -0.152 NA
ATOM     10  C   UNL     1       6.146  -5.210  24.188  0.00  0.00    +0.117 C 
ATOM     11  C   UNL     1       7.433  -4.888  24.983  0.00  0.00    +0.113 C 
BRANCH   5  12
ATOM     12  C   UNL     1       5.448  -6.205  26.518  0.00  0.00    +0.180 C 
ATOM     13 CL   UNL     1       3.968  -6.110  27.507  0.00  0.00    -0.103 Cl
ENDBRANCH   5  12
ENDBRANCH   1   9
BRANCH   1  14
ATOM     14  C   UNL     1       7.725  -2.392  22.903  0.00  0.00    +0.141 C 
ATOM     15  C   UNL     1       8.452  -1.805  21.907  0.00  0.00    +0.021 C 
BRANCH  15  16
ATOM     16  C   UNL     1       9.724  -1.158  22.030  0.00  0.00    +0.001 A 
ATOM     17  C   UNL     1       9.769   0.253  21.645  0.00  0.00    +0.000 A 
ATOM     18  C   UNL     1       9.948   1.592  22.244  0.00  0.00    +0.000 A 
ATOM     19  C   UNL     1      10.292   1.444  23.780  0.00  0.00    +0.000 A 
ATOM     20  C   UNL     1      10.226   0.047  24.232  0.00  0.00    +0.000 A 
ATOM     21  C   UNL     1      10.096  -1.318  23.637  0.00  0.00    +0.000 A 
ENDBRANCH  15  16
ENDBRANCH   1  14
TORSDOF 4
ENDMDL
MODEL 4
REMARK VINA RESULT:      -6.3      3.666      6.994
REMARK  Name = 
REMARK  4 active torsions:
REMARK  status: ('A' for Active; 'I' for Inactive)
REMARK    1  A    between atoms: C_2  and  C_3
REMARK    2  A    between atoms: N_8  and  S_9
REMARK    3  A    between atoms: S_9  and  C_12
REMARK    4  A    between atoms: C_13  and  C_14
REMARK                            x       y       z     vdW  Elec       q    Type
REMARK                         _______ _______ _______ _____ _____    ______ ____
ROOT
ATOM      1  S   UNL     1       9.475  -1.721  22.998  0.00  0.00    +0.065 S 
ATOM      2  O   UNL     1      10.713  -2.380  22.697  0.00  0.00    -0.153 OA
ATOM      3  O   UNL     1       9.369  -1.023  24.217  0.00  0.00    -0.153 OA
ENDROOT
BRANCH   1   9
ATOM      4  O   UNL     1       5.535   2.510  21.778  0.00  0.00    -0.273 OA
ATOM      5  C   UNL     1       6.576   2.112  21.260  0.00  0.00    +0.242 C 
ATOM      6  N   UNL     1       7.565   1.695  22.178  0.00  0.00    -0.276 N 
ATOM      7  C   UNL     1       8.924   1.767  21.636  0.00  0.00    +0.113 C 
ATOM      8  C   UNL     1       9.736   0.563  21.987  0.00  0.00    +0.117 C 
ATOM      9  N   UNL     1       9.142  -0.683  21.728  0.00  0.00    -0.152 NA
ATOM     10  C   UNL     1       7.711  -0.619  21.643  0.00  0.00    +0.117 C 
ATOM     11  C   UNL     1       7.189   0.344  22.735  0.00  0.00    +0.113 C 
BRANCH   5  12
ATOM     12  C   UNL     1       6.463   1.108  20.104  0.00  0.00    +0.180 C 
ATOM     13 CL   UNL     1       5.076   1.561  19.081  0.00  0.00    -0.103 Cl
ENDBRANCH   5  12
ENDBRANCH   1   9
BRANCH   1  14
ATOM     14  C   UNL     1       8.170  -2.985  22.918  0.00  0.00    +0.141 C 
ATOM     15  C   UNL     1       8.162  -3.853  23.972  0.00  0.00    +0.021 C 
BRANCH  15  16
ATOM     16  C   UNL     1       7.581  -5.162  24.011  0.00  0.00    +0.001 A 
ATOM     17  C   UNL     1       6.336  -5.292  24.767  0.00  0.00    +0.000 A 
ATOM     18  C   UNL     1       4.896  -5.553  24.557  0.00  0.00    +0.000 A 
ATOM     19  C   UNL     1       4.637  -5.888  23.033  0.00  0.00    +0.000 A 
ATOM     20  C   UNL     1       5.849  -5.738  22.216  0.00  0.00    +0.000 A 
ATOM     21  C   UNL     1       7.315  -5.525  22.416  0.00  0.00    +0.000 A 
ENDBRANCH  15  16
ENDBRANCH   1  14
TORSDOF 4
ENDMDL
MODEL 5
REMARK VINA RESULT:      -6.3      2.918      3.691
REMARK  Name = 
REMARK  4 active torsions:
REMARK  status: ('A' for Active; 'I' for Inactive)
REMARK    1  A    between atoms: C_2  and  C_3
REMARK    2  A    between atoms: N_8  and  S_9
REMARK    3  A    between atoms: S_9  and  C_12
REMARK    4  A    between atoms: C_13  and  C_14
REMARK                            x       y       z     vdW  Elec       q    Type
REMARK                         _______ _______ _______ _____ _____    ______ ____
ROOT
ATOM      1  S   UNL     1       6.487  -3.503  22.425  0.00  0.00    +0.065 S 
ATOM      2  O   UNL     1       7.334  -4.624  22.136  0.00  0.00    -0.153 OA
ATOM      3  O   UNL     1       5.596  -3.064  21.427  0.00  0.00    -0.153 OA
ENDROOT
BRANCH   1   9
ATOM      4  O   UNL     1       3.202  -7.985  24.436  0.00  0.00    -0.273 OA
ATOM      5  C   UNL     1       3.686  -6.968  24.930  0.00  0.00    +0.242 C 
ATOM      6  N   UNL     1       4.953  -6.614  24.416  0.00  0.00    -0.276 N 
ATOM      7  C   UNL     1       5.746  -5.800  25.341  0.00  0.00    +0.113 C 
ATOM      8  C   UNL     1       6.433  -4.668  24.649  0.00  0.00    +0.117 C 
ATOM      9  N   UNL     1       5.631  -3.871  23.817  0.00  0.00    -0.152 NA
ATOM     10  C   UNL     1       4.439  -4.536  23.376  0.00  0.00    +0.117 C 
ATOM     11  C   UNL     1       4.782  -6.007  23.045  0.00  0.00    +0.113 C 
BRANCH   5  12
ATOM     12  C   UNL     1       2.789  -5.727  25.039  0.00  0.00    +0.180 C 
ATOM     13 CL   UNL     1       2.427  -5.427  26.759  0.00  0.00    -0.103 Cl
ENDBRANCH   5  12
ENDBRANCH   1   9
BRANCH   1  14
ATOM     14  C   UNL     1       7.576  -2.127  22.903  0.00  0.00    +0.141 C 
ATOM     15  C   UNL     1       8.548  -1.836  21.988  0.00  0.00    +0.021 C 
BRANCH  15  16
ATOM     16  C   UNL     1       9.777  -1.140  22.224  0.00  0.00    +0.001 A 
ATOM     17  C   UNL     1       9.844   0.236  21.731  0.00  0.00    +0.000 A 
ATOM     18  C   UNL     1       9.913   1.624  22.232  0.00  0.00    +0.000 A 
ATOM     19  C   UNL     1      10.049   1.612  23.807  0.00  0.00    +0.000 A 
ATOM     20  C   UNL     1       9.952   0.255  24.363  0.00  0.00    +0.000 A 
ATOM     21  C   UNL     1       9.933  -1.157  23.874  0.00  0.00    +0.000 A 
ENDBRANCH  15  16
ENDBRANCH   1  14
TORSDOF 4
ENDMDL
MODEL 6
REMARK VINA RESULT:      -6.3      1.744      2.005
REMARK  Name = 
REMARK  4 active torsions:
REMARK  status: ('A' for Active; 'I' for Inactive)
REMARK    1  A    between atoms: C_2  and  C_3
REMARK    2  A    between atoms: N_8  and  S_9
REMARK    3  A    between atoms: S_9  and  C_12
REMARK    4  A    between atoms: C_13  and  C_14
REMARK                            x       y       z     vdW  Elec       q    Type
REMARK                         _______ _______ _______ _____ _____    ______ ____
ROOT
ATOM      1  S   UNL     1       9.211  -2.253  24.264  0.00  0.00    +0.065 S 
ATOM      2  O   UNL     1       9.733  -1.136  24.997  0.00  0.00    -0.153 OA
ATOM      3  O   UNL     1      10.015  -3.402  24.135  0.00  0.00    -0.153 OA
ENDROOT
BRANCH   1   9
ATOM      4  O   UNL     1       5.131  -6.476  23.597  0.00  0.00    -0.273 OA
ATOM      5  C   UNL     1       5.350  -5.597  24.429  0.00  0.00    +0.242 C 
ATOM      6  N   UNL     1       6.719  -5.353  24.678  0.00  0.00    -0.276 N 
ATOM      7  C   UNL     1       6.972  -4.766  25.996  0.00  0.00    +0.113 C 
ATOM      8  C   UNL     1       7.973  -3.659  25.937  0.00  0.00    +0.117 C 
ATOM      9  N   UNL     1       7.749  -2.670  24.966  0.00  0.00    -0.152 NA
ATOM     10  C   UNL     1       6.914  -3.116  23.888  0.00  0.00    +0.117 C 
ATOM     11  C   UNL     1       7.300  -4.569  23.526  0.00  0.00    +0.113 C 
BRANCH   5  12
ATOM     12  C   UNL     1       4.588  -4.272  24.290  0.00  0.00    +0.180 C 
ATOM     13 CL   UNL     1       3.354  -4.179  25.573  0.00  0.00    -0.103 Cl
ENDBRANCH   5  12
ENDBRANCH   1   9
BRANCH   1  14
ATOM     14  C   UNL     1       8.771  -1.641  22.609  0.00  0.00    +0.141 C 
ATOM     15  C   UNL     1       9.559  -0.620  22.160  0.00  0.00    +0.021 C 
BRANCH  15  16
ATOM     16  C   UNL     1       9.239   0.337  21.143  0.00  0.00    +0.001 A 
ATOM     17  C   UNL     1       8.141  -0.019  20.244  0.00  0.00    +0.000 A 
ATOM     18  C   UNL     1       6.760   0.390  19.914  0.00  0.00    +0.000 A 
ATOM     19  C   UNL     1       6.382   1.688  20.734  0.00  0.00    +0.000 A 
ATOM     20  C   UNL     1       7.436   2.074  21.682  0.00  0.00    +0.000 A 
ATOM     21  C   UNL     1       8.851   1.706  21.995  0.00  0.00    +0.000 A 
ENDBRANCH  15  16
ENDBRANCH   1  14
TORSDOF 4
ENDMDL
MODEL 7
REMARK VINA RESULT:      -6.2      1.591      1.974
REMARK  Name = 
REMARK  4 active torsions:
REMARK  status: ('A' for Active; 'I' for Inactive)
REMARK    1  A    between atoms: C_2  and  C_3
REMARK    2  A    between atoms: N_8  and  S_9
REMARK    3  A    between atoms: S_9  and  C_12
REMARK    4  A    between atoms: C_13  and  C_14
REMARK                            x       y       z     vdW  Elec       q    Type
REMARK                         _______ _______ _______ _____ _____    ______ ____
ROOT
ATOM      1  S   UNL     1       8.726  -3.119  25.079  0.00  0.00    +0.065 S 
ATOM      2  O   UNL     1       8.872  -2.724  26.451  0.00  0.00    -0.153 OA
ATOM      3  O   UNL     1       9.627  -4.068  24.558  0.00  0.00    -0.153 OA
ENDROOT
BRANCH   1   9
ATOM      4  O   UNL     1       5.224  -7.194  27.540  0.00  0.00    -0.273 OA
ATOM      5  C   UNL     1       5.061  -6.265  26.752  0.00  0.00    +0.242 C 
ATOM      6  N   UNL     1       5.859  -5.128  27.012  0.00  0.00    -0.276 N 
ATOM      7  C   UNL     1       5.294  -3.888  26.476  0.00  0.00    +0.113 C 
ATOM      8  C   UNL     1       6.329  -3.033  25.821  0.00  0.00    +0.117 C 
ATOM      9  N   UNL     1       7.157  -3.670  24.884  0.00  0.00    -0.152 NA
ATOM     10  C   UNL     1       7.220  -5.092  25.060  0.00  0.00    +0.117 C 
ATOM     11  C   UNL     1       7.277  -5.406  26.573  0.00  0.00    +0.113 C 
BRANCH   5  12
ATOM     12  C   UNL     1       5.067  -6.588  25.251  0.00  0.00    +0.180 C 
ATOM     13 CL   UNL     1       3.405  -6.438  24.624  0.00  0.00    -0.103 Cl
ENDBRANCH   5  12
ENDBRANCH   1   9
BRANCH   1  14
ATOM     14  C   UNL     1       8.811  -1.602  24.080  0.00  0.00    +0.141 C 
ATOM     15  C   UNL     1      10.025  -1.383  23.493  0.00  0.00    +0.021 C 
BRANCH  15  16
ATOM     16  C   UNL     1      10.546  -0.135  23.022  0.00  0.00    +0.001 A 
ATOM     17  C   UNL     1       9.761   0.544  21.991  0.00  0.00    +0.000 A 
ATOM     18  C   UNL     1       8.934   1.753  21.799  0.00  0.00    +0.000 A 
ATOM     19  C   UNL     1       8.992   2.646  23.103  0.00  0.00    +0.000 A 
ATOM     20  C   UNL     1       9.739   1.996  24.189  0.00  0.00    +0.000 A 
ATOM     21  C   UNL     1      10.620   0.804  24.386  0.00  0.00    +0.000 A 
ENDBRANCH  15  16
ENDBRANCH   1  14
TORSDOF 4
ENDMDL
MODEL 8
REMARK VINA RESULT:      -6.0      2.117      2.773
REMARK  Name = 
REMARK  4 active torsions:
REMARK  status: ('A' for Active; 'I' for Inactive)
REMARK    1  A    between atoms: C_2  and  C_3
REMARK    2  A    between atoms: N_8  and  S_9
REMARK    3  A    between atoms: S_9  and  C_12
REMARK    4  A    between atoms: C_13  and  C_14
REMARK                            x       y       z     vdW  Elec       q    Type
REMARK                         _______ _______ _______ _____ _____    ______ ____
ROOT
ATOM      1  S   UNL     1       8.295  -4.049  24.068  0.00  0.00    +0.065 S 
ATOM      2  O   UNL     1       8.830  -5.380  24.052  0.00  0.00    -0.153 OA
ATOM      3  O   UNL     1       7.442  -3.659  23.018  0.00  0.00    -0.153 OA
ENDROOT
BRANCH   1   9
ATOM      4  O   UNL     1       3.755  -6.521  26.931  0.00  0.00    -0.273 OA
ATOM      5  C   UNL     1       4.641  -5.722  27.226  0.00  0.00    +0.242 C 
ATOM      6  N   UNL     1       5.888  -5.977  26.614  0.00  0.00    -0.276 N 
ATOM      7  C   UNL     1       7.023  -5.424  27.357  0.00  0.00    +0.113 C 
ATOM      8  C   UNL     1       8.020  -4.769  26.458  0.00  0.00    +0.117 C 
ATOM      9  N   UNL     1       7.509  -3.846  25.532  0.00  0.00    -0.152 NA
ATOM     10  C   UNL     1       6.115  -4.037  25.255  0.00  0.00    +0.117 C 
ATOM     11  C   UNL     1       5.827  -5.554  25.166  0.00  0.00    +0.113 C 
BRANCH   5  12
ATOM     12  C   UNL     1       4.309  -4.224  27.156  0.00  0.00    +0.180 C 
ATOM     13 CL   UNL     1       2.646  -4.032  26.545  0.00  0.00    -0.103 Cl
ENDBRANCH   5  12
ENDBRANCH   1   9
BRANCH   1  14
ATOM     14  C   UNL     1       9.712  -2.911  24.141  0.00  0.00    +0.141 C 
ATOM     15  C   UNL     1       9.372  -1.604  24.345  0.00  0.00    +0.021 C 
BRANCH  15  16
ATOM     16  C   UNL     1      10.159  -0.447  24.038  0.00  0.00    +0.001 A 
ATOM     17  C   UNL     1      10.157  -0.019  22.640  0.00  0.00    +0.000 A 
ATOM     18  C   UNL     1       9.680   1.090  21.788  0.00  0.00    +0.000 A 
ATOM     19  C   UNL     1       9.047   2.220  22.696  0.00  0.00    +0.000 A 
ATOM     20  C   UNL     1       8.989   1.829  24.111  0.00  0.00    +0.000 A 
ATOM     21  C   UNL     1       9.508   0.740  24.994  0.00  0.00    +0.000 A 
ENDBRANCH  15  16
ENDBRANCH   1  14
TORSDOF 4
ENDMDL
MODEL 9
REMARK VINA RESULT:      -6.0      2.188      2.841
REMARK  Name = 
REMARK  4 active torsions:
REMARK  status: ('A' for Active; 'I' for Inactive)
REMARK    1  A    between atoms: C_2  and  C_3
REMARK    2  A    between atoms: N_8  and  S_9
REMARK    3  A    between atoms: S_9  and  C_12
REMARK    4  A    between atoms: C_13  and  C_14
REMARK                            x       y       z     vdW  Elec       q    Type
REMARK                         _______ _______ _______ _____ _____    ______ ____
ROOT
ATOM      1  S   UNL     1       8.146  -0.176  25.715  0.00  0.00    +0.065 S 
ATOM      2  O   UNL     1       7.210   0.838  26.105  0.00  0.00    -0.153 OA
ATOM      3  O   UNL     1       9.108  -0.596  26.654  0.00  0.00    -0.153 OA
ENDROOT
BRANCH   1   9
ATOM      4  O   UNL     1       9.214  -5.786  24.194  0.00  0.00    -0.273 OA
ATOM      5  C   UNL     1       8.205  -5.119  24.415  0.00  0.00    +0.242 C 
ATOM      6  N   UNL     1       8.350  -4.161  25.443  0.00  0.00    -0.276 N 
ATOM      7  C   UNL     1       7.080  -3.791  26.072  0.00  0.00    +0.113 C 
ATOM      8  C   UNL     1       6.971  -2.318  26.297  0.00  0.00    +0.117 C 
ATOM      9  N   UNL     1       7.259  -1.498  25.195  0.00  0.00    -0.152 NA
ATOM     10  C   UNL     1       8.072  -2.147  24.206  0.00  0.00    +0.117 C 
ATOM     11  C   UNL     1       9.150  -2.992  24.923  0.00  0.00    +0.113 C 
BRANCH   5  12
ATOM     12  C   UNL     1       7.473  -4.505  23.213  0.00  0.00    +0.180 C 
ATOM     13 CL   UNL     1       7.280  -5.756  21.957  0.00  0.00    -0.103 Cl
ENDBRANCH   5  12
ENDBRANCH   1   9
BRANCH   1  14
ATOM     14  C   UNL     1       8.991   0.429  24.222  0.00  0.00    +0.141 C 
ATOM     15  C   UNL     1       8.311   1.404  23.548  0.00  0.00    +0.021 C 
BRANCH  15  16
ATOM     16  C   UNL     1       8.469   1.776  22.174  0.00  0.00    +0.001 A 
ATOM     17  C   UNL     1       8.776   0.690  21.243  0.00  0.00    +0.000 A 
ATOM     18  C   UNL     1       8.169  -0.055  20.121  0.00  0.00    +0.000 A 
ATOM     19  C   UNL     1       6.774   0.590  19.751  0.00  0.00    +0.000 A 
ATOM     20  C   UNL     1       6.395   1.665  20.677  0.00  0.00    +0.000 A 
ATOM     21  C   UNL     1       7.012   2.463  21.781  0.00  0.00    +0.000 A 
ENDBRANCH  15  16
ENDBRANCH   1  14
TORSDOF 4
ENDMDL
