MODEL 1
REMARK VINA RESULT:      -5.7      0.000      0.000
REMARK  Name = 
REMARK  3 active torsions:
REMARK  status: ('A' for Active; 'I' for Inactive)
REMARK    1  A    between atoms: C_2  and  C_3
REMARK    2  A    between atoms: N_8  and  C_9
REMARK    3  A    between atoms: C_9  and  C_10
REMARK                            x       y       z     vdW  Elec       q    Type
REMARK                         _______ _______ _______ _____ _____    ______ ____
ROOT
ATOM      1  O   UNL     1      10.080  -3.146  23.948  0.00  0.00    -0.273 OA
ATOM      2  C   UNL     1       9.055  -3.606  24.432  0.00  0.00    +0.242 C 
ATOM      3  N   UNL     1       7.879  -3.436  23.763  0.00  0.00    -0.276 N 
ATOM      4  C   UNL     1       7.347  -4.546  22.999  0.00  0.00    +0.111 C 
ATOM      5  C   UNL     1       6.453  -4.059  21.884  0.00  0.00    +0.094 C 
ATOM      6  N   UNL     1       6.035  -2.712  22.065  0.00  0.00    -0.263 NA
ATOM      7  C   UNL     1       5.674  -2.495  23.436  0.00  0.00    +0.094 C 
ATOM      8  C   UNL     1       6.955  -2.423  24.274  0.00  0.00    +0.111 C 
ENDROOT
BRANCH   2   9
ATOM      9  C   UNL     1       8.909  -3.709  25.941  0.00  0.00    +0.180 C 
ATOM     10 CL   UNL     1       8.219  -5.294  26.368  0.00  0.00    -0.103 Cl
ENDBRANCH   2   9
BRANCH   6  11
ATOM     11  C   UNL     1       7.156  -1.847  21.766  0.00  0.00    +0.138 C 
BRANCH  11  12
ATOM     12  C   UNL     1       6.752  -0.885  20.672  0.00  0.00    +0.139 A 
ATOM     13  O   UNL     1       5.774  -1.278  19.781  0.00  0.00    -0.453 OA
ATOM     14  C   UNL     1       6.058  -0.557  18.634  0.00  0.00    +0.179 A 
ATOM     15  C   UNL     1       7.215   0.371  18.729  0.00  0.00    +0.043 A 
ATOM     16  C   UNL     1       7.753   0.072  20.136  0.00  0.00    +0.038 A 
ENDBRANCH  11  12
ENDBRANCH   6  11
TORSDOF 3
ENDMDL
MODEL 2
REMARK VINA RESULT:      -5.6      2.794      3.346
REMARK  Name = 
REMARK  3 active torsions:
REMARK  status: ('A' for Active; 'I' for Inactive)
REMARK    1  A    between atoms: C_2  and  C_3
REMARK    2  A    between atoms: N_8  and  C_9
REMARK    3  A    between atoms: C_9  and  C_10
REMARK                            x       y       z     vdW  Elec       q    Type
REMARK                         _______ _______ _______ _____ _____    ______ ____
ROOT
ATOM      1  O   UNL     1      10.169  -5.017  24.986  0.00  0.00    -0.273 OA
ATOM      2  C   UNL     1       8.988  -4.734  25.132  0.00  0.00    +0.242 C 
ATOM      3  N   UNL     1       8.473  -3.684  24.430  0.00  0.00    -0.276 N 
ATOM      4  C   UNL     1       7.681  -3.959  23.248  0.00  0.00    +0.111 C 
ATOM      5  C   UNL     1       7.714  -2.793  22.289  0.00  0.00    +0.094 C 
ATOM      6  N   UNL     1       8.165  -1.592  22.902  0.00  0.00    -0.263 NA
ATOM      7  C   UNL     1       7.568  -1.452  24.198  0.00  0.00    +0.094 C 
ATOM      8  C   UNL     1       8.246  -2.436  25.158  0.00  0.00    +0.111 C 
ENDROOT
BRANCH   2   9
ATOM      9  C   UNL     1       8.304  -4.994  26.463  0.00  0.00    +0.180 C 
ATOM     10 CL   UNL     1       6.679  -5.664  26.180  0.00  0.00    -0.103 Cl
ENDBRANCH   2   9
BRANCH   6  11
ATOM     11  C   UNL     1       9.597  -1.690  23.089  0.00  0.00    +0.138 C 
BRANCH  11  12
ATOM     12  C   UNL     1      10.210  -0.322  22.895  0.00  0.00    +0.139 A 
ATOM     13  O   UNL     1      10.627   0.375  24.010  0.00  0.00    -0.453 OA
ATOM     14  C   UNL     1      10.534   1.702  23.629  0.00  0.00    +0.179 A 
ATOM     15  C   UNL     1      10.085   1.940  22.232  0.00  0.00    +0.043 A 
ATOM     16  C   UNL     1       9.774   0.516  21.748  0.00  0.00    +0.038 A 
ENDBRANCH  11  12
ENDBRANCH   6  11
TORSDOF 3
ENDMDL
MODEL 3
REMARK VINA RESULT:      -5.6      1.671      2.282
REMARK  Name = 
REMARK  3 active torsions:
REMARK  status: ('A' for Active; 'I' for Inactive)
REMARK    1  A    between atoms: C_2  and  C_3
REMARK    2  A    between atoms: N_8  and  C_9
REMARK    3  A    between atoms: C_9  and  C_10
REMARK                            x       y       z     vdW  Elec       q    Type
REMARK                         _______ _______ _______ _____ _____    ______ ____
ROOT
ATOM      1  O   UNL     1       7.653  -5.019  23.191  0.00  0.00    -0.273 OA
ATOM      2  C   UNL     1       8.122  -4.435  24.158  0.00  0.00    +0.242 C 
ATOM      3  N   UNL     1       8.350  -3.093  24.067  0.00  0.00    -0.276 N 
ATOM      4  C   UNL     1       7.406  -2.184  24.686  0.00  0.00    +0.111 C 
ATOM      5  C   UNL     1       7.433  -0.833  24.013  0.00  0.00    +0.094 C 
ATOM      6  N   UNL     1       8.599  -0.638  23.222  0.00  0.00    -0.263 NA
ATOM      7  C   UNL     1       9.751  -1.126  23.924  0.00  0.00    +0.094 C 
ATOM      8  C   UNL     1       9.735  -2.658  23.885  0.00  0.00    +0.111 C 
ENDROOT
BRANCH   2   9
ATOM      9  C   UNL     1       9.056  -5.167  25.107  0.00  0.00    +0.180 C 
ATOM     10 CL   UNL     1       8.437  -5.039  26.772  0.00  0.00    -0.103 Cl
ENDBRANCH   2   9
BRANCH   6  11
ATOM     11  C   UNL     1       8.462  -1.420  22.012  0.00  0.00    +0.138 C 
BRANCH  11  12
ATOM     12  C   UNL     1       7.500  -0.716  21.083  0.00  0.00    +0.139 A 
ATOM     13  O   UNL     1       6.350  -1.379  20.704  0.00  0.00    -0.453 OA
ATOM     14  C   UNL     1       6.036  -0.827  19.474  0.00  0.00    +0.179 A 
ATOM     15  C   UNL     1       6.946   0.250  19.002  0.00  0.00    +0.043 A 
ATOM     16  C   UNL     1       8.023   0.263  20.097  0.00  0.00    +0.038 A 
ENDBRANCH  11  12
ENDBRANCH   6  11
TORSDOF 3
ENDMDL
MODEL 4
REMARK VINA RESULT:      -5.2      3.266      6.168
REMARK  Name = 
REMARK  3 active torsions:
REMARK  status: ('A' for Active; 'I' for Inactive)
REMARK    1  A    between atoms: C_2  and  C_3
REMARK    2  A    between atoms: N_8  and  C_9
REMARK    3  A    between atoms: C_9  and  C_10
REMARK                            x       y       z     vdW  Elec       q    Type
REMARK                         _______ _______ _______ _____ _____    ______ ____
ROOT
ATOM      1  O   UNL     1       6.486  -1.438  20.894  0.00  0.00    -0.273 OA
ATOM      2  C   UNL     1       7.230  -0.472  20.993  0.00  0.00    +0.242 C 
ATOM      3  N   UNL     1       8.222  -0.500  21.928  0.00  0.00    -0.276 N 
ATOM      4  C   UNL     1       9.575  -0.788  21.498  0.00  0.00    +0.111 C 
ATOM      5  C   UNL     1      10.390  -1.374  22.625  0.00  0.00    +0.094 C 
ATOM      6  N   UNL     1       9.799  -1.156  23.900  0.00  0.00    -0.263 NA
ATOM      7  C   UNL     1       9.300   0.187  23.982  0.00  0.00    +0.094 C 
ATOM      8  C   UNL     1       8.020   0.284  23.145  0.00  0.00    +0.111 C 
ENDROOT
BRANCH   2   9
ATOM      9  C   UNL     1       6.713   0.919  20.668  0.00  0.00    +0.180 C 
ATOM     10 CL   UNL     1       5.923   0.905  19.072  0.00  0.00    -0.103 Cl
ENDBRANCH   2   9
BRANCH   6  11
ATOM     11  C   UNL     1       8.669  -2.050  24.034  0.00  0.00    +0.138 C 
BRANCH  11  12
ATOM     12  C   UNL     1       9.028  -3.148  25.008  0.00  0.00    +0.139 A 
ATOM     13  O   UNL     1       9.735  -4.236  24.539  0.00  0.00    -0.453 OA
ATOM     14  C   UNL     1       9.376  -5.262  25.396  0.00  0.00    +0.179 A 
ATOM     15  C   UNL     1       8.443  -4.888  26.491  0.00  0.00    +0.043 A 
ATOM     16  C   UNL     1       8.133  -3.421  26.161  0.00  0.00    +0.038 A 
ENDBRANCH  11  12
ENDBRANCH   6  11
TORSDOF 3
ENDMDL
MODEL 5
REMARK VINA RESULT:      -5.2      2.669      4.240
REMARK  Name = 
REMARK  3 active torsions:
REMARK  status: ('A' for Active; 'I' for Inactive)
REMARK    1  A    between atoms: C_2  and  C_3
REMARK    2  A    between atoms: N_8  and  C_9
REMARK    3  A    between atoms: C_9  and  C_10
REMARK                            x       y       z     vdW  Elec       q    Type
REMARK                         _______ _______ _______ _____ _____    ______ ____
ROOT
ATOM      1  O   UNL     1       5.666  -3.087  21.190  0.00  0.00    -0.273 OA
ATOM      2  C   UNL     1       5.740  -3.600  22.298  0.00  0.00    +0.242 C 
ATOM      3  N   UNL     1       6.664  -3.125  23.181  0.00  0.00    -0.276 N 
ATOM      4  C   UNL     1       6.224  -2.239  24.239  0.00  0.00    +0.111 C 
ATOM      5  C   UNL     1       7.352  -1.354  24.710  0.00  0.00    +0.094 C 
ATOM      6  N   UNL     1       8.629  -1.834  24.310  0.00  0.00    -0.263 NA
ATOM      7  C   UNL     1       8.694  -3.256  24.491  0.00  0.00    +0.094 C 
ATOM      8  C   UNL     1       7.870  -3.927  23.387  0.00  0.00    +0.111 C 
ENDROOT
BRANCH   2   9
ATOM      9  C   UNL     1       5.397  -5.069  22.477  0.00  0.00    +0.180 C 
ATOM     10 CL   UNL     1       6.041  -6.006  21.106  0.00  0.00    -0.103 Cl
ENDBRANCH   2   9
BRANCH   6  11
ATOM     11  C   UNL     1       8.791  -1.566  22.897  0.00  0.00    +0.138 C 
BRANCH  11  12
ATOM     12  C   UNL     1       9.710  -0.378  22.728  0.00  0.00    +0.139 A 
ATOM     13  O   UNL     1      10.322   0.144  23.850  0.00  0.00    -0.453 OA
ATOM     14  C   UNL     1      10.540   1.471  23.524  0.00  0.00    +0.179 A 
ATOM     15  C   UNL     1      10.114   1.876  22.159  0.00  0.00    +0.043 A 
ATOM     16  C   UNL     1       9.451   0.594  21.636  0.00  0.00    +0.038 A 
ENDBRANCH  11  12
ENDBRANCH   6  11
TORSDOF 3
ENDMDL
MODEL 6
REMARK VINA RESULT:      -5.2      3.678      5.429
REMARK  Name = 
REMARK  3 active torsions:
REMARK  status: ('A' for Active; 'I' for Inactive)
REMARK    1  A    between atoms: C_2  and  C_3
REMARK    2  A    between atoms: N_8  and  C_9
REMARK    3  A    between atoms: C_9  and  C_10
REMARK                            x       y       z     vdW  Elec       q    Type
REMARK                         _______ _______ _______ _____ _____    ______ ____
ROOT
ATOM      1  O   UNL     1      10.582   0.623  24.925  0.00  0.00    -0.273 OA
ATOM      2  C   UNL     1      10.029   1.299  24.068  0.00  0.00    +0.242 C 
ATOM      3  N   UNL     1       9.214   0.678  23.168  0.00  0.00    -0.276 N 
ATOM      4  C   UNL     1       7.780   0.759  23.357  0.00  0.00    +0.111 C 
ATOM      5  C   UNL     1       7.079  -0.411  22.710  0.00  0.00    +0.094 C 
ATOM      6  N   UNL     1       7.901  -1.088  21.767  0.00  0.00    -0.263 NA
ATOM      7  C   UNL     1       8.615  -0.133  20.969  0.00  0.00    +0.094 C 
ATOM      8  C   UNL     1       9.738   0.472  21.818  0.00  0.00    +0.111 C 
ENDROOT
BRANCH   2   9
ATOM      9  C   UNL     1      10.701   2.556  23.544  0.00  0.00    +0.180 C 
ATOM     10 CL   UNL     1       9.687   3.973  23.913  0.00  0.00    -0.103 Cl
ENDBRANCH   2   9
BRANCH   6  11
ATOM     11  C   UNL     1       8.880  -1.866  22.496  0.00  0.00    +0.138 C 
BRANCH  11  12
ATOM     12  C   UNL     1       8.185  -3.042  23.143  0.00  0.00    +0.139 A 
ATOM     13  O   UNL     1       8.774  -3.625  24.247  0.00  0.00    -0.453 OA
ATOM     14  C   UNL     1       8.318  -4.932  24.217  0.00  0.00    +0.179 A 
ATOM     15  C   UNL     1       7.380  -5.260  23.111  0.00  0.00    +0.043 A 
ATOM     16  C   UNL     1       7.359  -3.950  22.309  0.00  0.00    +0.038 A 
ENDBRANCH  11  12
ENDBRANCH   6  11
TORSDOF 3
ENDMDL
MODEL 7
REMARK VINA RESULT:      -5.1      2.519      3.308
REMARK  Name = 
REMARK  3 active torsions:
REMARK  status: ('A' for Active; 'I' for Inactive)
REMARK    1  A    between atoms: C_2  and  C_3
REMARK    2  A    between atoms: N_8  and  C_9
REMARK    3  A    between atoms: C_9  and  C_10
REMARK                            x       y       z     vdW  Elec       q    Type
REMARK                         _______ _______ _______ _____ _____    ______ ____
ROOT
ATOM      1  O   UNL     1       7.167  -2.205  24.547  0.00  0.00    -0.273 OA
ATOM      2  C   UNL     1       8.374  -2.034  24.444  0.00  0.00    +0.242 C 
ATOM      3  N   UNL     1       8.830  -1.067  23.597  0.00  0.00    -0.276 N 
ATOM      4  C   UNL     1       9.266   0.197  24.155  0.00  0.00    +0.111 C 
ATOM      5  C   UNL     1       9.148   1.308  23.141  0.00  0.00    +0.094 C 
ATOM      6  N   UNL     1       9.018   0.824  21.810  0.00  0.00    -0.263 NA
ATOM      7  C   UNL     1       9.928  -0.264  21.597  0.00  0.00    +0.094 C 
ATOM      8  C   UNL     1       9.386  -1.503  22.317  0.00  0.00    +0.111 C 
ENDROOT
BRANCH   2   9
ATOM      9  C   UNL     1       9.324  -3.204  24.630  0.00  0.00    +0.180 C 
ATOM     10 CL   UNL     1       8.533  -4.708  24.097  0.00  0.00    -0.103 Cl
ENDBRANCH   2   9
BRANCH   6  11
ATOM     11  C   UNL     1       7.676   0.309  21.645  0.00  0.00    +0.138 C 
BRANCH  11  12
ATOM     12  C   UNL     1       7.094   0.863  20.365  0.00  0.00    +0.139 A 
ATOM     13  O   UNL     1       5.930   1.600  20.439  0.00  0.00    -0.453 OA
ATOM     14  C   UNL     1       5.344   1.425  19.197  0.00  0.00    +0.179 A 
ATOM     15  C   UNL     1       6.113   0.592  18.235  0.00  0.00    +0.043 A 
ATOM     16  C   UNL     1       7.301   0.127  19.091  0.00  0.00    +0.038 A 
ENDBRANCH  11  12
ENDBRANCH   6  11
TORSDOF 3
ENDMDL
MODEL 8
REMARK VINA RESULT:      -5.0      2.850      3.527
REMARK  Name = 
REMARK  3 active torsions:
REMARK  status: ('A' for Active; 'I' for Inactive)
REMARK    1  A    between atoms: C_2  and  C_3
REMARK    2  A    between atoms: N_8  and  C_9
REMARK    3  A    between atoms: C_9  and  C_10
REMARK                            x       y       z     vdW  Elec       q    Type
REMARK                         _______ _______ _______ _____ _____    ______ ____
ROOT
ATOM      1  O   UNL     1       7.852  -5.743  26.448  0.00  0.00    -0.273 OA
ATOM      2  C   UNL     1       6.778  -5.540  25.900  0.00  0.00    +0.242 C 
ATOM      3  N   UNL     1       6.746  -4.750  24.788  0.00  0.00    -0.276 N 
ATOM      4  C   UNL     1       6.652  -5.383  23.488  0.00  0.00    +0.111 C 
ATOM      5  C   UNL     1       7.228  -4.497  22.410  0.00  0.00    +0.094 C 
ATOM      6  N   UNL     1       7.366  -3.144  22.828  0.00  0.00    -0.263 NA
ATOM      7  C   UNL     1       6.200  -2.739  23.559  0.00  0.00    +0.094 C 
ATOM      8  C   UNL     1       6.245  -3.386  24.948  0.00  0.00    +0.111 C 
ENDROOT
BRANCH   2   9
ATOM      9  C   UNL     1       5.499  -5.519  26.721  0.00  0.00    +0.180 C 
ATOM     10 CL   UNL     1       4.388  -6.779  26.130  0.00  0.00    -0.103 Cl
ENDBRANCH   2   9
BRANCH   6  11
ATOM     11  C   UNL     1       8.496  -3.062  23.728  0.00  0.00    +0.138 C 
BRANCH  11  12
ATOM     12  C   UNL     1       9.454  -2.013  23.214  0.00  0.00    +0.139 A 
ATOM     13  O   UNL     1      10.059  -1.173  24.126  0.00  0.00    -0.453 OA
ATOM     14  C   UNL     1      10.326  -0.026  23.399  0.00  0.00    +0.179 A 
ATOM     15  C   UNL     1       9.940  -0.071  21.964  0.00  0.00    +0.043 A 
ATOM     16  C   UNL     1       9.248  -1.438  21.860  0.00  0.00    +0.038 A 
ENDBRANCH  11  12
ENDBRANCH   6  11
TORSDOF 3
ENDMDL
MODEL 9
REMARK VINA RESULT:      -5.0      3.366      5.029
REMARK  Name = 
REMARK  3 active torsions:
REMARK  status: ('A' for Active; 'I' for Inactive)
REMARK    1  A    between atoms: C_2  and  C_3
REMARK    2  A    between atoms: N_8  and  C_9
REMARK    3  A    between atoms: C_9  and  C_10
REMARK                            x       y       z     vdW  Elec       q    Type
REMARK                         _______ _______ _______ _____ _____    ______ ____
ROOT
ATOM      1  O   UNL     1       8.791   0.527  20.818  0.00  0.00    -0.273 OA
ATOM      2  C   UNL     1       8.987   0.724  22.009  0.00  0.00    +0.242 C 
ATOM      3  N   UNL     1       8.930  -0.333  22.868  0.00  0.00    -0.276 N 
ATOM      4  C   UNL     1      10.171  -0.916  23.337  0.00  0.00    +0.111 C 
ATOM      5  C   UNL     1       9.978  -2.359  23.735  0.00  0.00    +0.094 C 
ATOM      6  N   UNL     1       8.609  -2.695  23.929  0.00  0.00    -0.263 NA
ATOM      7  C   UNL     1       7.947  -1.645  24.648  0.00  0.00    +0.094 C 
ATOM      8  C   UNL     1       7.732  -0.462  23.697  0.00  0.00    +0.111 C 
ENDROOT
BRANCH   2   9
ATOM      9  C   UNL     1       8.604   2.058  22.629  0.00  0.00    +0.180 C 
ATOM     10 CL   UNL     1      10.000   2.731  23.507  0.00  0.00    -0.103 Cl
ENDBRANCH   2   9
BRANCH   6  11
ATOM     11  C   UNL     1       7.981  -2.799  22.630  0.00  0.00    +0.138 C 
BRANCH  11  12
ATOM     12  C   UNL     1       7.244  -4.116  22.548  0.00  0.00    +0.139 A 
ATOM     13  O   UNL     1       7.949  -5.278  22.784  0.00  0.00    -0.453 OA
ATOM     14  C   UNL     1       7.259  -6.239  22.065  0.00  0.00    +0.179 A 
ATOM     15  C   UNL     1       6.047  -5.760  21.351  0.00  0.00    +0.043 A 
ATOM     16  C   UNL     1       6.090  -4.249  21.623  0.00  0.00    +0.038 A 
ENDBRANCH  11  12
ENDBRANCH   6  11
TORSDOF 3
ENDMDL
