MODEL 1
REMARK VINA RESULT:      -6.3      0.000      0.000
REMARK  Name = 
REMARK  3 active torsions:
REMARK  status: ('A' for Active; 'I' for Inactive)
REMARK    1  A    between atoms: C_2  and  C_3
REMARK    2  A    between atoms: N_8  and  S_9
REMARK    3  A    between atoms: S_9  and  C_12
REMARK                            x       y       z     vdW  Elec       q    Type
REMARK                         _______ _______ _______ _____ _____    ______ ____
ROOT
ATOM      1  O   UNL     1       3.622  -5.061  22.724  0.00  0.00    -0.273 OA
ATOM      2  C   UNL     1       4.181  -4.660  23.727  0.00  0.00    +0.242 C 
ATOM      3  N   UNL     1       5.373  -3.961  23.553  0.00  0.00    -0.276 N 
ATOM      4  C   UNL     1       5.609  -2.926  24.544  0.00  0.00    +0.113 C 
ATOM      5  C   UNL     1       6.880  -2.184  24.314  0.00  0.00    +0.117 C 
ATOM      6  N   UNL     1       7.845  -2.862  23.547  0.00  0.00    -0.152 NA
ATOM      7  C   UNL     1       7.773  -4.278  23.739  0.00  0.00    +0.117 C 
ATOM      8  C   UNL     1       6.489  -4.792  23.100  0.00  0.00    +0.113 C 
ENDROOT
BRANCH   6   9
ATOM      9  S   UNL     1       9.355  -2.338  23.929  0.00  0.00    +0.063 S 
ATOM     10  O   UNL     1       9.238  -1.475  25.092  0.00  0.00    -0.153 OA
ATOM     11  O   UNL     1      10.159  -3.535  24.197  0.00  0.00    -0.153 OA
BRANCH   9  12
ATOM     12  C   UNL     1      10.091  -1.453  22.620  0.00  0.00    +0.122 A 
ATOM     13  C   UNL     1       9.064  -1.226  21.586  0.00  0.00    +0.020 A 
ATOM     14  C   UNL     1       8.538  -0.120  20.757  0.00  0.00    +0.001 A 
ATOM     15  C   UNL     1       8.973   1.262  21.396  0.00  0.00    +0.000 A 
ATOM     16  C   UNL     1      10.019   1.087  22.420  0.00  0.00    +0.001 A 
ATOM     17  C   UNL     1      10.509  -0.027  23.314  0.00  0.00    +0.020 A 
ENDBRANCH   9  12
ENDBRANCH   6   9
BRANCH   2  18
ATOM     18  C   UNL     1       4.088  -5.402  25.036  0.00  0.00    +0.180 C 
ATOM     19 CL   UNL     1       4.243  -7.158  24.788  0.00  0.00    -0.103 Cl
ENDBRANCH   2  18
TORSDOF 3
ENDMDL
MODEL 2
REMARK VINA RESULT:      -6.3      3.107      5.945
REMARK  Name = 
REMARK  3 active torsions:
REMARK  status: ('A' for Active; 'I' for Inactive)
REMARK    1  A    between atoms: C_2  and  C_3
REMARK    2  A    between atoms: N_8  and  S_9
REMARK    3  A    between atoms: S_9  and  C_12
REMARK                            x       y       z     vdW  Elec       q    Type
REMARK                         _______ _______ _______ _____ _____    ______ ____
ROOT
ATOM      1  O   UNL     1       7.513   0.519  19.510  0.00  0.00    -0.273 OA
ATOM      2  C   UNL     1       8.096   0.552  20.577  0.00  0.00    +0.242 C 
ATOM      3  N   UNL     1       8.245  -0.654  21.257  0.00  0.00    -0.276 N 
ATOM      4  C   UNL     1       9.465  -0.755  22.036  0.00  0.00    +0.113 C 
ATOM      5  C   UNL     1       9.602  -2.066  22.731  0.00  0.00    +0.117 C 
ATOM      6  N   UNL     1       8.400  -2.768  22.939  0.00  0.00    -0.152 NA
ATOM      7  C   UNL     1       7.295  -1.878  23.127  0.00  0.00    +0.117 C 
ATOM      8  C   UNL     1       6.995  -1.187  21.803  0.00  0.00    +0.113 C 
ENDROOT
BRANCH   6   9
ATOM      9  S   UNL     1       8.530  -3.756  24.246  0.00  0.00    +0.063 S 
ATOM     10  O   UNL     1       9.941  -4.030  24.448  0.00  0.00    -0.153 OA
ATOM     11  O   UNL     1       7.928  -3.040  25.375  0.00  0.00    -0.153 OA
BRANCH   9  12
ATOM     12  C   UNL     1       7.673  -5.258  24.017  0.00  0.00    +0.122 A 
ATOM     13  C   UNL     1       6.381  -5.160  24.720  0.00  0.00    +0.020 A 
ATOM     14  C   UNL     1       4.948  -5.421  24.466  0.00  0.00    +0.001 A 
ATOM     15  C   UNL     1       4.705  -5.516  22.905  0.00  0.00    +0.000 A 
ATOM     16  C   UNL     1       5.970  -5.640  22.159  0.00  0.00    +0.001 A 
ATOM     17  C   UNL     1       7.425  -5.310  22.397  0.00  0.00    +0.020 A 
ENDBRANCH   9  12
ENDBRANCH   6   9
BRANCH   2  18
ATOM     18  C   UNL     1       8.037   1.761  21.476  0.00  0.00    +0.180 C 
ATOM     19 CL   UNL     1       6.399   2.458  21.505  0.00  0.00    -0.103 Cl
ENDBRANCH   2  18
TORSDOF 3
ENDMDL
MODEL 3
REMARK VINA RESULT:      -6.2      2.319      3.030
REMARK  Name = 
REMARK  3 active torsions:
REMARK  status: ('A' for Active; 'I' for Inactive)
REMARK    1  A    between atoms: C_2  and  C_3
REMARK    2  A    between atoms: N_8  and  S_9
REMARK    3  A    between atoms: S_9  and  C_12
REMARK                            x       y       z     vdW  Elec       q    Type
REMARK                         _______ _______ _______ _____ _____    ______ ____
ROOT
ATOM      1  O   UNL     1       7.453  -5.783  27.732  0.00  0.00    -0.273 OA
ATOM      2  C   UNL     1       6.978  -5.622  26.624  0.00  0.00    +0.242 C 
ATOM      3  N   UNL     1       7.543  -4.628  25.830  0.00  0.00    -0.276 N 
ATOM      4  C   UNL     1       7.524  -4.916  24.407  0.00  0.00    +0.113 C 
ATOM      5  C   UNL     1       8.156  -3.842  23.590  0.00  0.00    +0.117 C 
ATOM      6  N   UNL     1       8.217  -2.576  24.200  0.00  0.00    -0.152 NA
ATOM      7  C   UNL     1       7.109  -2.359  25.080  0.00  0.00    +0.117 C 
ATOM      8  C   UNL     1       7.265  -3.267  26.293  0.00  0.00    +0.113 C 
ENDROOT
BRANCH   6   9
ATOM      9  S   UNL     1       8.247  -1.390  23.062  0.00  0.00    +0.063 S 
ATOM     10  O   UNL     1       7.851  -1.987  21.799  0.00  0.00    -0.153 OA
ATOM     11  O   UNL     1       7.311  -0.354  23.512  0.00  0.00    -0.153 OA
BRANCH   9  12
ATOM     12  C   UNL     1       9.830  -0.680  22.900  0.00  0.00    +0.122 A 
ATOM     13  C   UNL     1       9.705   0.534  22.071  0.00  0.00    +0.020 A 
ATOM     14  C   UNL     1      10.131   1.950  22.092  0.00  0.00    +0.001 A 
ATOM     15  C   UNL     1      10.551   2.346  23.566  0.00  0.00    +0.000 A 
ATOM     16  C   UNL     1      10.713   1.160  24.427  0.00  0.00    +0.001 A 
ATOM     17  C   UNL     1      10.221  -0.267  24.438  0.00  0.00    +0.020 A 
ENDBRANCH   9  12
ENDBRANCH   6   9
BRANCH   2  18
ATOM     18  C   UNL     1       5.520  -5.882  26.341  0.00  0.00    +0.180 C 
ATOM     19 CL   UNL     1       4.785  -6.869  27.626  0.00  0.00    -0.103 Cl
ENDBRANCH   2  18
TORSDOF 3
ENDMDL
MODEL 4
REMARK VINA RESULT:      -6.0      3.445      6.535
REMARK  Name = 
REMARK  3 active torsions:
REMARK  status: ('A' for Active; 'I' for Inactive)
REMARK    1  A    between atoms: C_2  and  C_3
REMARK    2  A    between atoms: N_8  and  S_9
REMARK    3  A    between atoms: S_9  and  C_12
REMARK                            x       y       z     vdW  Elec       q    Type
REMARK                         _______ _______ _______ _____ _____    ______ ____
ROOT
ATOM      1  O   UNL     1      11.030   0.997  24.423  0.00  0.00    -0.273 OA
ATOM      2  C   UNL     1       9.876   0.611  24.449  0.00  0.00    +0.242 C 
ATOM      3  N   UNL     1       9.660  -0.721  24.791  0.00  0.00    -0.276 N 
ATOM      4  C   UNL     1       8.421  -0.961  25.509  0.00  0.00    +0.113 C 
ATOM      5  C   UNL     1       8.234  -2.392  25.878  0.00  0.00    +0.117 C 
ATOM      6  N   UNL     1       8.960  -3.316  25.104  0.00  0.00    -0.152 NA
ATOM      7  C   UNL     1       9.135  -2.856  23.760  0.00  0.00    +0.117 C 
ATOM      8  C   UNL     1      10.097  -1.675  23.770  0.00  0.00    +0.113 C 
ENDROOT
BRANCH   6   9
ATOM      9  S   UNL     1       8.199  -4.773  25.085  0.00  0.00    +0.063 S 
ATOM     10  O   UNL     1       8.616  -5.467  23.879  0.00  0.00    -0.153 OA
ATOM     11  O   UNL     1       8.608  -5.475  26.306  0.00  0.00    -0.153 OA
BRANCH   9  12
ATOM     12  C   UNL     1       6.464  -4.605  25.090  0.00  0.00    +0.122 A 
ATOM     13  C   UNL     1       5.961  -5.006  23.763  0.00  0.00    +0.020 A 
ATOM     14  C   UNL     1       4.910  -5.866  23.179  0.00  0.00    +0.001 A 
ATOM     15  C   UNL     1       4.407  -6.890  24.276  0.00  0.00    +0.000 A 
ATOM     16  C   UNL     1       4.865  -6.517  25.626  0.00  0.00    +0.001 A 
ATOM     17  C   UNL     1       5.982  -5.691  26.221  0.00  0.00    +0.020 A 
ENDBRANCH   9  12
ENDBRANCH   6   9
BRANCH   2  18
ATOM     18  C   UNL     1       8.826   1.191  23.536  0.00  0.00    +0.180 C 
ATOM     19 CL   UNL     1       9.502   1.544  21.927  0.00  0.00    -0.103 Cl
ENDBRANCH   2  18
TORSDOF 3
ENDMDL
MODEL 5
REMARK VINA RESULT:      -5.9      1.926      2.415
REMARK  Name = 
REMARK  3 active torsions:
REMARK  status: ('A' for Active; 'I' for Inactive)
REMARK    1  A    between atoms: C_2  and  C_3
REMARK    2  A    between atoms: N_8  and  S_9
REMARK    3  A    between atoms: S_9  and  C_12
REMARK                            x       y       z     vdW  Elec       q    Type
REMARK                         _______ _______ _______ _____ _____    ______ ____
ROOT
ATOM      1  O   UNL     1       4.107  -5.200  22.568  0.00  0.00    -0.273 OA
ATOM      2  C   UNL     1       4.813  -4.667  23.402  0.00  0.00    +0.242 C 
ATOM      3  N   UNL     1       5.538  -3.548  22.998  0.00  0.00    -0.276 N 
ATOM      4  C   UNL     1       5.739  -2.558  24.040  0.00  0.00    +0.113 C 
ATOM      5  C   UNL     1       6.497  -1.366  23.567  0.00  0.00    +0.117 C 
ATOM      6  N   UNL     1       7.290  -1.569  22.423  0.00  0.00    -0.152 NA
ATOM      7  C   UNL     1       7.791  -2.908  22.358  0.00  0.00    +0.117 C 
ATOM      8  C   UNL     1       6.629  -3.850  22.069  0.00  0.00    +0.113 C 
ENDROOT
BRANCH   6   9
ATOM      9  S   UNL     1       8.552  -0.516  22.404  0.00  0.00    +0.063 S 
ATOM     10  O   UNL     1       8.598   0.135  23.701  0.00  0.00    -0.153 OA
ATOM     11  O   UNL     1       9.755  -1.308  22.130  0.00  0.00    -0.153 OA
BRANCH   9  12
ATOM     12  C   UNL     1       8.379   0.688  21.155  0.00  0.00    +0.122 A 
ATOM     13  C   UNL     1       8.001   0.001  19.906  0.00  0.00    +0.020 A 
ATOM     14  C   UNL     1       7.005   0.125  18.820  0.00  0.00    +0.001 A 
ATOM     15  C   UNL     1       5.815   1.049  19.308  0.00  0.00    +0.000 A 
ATOM     16  C   UNL     1       6.157   1.776  20.544  0.00  0.00    +0.001 A 
ATOM     17  C   UNL     1       7.131   1.610  21.686  0.00  0.00    +0.020 A 
ENDBRANCH   9  12
ENDBRANCH   6   9
BRANCH   2  18
ATOM     18  C   UNL     1       5.465  -5.455  24.509  0.00  0.00    +0.180 C 
ATOM     19 CL   UNL     1       4.486  -5.401  25.995  0.00  0.00    -0.103 Cl
ENDBRANCH   2  18
TORSDOF 3
ENDMDL
MODEL 6
REMARK VINA RESULT:      -5.9      2.064      2.379
REMARK  Name = 
REMARK  3 active torsions:
REMARK  status: ('A' for Active; 'I' for Inactive)
REMARK    1  A    between atoms: C_2  and  C_3
REMARK    2  A    between atoms: N_8  and  S_9
REMARK    3  A    between atoms: S_9  and  C_12
REMARK                            x       y       z     vdW  Elec       q    Type
REMARK                         _______ _______ _______ _____ _____    ______ ____
ROOT
ATOM      1  O   UNL     1       5.049  -4.314  24.888  0.00  0.00    -0.273 OA
ATOM      2  C   UNL     1       6.183  -4.130  25.288  0.00  0.00    +0.242 C 
ATOM      3  N   UNL     1       6.917  -3.120  24.671  0.00  0.00    -0.276 N 
ATOM      4  C   UNL     1       7.856  -2.444  25.548  0.00  0.00    +0.113 C 
ATOM      5  C   UNL     1       8.607  -1.355  24.862  0.00  0.00    +0.117 C 
ATOM      6  N   UNL     1       8.675  -1.459  23.461  0.00  0.00    -0.152 NA
ATOM      7  C   UNL     1       8.683  -2.824  23.031  0.00  0.00    +0.117 C 
ATOM      8  C   UNL     1       7.307  -3.425  23.294  0.00  0.00    +0.113 C 
ENDROOT
BRANCH   6   9
ATOM      9  S   UNL     1      10.021  -0.704  22.893  0.00  0.00    +0.063 S 
ATOM     10  O   UNL     1      10.666  -0.054  24.021  0.00  0.00    -0.153 OA
ATOM     11  O   UNL     1      10.860  -1.743  22.287  0.00  0.00    -0.153 OA
BRANCH   9  12
ATOM     12  C   UNL     1       9.639   0.486  21.677  0.00  0.00    +0.122 A 
ATOM     13  C   UNL     1       8.659  -0.107  20.748  0.00  0.00    +0.020 A 
ATOM     14  C   UNL     1       7.369   0.241  20.114  0.00  0.00    +0.001 A 
ATOM     15  C   UNL     1       6.702   1.436  20.910  0.00  0.00    +0.000 A 
ATOM     16  C   UNL     1       7.654   2.076  21.836  0.00  0.00    +0.001 A 
ATOM     17  C   UNL     1       8.936   1.694  22.536  0.00  0.00    +0.020 A 
ENDBRANCH   9  12
ENDBRANCH   6   9
BRANCH   2  18
ATOM     18  C   UNL     1       7.023  -5.257  25.833  0.00  0.00    +0.180 C 
ATOM     19 CL   UNL     1       6.758  -5.465  27.581  0.00  0.00    -0.103 Cl
ENDBRANCH   2  18
TORSDOF 3
ENDMDL
MODEL 7
REMARK VINA RESULT:      -5.9      3.026      4.142
REMARK  Name = 
REMARK  3 active torsions:
REMARK  status: ('A' for Active; 'I' for Inactive)
REMARK    1  A    between atoms: C_2  and  C_3
REMARK    2  A    between atoms: N_8  and  S_9
REMARK    3  A    between atoms: S_9  and  C_12
REMARK                            x       y       z     vdW  Elec       q    Type
REMARK                         _______ _______ _______ _____ _____    ______ ____
ROOT
ATOM      1  O   UNL     1       9.398  -5.421  24.596  0.00  0.00    -0.273 OA
ATOM      2  C   UNL     1       8.717  -4.441  24.826  0.00  0.00    +0.242 C 
ATOM      3  N   UNL     1       8.743  -3.414  23.886  0.00  0.00    -0.276 N 
ATOM      4  C   UNL     1       7.495  -2.683  23.764  0.00  0.00    +0.113 C 
ATOM      5  C   UNL     1       7.552  -1.608  22.734  0.00  0.00    +0.117 C 
ATOM      6  N   UNL     1       8.842  -1.148  22.412  0.00  0.00    -0.152 NA
ATOM      7  C   UNL     1       9.724  -1.221  23.536  0.00  0.00    +0.117 C 
ATOM      8  C   UNL     1      10.012  -2.687  23.835  0.00  0.00    +0.113 C 
ENDROOT
BRANCH   6   9
ATOM      9  S   UNL     1       8.780   0.403  21.870  0.00  0.00    +0.063 S 
ATOM     10  O   UNL     1      10.124   0.947  21.949  0.00  0.00    -0.153 OA
ATOM     11  O   UNL     1       8.277   0.346  20.494  0.00  0.00    -0.153 OA
BRANCH   9  12
ATOM     12  C   UNL     1       7.698   1.385  22.821  0.00  0.00    +0.122 A 
ATOM     13  C   UNL     1       8.512   2.278  23.667  0.00  0.00    +0.020 A 
ATOM     14  C   UNL     1       8.585   3.707  24.036  0.00  0.00    +0.001 A 
ATOM     15  C   UNL     1       7.776   4.561  22.977  0.00  0.00    +0.000 A 
ATOM     16  C   UNL     1       6.926   3.712  22.122  0.00  0.00    +0.001 A 
ATOM     17  C   UNL     1       6.894   2.264  21.693  0.00  0.00    +0.020 A 
ENDBRANCH   9  12
ENDBRANCH   6   9
BRANCH   2  18
ATOM     18  C   UNL     1       8.445  -3.978  26.235  0.00  0.00    +0.180 C 
ATOM     19 CL   UNL     1       7.545  -5.210  27.151  0.00  0.00    -0.103 Cl
ENDBRANCH   2  18
TORSDOF 3
ENDMDL
MODEL 8
REMARK VINA RESULT:      -5.8      1.947      2.473
REMARK  Name = 
REMARK  3 active torsions:
REMARK  status: ('A' for Active; 'I' for Inactive)
REMARK    1  A    between atoms: C_2  and  C_3
REMARK    2  A    between atoms: N_8  and  S_9
REMARK    3  A    between atoms: S_9  and  C_12
REMARK                            x       y       z     vdW  Elec       q    Type
REMARK                         _______ _______ _______ _____ _____    ______ ____
ROOT
ATOM      1  O   UNL     1       5.272  -6.289  23.733  0.00  0.00    -0.273 OA
ATOM      2  C   UNL     1       5.333  -5.124  24.079  0.00  0.00    +0.242 C 
ATOM      3  N   UNL     1       6.151  -4.282  23.330  0.00  0.00    -0.276 N 
ATOM      4  C   UNL     1       5.681  -2.911  23.248  0.00  0.00    +0.113 C 
ATOM      5  C   UNL     1       6.567  -2.044  22.421  0.00  0.00    +0.117 C 
ATOM      6  N   UNL     1       7.890  -2.500  22.273  0.00  0.00    -0.152 NA
ATOM      7  C   UNL     1       8.333  -3.222  23.426  0.00  0.00    +0.117 C 
ATOM      8  C   UNL     1       7.582  -4.545  23.492  0.00  0.00    +0.113 C 
ENDROOT
BRANCH   6   9
ATOM      9  S   UNL     1       8.906  -1.237  21.999  0.00  0.00    +0.063 S 
ATOM     10  O   UNL     1      10.264  -1.749  22.055  0.00  0.00    -0.153 OA
ATOM     11  O   UNL     1       8.562  -0.702  20.678  0.00  0.00    -0.153 OA
BRANCH   9  12
ATOM     12  C   UNL     1       8.712   0.027  23.183  0.00  0.00    +0.122 A 
ATOM     13  C   UNL     1       9.968   0.138  23.946  0.00  0.00    +0.020 A 
ATOM     14  C   UNL     1      10.911   1.181  24.403  0.00  0.00    +0.001 A 
ATOM     15  C   UNL     1      10.679   2.499  23.555  0.00  0.00    +0.000 A 
ATOM     16  C   UNL     1       9.419   2.445  22.792  0.00  0.00    +0.001 A 
ATOM     17  C   UNL     1       8.494   1.372  22.269  0.00  0.00    +0.020 A 
ENDBRANCH   9  12
ENDBRANCH   6   9
BRANCH   2  18
ATOM     18  C   UNL     1       5.189  -4.718  25.523  0.00  0.00    +0.180 C 
ATOM     19 CL   UNL     1       5.581  -6.072  26.611  0.00  0.00    -0.103 Cl
ENDBRANCH   2  18
TORSDOF 3
ENDMDL
MODEL 9
REMARK VINA RESULT:      -5.8      3.718      6.278
REMARK  Name = 
REMARK  3 active torsions:
REMARK  status: ('A' for Active; 'I' for Inactive)
REMARK    1  A    between atoms: C_2  and  C_3
REMARK    2  A    between atoms: N_8  and  S_9
REMARK    3  A    between atoms: S_9  and  C_12
REMARK                            x       y       z     vdW  Elec       q    Type
REMARK                         _______ _______ _______ _____ _____    ______ ____
ROOT
ATOM      1  O   UNL     1       8.508   1.987  22.675  0.00  0.00    -0.273 OA
ATOM      2  C   UNL     1       9.398   1.298  23.136  0.00  0.00    +0.242 C 
ATOM      3  N   UNL     1       9.092  -0.033  23.411  0.00  0.00    -0.276 N 
ATOM      4  C   UNL     1      10.203  -0.950  23.234  0.00  0.00    +0.113 C 
ATOM      5  C   UNL     1       9.834  -2.366  23.515  0.00  0.00    +0.117 C 
ATOM      6  N   UNL     1       8.706  -2.545  24.336  0.00  0.00    -0.152 NA
ATOM      7  C   UNL     1       8.571  -1.484  25.286  0.00  0.00    +0.117 C 
ATOM      8  C   UNL     1       8.183  -0.211  24.544  0.00  0.00    +0.113 C 
ENDROOT
BRANCH   6   9
ATOM      9  S   UNL     1       8.797  -3.980  25.134  0.00  0.00    +0.063 S 
ATOM     10  O   UNL     1      10.035  -4.625  24.732  0.00  0.00    -0.153 OA
ATOM     11  O   UNL     1       8.766  -3.666  26.566  0.00  0.00    -0.153 OA
BRANCH   9  12
ATOM     12  C   UNL     1       7.450  -5.022  24.761  0.00  0.00    +0.122 A 
ATOM     13  C   UNL     1       6.206  -4.274  25.022  0.00  0.00    +0.020 A 
ATOM     14  C   UNL     1       4.919  -3.980  24.358  0.00  0.00    +0.001 A 
ATOM     15  C   UNL     1       5.052  -4.277  22.808  0.00  0.00    +0.000 A 
ATOM     16  C   UNL     1       6.271  -5.047  22.501  0.00  0.00    +0.001 A 
ATOM     17  C   UNL     1       7.613  -5.290  23.151  0.00  0.00    +0.020 A 
ENDBRANCH   9  12
ENDBRANCH   6   9
BRANCH   2  18
ATOM     18  C   UNL     1      10.473   1.878  24.020  0.00  0.00    +0.180 C 
ATOM     19 CL   UNL     1      11.098   3.404  23.350  0.00  0.00    -0.103 Cl
ENDBRANCH   2  18
TORSDOF 3
ENDMDL
