MODEL 1
REMARK VINA RESULT:      -6.7      0.000      0.000
REMARK  Name = 
REMARK  3 active torsions:
REMARK  status: ('A' for Active; 'I' for Inactive)
REMARK    1  A    between atoms: C_2  and  C_3
REMARK    2  A    between atoms: N_8  and  C_9
REMARK    3  A    between atoms: C_9  and  C_10
REMARK                            x       y       z     vdW  Elec       q    Type
REMARK                         _______ _______ _______ _____ _____    ______ ____
ROOT
ATOM      1  O   UNL     1       8.234  -5.586  23.104  0.00  0.00    -0.273 OA
ATOM      2  C   UNL     1       7.285  -4.889  23.415  0.00  0.00    +0.242 C 
ATOM      3  N   UNL     1       7.120  -4.471  24.684  0.00  0.00    -0.276 N 
ATOM      4  C   UNL     1       7.867  -5.102  25.753  0.00  0.00    +0.111 C 
ATOM      5  C   UNL     1       8.755  -4.088  26.445  0.00  0.00    +0.094 C 
ATOM      6  N   UNL     1       8.601  -2.788  25.853  0.00  0.00    -0.266 NA
ATOM      7  C   UNL     1       7.225  -2.411  25.951  0.00  0.00    +0.094 C 
ATOM      8  C   UNL     1       6.408  -3.229  24.950  0.00  0.00    +0.111 C 
ENDROOT
BRANCH   2   9
ATOM      9  C   UNL     1       6.099  -4.741  22.491  0.00  0.00    +0.180 C 
ATOM     10 CL   UNL     1       6.362  -5.716  21.018  0.00  0.00    -0.103 Cl
ENDBRANCH   2   9
BRANCH   6  11
ATOM     11  C   UNL     1       8.954  -2.804  24.476  0.00  0.00    +0.099 C 
BRANCH  11  12
ATOM     12  C   UNL     1       9.818  -1.967  23.879  0.00  0.00    -0.006 A 
ATOM     13  C   UNL     1       9.675  -1.765  22.426  0.00  0.00    -0.004 A 
ATOM     14  C   UNL     1       9.473  -0.657  21.572  0.00  0.00    +0.015 A 
ATOM     15  C   UNL     1       8.217  -0.357  20.756  0.00  0.00    +0.077 C 
ATOM     16  C   UNL     1       7.997   1.175  20.859  0.00  0.00    +0.210 C 
ATOM     17  O   UNL     1       8.785   1.674  21.949  0.00  0.00    -0.475 OA
ATOM     18  C   UNL     1       9.816   0.771  22.275  0.00  0.00    +0.135 A 
ATOM     19  C   UNL     1      10.199   0.573  23.702  0.00  0.00    +0.036 A 
ATOM     20  C   UNL     1      10.090  -0.555  24.671  0.00  0.00    +0.000 A 
ENDBRANCH  11  12
ENDBRANCH   6  11
TORSDOF 3
ENDMDL
MODEL 2
REMARK VINA RESULT:      -6.5      1.981      2.963
REMARK  Name = 
REMARK  3 active torsions:
REMARK  status: ('A' for Active; 'I' for Inactive)
REMARK    1  A    between atoms: C_2  and  C_3
REMARK    2  A    between atoms: N_8  and  C_9
REMARK    3  A    between atoms: C_9  and  C_10
REMARK                            x       y       z     vdW  Elec       q    Type
REMARK                         _______ _______ _______ _____ _____    ______ ____
ROOT
ATOM      1  O   UNL     1       7.250  -3.136  25.973  0.00  0.00    -0.273 OA
ATOM      2  C   UNL     1       7.438  -4.175  25.366  0.00  0.00    +0.242 C 
ATOM      3  N   UNL     1       6.711  -4.481  24.275  0.00  0.00    -0.276 N 
ATOM      4  C   UNL     1       5.489  -3.754  23.997  0.00  0.00    +0.111 C 
ATOM      5  C   UNL     1       5.594  -3.035  22.668  0.00  0.00    +0.094 C 
ATOM      6  N   UNL     1       6.870  -3.282  22.055  0.00  0.00    -0.266 NA
ATOM      7  C   UNL     1       7.019  -4.693  21.884  0.00  0.00    +0.094 C 
ATOM      8  C   UNL     1       7.279  -5.339  23.245  0.00  0.00    +0.111 C 
ENDROOT
BRANCH   2   9
ATOM      9  C   UNL     1       8.240  -5.296  25.984  0.00  0.00    +0.180 C 
ATOM     10 CL   UNL     1       9.966  -5.097  25.568  0.00  0.00    -0.103 Cl
ENDBRANCH   2   9
BRANCH   6  11
ATOM     11  C   UNL     1       7.934  -2.825  22.880  0.00  0.00    +0.099 C 
BRANCH  11  12
ATOM     12  C   UNL     1       8.984  -2.096  22.469  0.00  0.00    -0.006 A 
ATOM     13  C   UNL     1       8.742  -1.082  21.427  0.00  0.00    -0.004 A 
ATOM     14  C   UNL     1       8.929   0.314  21.307  0.00  0.00    +0.015 A 
ATOM     15  C   UNL     1       7.831   1.372  21.223  0.00  0.00    +0.077 C 
ATOM     16  C   UNL     1       8.321   2.565  22.084  0.00  0.00    +0.210 C 
ATOM     17  O   UNL     1       9.392   2.109  22.924  0.00  0.00    -0.475 OA
ATOM     18  C   UNL     1       9.958   0.924  22.412  0.00  0.00    +0.135 A 
ATOM     19  C   UNL     1      10.411  -0.142  23.350  0.00  0.00    +0.036 A 
ATOM     20  C   UNL     1       9.955  -1.526  23.664  0.00  0.00    +0.000 A 
ENDBRANCH  11  12
ENDBRANCH   6  11
TORSDOF 3
ENDMDL
MODEL 3
REMARK VINA RESULT:      -6.3      2.208      2.768
REMARK  Name = 
REMARK  3 active torsions:
REMARK  status: ('A' for Active; 'I' for Inactive)
REMARK    1  A    between atoms: C_2  and  C_3
REMARK    2  A    between atoms: N_8  and  C_9
REMARK    3  A    between atoms: C_9  and  C_10
REMARK                            x       y       z     vdW  Elec       q    Type
REMARK                         _______ _______ _______ _____ _____    ______ ____
ROOT
ATOM      1  O   UNL     1       5.868  -2.254  24.521  0.00  0.00    -0.273 OA
ATOM      2  C   UNL     1       6.415  -2.631  25.541  0.00  0.00    +0.242 C 
ATOM      3  N   UNL     1       7.056  -3.815  25.586  0.00  0.00    -0.276 N 
ATOM      4  C   UNL     1       6.832  -4.795  24.543  0.00  0.00    +0.111 C 
ATOM      5  C   UNL     1       8.127  -5.096  23.816  0.00  0.00    +0.094 C 
ATOM      6  N   UNL     1       9.211  -4.332  24.368  0.00  0.00    -0.266 NA
ATOM      7  C   UNL     1       9.321  -4.651  25.757  0.00  0.00    +0.094 C 
ATOM      8  C   UNL     1       8.161  -4.003  26.515  0.00  0.00    +0.111 C 
ENDROOT
BRANCH   2   9
ATOM      9  C   UNL     1       6.122  -1.968  26.866  0.00  0.00    +0.180 C 
ATOM     10 CL   UNL     1       7.168  -0.532  27.060  0.00  0.00    -0.103 Cl
ENDBRANCH   2   9
BRANCH   6  11
ATOM     11  C   UNL     1       8.967  -2.936  24.257  0.00  0.00    +0.099 C 
BRANCH  11  12
ATOM     12  C   UNL     1       9.845  -2.021  23.816  0.00  0.00    -0.006 A 
ATOM     13  C   UNL     1       9.805  -1.676  22.383  0.00  0.00    -0.004 A 
ATOM     14  C   UNL     1       9.631  -0.493  21.630  0.00  0.00    +0.015 A 
ATOM     15  C   UNL     1       8.432  -0.144  20.751  0.00  0.00    +0.077 C 
ATOM     16  C   UNL     1       8.153   1.362  20.987  0.00  0.00    +0.210 C 
ATOM     17  O   UNL     1       8.838   1.769  22.181  0.00  0.00    -0.475 OA
ATOM     18  C   UNL     1       9.872   0.865  22.496  0.00  0.00    +0.135 A 
ATOM     19  C   UNL     1      10.152   0.533  23.922  0.00  0.00    +0.036 A 
ATOM     20  C   UNL     1      10.008  -0.689  24.762  0.00  0.00    +0.000 A 
ENDBRANCH  11  12
ENDBRANCH   6  11
TORSDOF 3
ENDMDL
MODEL 4
REMARK VINA RESULT:      -6.2      2.964      5.840
REMARK  Name = 
REMARK  3 active torsions:
REMARK  status: ('A' for Active; 'I' for Inactive)
REMARK    1  A    between atoms: C_2  and  C_3
REMARK    2  A    between atoms: N_8  and  C_9
REMARK    3  A    between atoms: C_9  and  C_10
REMARK                            x       y       z     vdW  Elec       q    Type
REMARK                         _______ _______ _______ _____ _____    ______ ____
ROOT
ATOM      1  O   UNL     1       6.743   0.449  23.005  0.00  0.00    -0.273 OA
ATOM      2  C   UNL     1       7.753   1.120  22.892  0.00  0.00    +0.242 C 
ATOM      3  N   UNL     1       8.597   1.281  23.930  0.00  0.00    -0.276 N 
ATOM      4  C   UNL     1       8.163   0.941  25.270  0.00  0.00    +0.111 C 
ATOM      5  C   UNL     1       9.037  -0.157  25.843  0.00  0.00    +0.094 C 
ATOM      6  N   UNL     1      10.050  -0.545  24.901  0.00  0.00    -0.266 NA
ATOM      7  C   UNL     1      10.829   0.609  24.580  0.00  0.00    +0.094 C 
ATOM      8  C   UNL     1      10.009   1.534  23.680  0.00  0.00    +0.111 C 
ENDROOT
BRANCH   2   9
ATOM      9  C   UNL     1       7.933   2.055  21.720  0.00  0.00    +0.180 C 
ATOM     10 CL   UNL     1       7.442   3.707  22.191  0.00  0.00    -0.103 Cl
ENDBRANCH   2   9
BRANCH   6  11
ATOM     11  C   UNL     1       9.473  -1.035  23.697  0.00  0.00    +0.099 C 
BRANCH  11  12
ATOM     12  C   UNL     1       9.387  -2.326  23.340  0.00  0.00    -0.006 A 
ATOM     13  C   UNL     1       9.846  -3.333  24.314  0.00  0.00    -0.004 A 
ATOM     14  C   UNL     1       9.274  -4.452  24.962  0.00  0.00    +0.015 A 
ATOM     15  C   UNL     1       8.955  -4.574  26.450  0.00  0.00    +0.077 C 
ATOM     16  C   UNL     1       7.590  -5.304  26.536  0.00  0.00    +0.210 C 
ATOM     17  O   UNL     1       6.965  -5.252  25.245  0.00  0.00    -0.475 OA
ATOM     18  C   UNL     1       7.917  -4.992  24.240  0.00  0.00    +0.135 A 
ATOM     19  C   UNL     1       7.554  -4.117  23.089  0.00  0.00    +0.036 A 
ATOM     20  C   UNL     1       7.976  -2.765  22.624  0.00  0.00    +0.000 A 
ENDBRANCH  11  12
ENDBRANCH   6  11
TORSDOF 3
ENDMDL
MODEL 5
REMARK VINA RESULT:      -6.2      2.185      5.464
REMARK  Name = 
REMARK  3 active torsions:
REMARK  status: ('A' for Active; 'I' for Inactive)
REMARK    1  A    between atoms: C_2  and  C_3
REMARK    2  A    between atoms: N_8  and  C_9
REMARK    3  A    between atoms: C_9  and  C_10
REMARK                            x       y       z     vdW  Elec       q    Type
REMARK                         _______ _______ _______ _____ _____    ______ ____
ROOT
ATOM      1  O   UNL     1       7.508   1.754  21.298  0.00  0.00    -0.273 OA
ATOM      2  C   UNL     1       8.079   0.759  20.892  0.00  0.00    +0.242 C 
ATOM      3  N   UNL     1       9.266   0.383  21.407  0.00  0.00    -0.276 N 
ATOM      4  C   UNL     1      10.033   1.318  22.205  0.00  0.00    +0.111 C 
ATOM      5  C   UNL     1      10.227   0.777  23.607  0.00  0.00    +0.094 C 
ATOM      6  N   UNL     1       9.603  -0.510  23.748  0.00  0.00    -0.266 NA
ATOM      7  C   UNL     1      10.174  -1.392  22.778  0.00  0.00    +0.094 C 
ATOM      8  C   UNL     1       9.648  -1.022  21.391  0.00  0.00    +0.111 C 
ENDROOT
BRANCH   2   9
ATOM      9  C   UNL     1       7.662   0.103  19.597  0.00  0.00    +0.180 C 
ATOM     10 CL   UNL     1       6.167  -0.840  19.857  0.00  0.00    -0.103 Cl
ENDBRANCH   2   9
BRANCH   6  11
ATOM     11  C   UNL     1       8.205  -0.435  23.503  0.00  0.00    +0.099 C 
BRANCH  11  12
ATOM     12  C   UNL     1       7.262  -1.166  24.118  0.00  0.00    -0.006 A 
ATOM     13  C   UNL     1       6.281  -1.865  23.267  0.00  0.00    -0.004 A 
ATOM     14  C   UNL     1       5.865  -3.203  23.089  0.00  0.00    +0.015 A 
ATOM     15  C   UNL     1       6.100  -4.070  21.853  0.00  0.00    +0.077 C 
ATOM     16  C   UNL     1       6.450  -5.484  22.384  0.00  0.00    +0.210 C 
ATOM     17  O   UNL     1       6.796  -5.375  23.772  0.00  0.00    -0.475 OA
ATOM     18  C   UNL     1       6.290  -4.181  24.321  0.00  0.00    +0.135 A 
ATOM     19  C   UNL     1       7.094  -3.432  25.328  0.00  0.00    +0.036 A 
ATOM     20  C   UNL     1       7.798  -2.118  25.343  0.00  0.00    +0.000 A 
ENDBRANCH  11  12
ENDBRANCH   6  11
TORSDOF 3
ENDMDL
MODEL 6
REMARK VINA RESULT:      -6.0      2.597      5.645
REMARK  Name = 
REMARK  3 active torsions:
REMARK  status: ('A' for Active; 'I' for Inactive)
REMARK    1  A    between atoms: C_2  and  C_3
REMARK    2  A    between atoms: N_8  and  C_9
REMARK    3  A    between atoms: C_9  and  C_10
REMARK                            x       y       z     vdW  Elec       q    Type
REMARK                         _______ _______ _______ _____ _____    ______ ____
ROOT
ATOM      1  O   UNL     1       6.922   1.747  21.802  0.00  0.00    -0.273 OA
ATOM      2  C   UNL     1       7.424   0.782  21.255  0.00  0.00    +0.242 C 
ATOM      3  N   UNL     1       8.742   0.530  21.368  0.00  0.00    -0.276 N 
ATOM      4  C   UNL     1       9.633   1.563  21.857  0.00  0.00    +0.111 C 
ATOM      5  C   UNL     1      10.313   1.111  23.133  0.00  0.00    +0.094 C 
ATOM      6  N   UNL     1       9.890  -0.213  23.495  0.00  0.00    -0.266 NA
ATOM      7  C   UNL     1      10.201  -1.094  22.413  0.00  0.00    +0.094 C 
ATOM      8  C   UNL     1       9.229  -0.838  21.261  0.00  0.00    +0.111 C 
ENDROOT
BRANCH   2   9
ATOM      9  C   UNL     1       6.679   0.030  20.178  0.00  0.00    +0.180 C 
ATOM     10 CL   UNL     1       7.347   0.457  18.578  0.00  0.00    -0.103 Cl
ENDBRANCH   2   9
BRANCH   6  11
ATOM     11  C   UNL     1       8.486  -0.264  23.712  0.00  0.00    +0.099 C 
BRANCH  11  12
ATOM     12  C   UNL     1       7.869  -0.946  24.690  0.00  0.00    -0.006 A 
ATOM     13  C   UNL     1       7.386  -2.302  24.372  0.00  0.00    -0.004 A 
ATOM     14  C   UNL     1       7.596  -3.600  24.889  0.00  0.00    +0.015 A 
ATOM     15  C   UNL     1       8.323  -4.748  24.192  0.00  0.00    +0.077 C 
ATOM     16  C   UNL     1       9.167  -5.448  25.289  0.00  0.00    +0.210 C 
ATOM     17  O   UNL     1       9.260  -4.569  26.420  0.00  0.00    -0.475 OA
ATOM     18  C   UNL     1       8.235  -3.603  26.387  0.00  0.00    +0.135 A 
ATOM     19  C   UNL     1       8.520  -2.210  26.836  0.00  0.00    +0.036 A 
ATOM     20  C   UNL     1       8.600  -0.885  26.159  0.00  0.00    +0.000 A 
ENDBRANCH  11  12
ENDBRANCH   6  11
TORSDOF 3
ENDMDL
MODEL 7
REMARK VINA RESULT:      -6.0      2.274      3.938
REMARK  Name = 
REMARK  3 active torsions:
REMARK  status: ('A' for Active; 'I' for Inactive)
REMARK    1  A    between atoms: C_2  and  C_3
REMARK    2  A    between atoms: N_8  and  C_9
REMARK    3  A    between atoms: C_9  and  C_10
REMARK                            x       y       z     vdW  Elec       q    Type
REMARK                         _______ _______ _______ _____ _____    ______ ____
ROOT
ATOM      1  O   UNL     1       6.893  -3.702  25.228  0.00  0.00    -0.273 OA
ATOM      2  C   UNL     1       7.496  -4.520  24.558  0.00  0.00    +0.242 C 
ATOM      3  N   UNL     1       6.836  -5.405  23.786  0.00  0.00    -0.276 N 
ATOM      4  C   UNL     1       5.416  -5.617  23.987  0.00  0.00    +0.111 C 
ATOM      5  C   UNL     1       4.647  -5.254  22.732  0.00  0.00    +0.094 C 
ATOM      6  N   UNL     1       5.540  -4.810  21.698  0.00  0.00    -0.266 NA
ATOM      7  C   UNL     1       6.477  -5.857  21.435  0.00  0.00    +0.094 C 
ATOM      8  C   UNL     1       7.474  -5.940  22.592  0.00  0.00    +0.111 C 
ENDROOT
BRANCH   2   9
ATOM      9  C   UNL     1       8.959  -4.798  24.809  0.00  0.00    +0.180 C 
ATOM     10 CL   UNL     1       9.929  -3.376  24.331  0.00  0.00    -0.103 Cl
ENDBRANCH   2   9
BRANCH   6  11
ATOM     11  C   UNL     1       6.269  -3.660  22.106  0.00  0.00    +0.099 C 
BRANCH  11  12
ATOM     12  C   UNL     1       5.926  -2.386  21.856  0.00  0.00    -0.006 A 
ATOM     13  C   UNL     1       6.527  -1.341  22.705  0.00  0.00    -0.004 A 
ATOM     14  C   UNL     1       7.307  -0.183  22.488  0.00  0.00    +0.015 A 
ATOM     15  C   UNL     1       8.767   0.017  22.888  0.00  0.00    +0.077 C 
ATOM     16  C   UNL     1       9.433   0.775  21.710  0.00  0.00    +0.210 C 
ATOM     17  O   UNL     1       8.577   0.671  20.563  0.00  0.00    -0.475 OA
ATOM     18  C   UNL     1       7.262   0.345  20.948  0.00  0.00    +0.135 A 
ATOM     19  C   UNL     1       6.453  -0.578  20.101  0.00  0.00    +0.036 A 
ATOM     20  C   UNL     1       5.916  -1.958  20.272  0.00  0.00    +0.000 A 
ENDBRANCH  11  12
ENDBRANCH   6  11
TORSDOF 3
ENDMDL
MODEL 8
REMARK VINA RESULT:      -6.0      3.061      6.075
REMARK  Name = 
REMARK  3 active torsions:
REMARK  status: ('A' for Active; 'I' for Inactive)
REMARK    1  A    between atoms: C_2  and  C_3
REMARK    2  A    between atoms: N_8  and  C_9
REMARK    3  A    between atoms: C_9  and  C_10
REMARK                            x       y       z     vdW  Elec       q    Type
REMARK                         _______ _______ _______ _____ _____    ______ ____
ROOT
ATOM      1  O   UNL     1      10.601  -1.711  22.357  0.00  0.00    -0.273 OA
ATOM      2  C   UNL     1       9.955  -0.923  23.024  0.00  0.00    +0.242 C 
ATOM      3  N   UNL     1       9.067  -0.092  22.446  0.00  0.00    -0.276 N 
ATOM      4  C   UNL     1       9.098   0.111  21.012  0.00  0.00    +0.111 C 
ATOM      5  C   UNL     1       7.790  -0.332  20.388  0.00  0.00    +0.094 C 
ATOM      6  N   UNL     1       6.887  -0.820  21.393  0.00  0.00    -0.266 NA
ATOM      7  C   UNL     1       6.669   0.223  22.346  0.00  0.00    +0.094 C 
ATOM      8  C   UNL     1       7.921   0.384  23.208  0.00  0.00    +0.111 C 
ENDROOT
BRANCH   2   9
ATOM      9  C   UNL     1      10.350  -0.612  24.448  0.00  0.00    +0.180 C 
ATOM     10 CL   UNL     1      11.260   0.925  24.495  0.00  0.00    -0.103 Cl
ENDBRANCH   2   9
BRANCH   6  11
ATOM     11  C   UNL     1       7.437  -1.936  22.082  0.00  0.00    +0.099 C 
BRANCH  11  12
ATOM     12  C   UNL     1       6.847  -3.133  22.230  0.00  0.00    -0.006 A 
ATOM     13  C   UNL     1       7.671  -4.236  22.758  0.00  0.00    -0.004 A 
ATOM     14  C   UNL     1       7.598  -5.117  23.860  0.00  0.00    +0.015 A 
ATOM     15  C   UNL     1       8.528  -5.136  25.071  0.00  0.00    +0.077 C 
ATOM     16  C   UNL     1       7.622  -5.398  26.302  0.00  0.00    +0.210 C 
ATOM     17  O   UNL     1       6.260  -5.148  25.924  0.00  0.00    -0.475 OA
ATOM     18  C   UNL     1       6.113  -5.200  24.524  0.00  0.00    +0.135 A 
ATOM     19  C   UNL     1       5.183  -4.252  23.845  0.00  0.00    +0.036 A 
ATOM     20  C   UNL     1       5.354  -3.102  22.912  0.00  0.00    +0.000 A 
ENDBRANCH  11  12
ENDBRANCH   6  11
TORSDOF 3
ENDMDL
MODEL 9
REMARK VINA RESULT:      -6.0      3.274      6.149
REMARK  Name = 
REMARK  3 active torsions:
REMARK  status: ('A' for Active; 'I' for Inactive)
REMARK    1  A    between atoms: C_2  and  C_3
REMARK    2  A    between atoms: N_8  and  C_9
REMARK    3  A    between atoms: C_9  and  C_10
REMARK                            x       y       z     vdW  Elec       q    Type
REMARK                         _______ _______ _______ _____ _____    ______ ____
ROOT
ATOM      1  O   UNL     1      10.077   1.077  24.661  0.00  0.00    -0.273 OA
ATOM      2  C   UNL     1       9.227   1.729  24.081  0.00  0.00    +0.242 C 
ATOM      3  N   UNL     1       8.957   1.511  22.780  0.00  0.00    -0.276 N 
ATOM      4  C   UNL     1       9.881   0.743  21.970  0.00  0.00    +0.111 C 
ATOM      5  C   UNL     1       9.201  -0.500  21.432  0.00  0.00    +0.094 C 
ATOM      6  N   UNL     1       7.833  -0.562  21.868  0.00  0.00    -0.266 NA
ATOM      7  C   UNL     1       7.165   0.619  21.418  0.00  0.00    +0.094 C 
ATOM      8  C   UNL     1       7.630   1.809  22.258  0.00  0.00    +0.111 C 
ENDROOT
BRANCH   2   9
ATOM      9  C   UNL     1       8.687   3.004  24.683  0.00  0.00    +0.180 C 
ATOM     10 CL   UNL     1       9.579   4.403  24.021  0.00  0.00    -0.103 Cl
ENDBRANCH   2   9
BRANCH   6  11
ATOM     11  C   UNL     1       7.747  -0.602  23.287  0.00  0.00    +0.099 C 
BRANCH  11  12
ATOM     12  C   UNL     1       7.493  -1.694  24.025  0.00  0.00    -0.006 A 
ATOM     13  C   UNL     1       6.442  -2.610  23.545  0.00  0.00    -0.004 A 
ATOM     14  C   UNL     1       6.369  -3.979  23.203  0.00  0.00    +0.015 A 
ATOM     15  C   UNL     1       6.153  -4.556  21.806  0.00  0.00    +0.077 C 
ATOM     16  C   UNL     1       7.090  -5.787  21.702  0.00  0.00    +0.210 C 
ATOM     17  O   UNL     1       8.060  -5.709  22.757  0.00  0.00    -0.475 OA
ATOM     18  C   UNL     1       7.612  -4.857  23.785  0.00  0.00    +0.135 A 
ATOM     19  C   UNL     1       8.588  -3.977  24.491  0.00  0.00    +0.036 A 
ATOM     20  C   UNL     1       8.817  -2.506  24.558  0.00  0.00    +0.000 A 
ENDBRANCH  11  12
ENDBRANCH   6  11
TORSDOF 3
ENDMDL
