MODEL 1
REMARK VINA RESULT:      -6.7      0.000      0.000
REMARK  Name = 
REMARK  3 active torsions:
REMARK  status: ('A' for Active; 'I' for Inactive)
REMARK    1  A    between atoms: C_2  and  C_3
REMARK    2  A    between atoms: C_11  and  S_12
REMARK    3  A    between atoms: S_12  and  N_15
REMARK                            x       y       z     vdW  Elec       q    Type
REMARK                         _______ _______ _______ _____ _____    ______ ____
ROOT
ATOM      1  O   UNL     1      10.977   0.599  24.481  0.00  0.00    -0.216 OA
ATOM      2  C   UNL     1       9.936   0.448  23.989  0.00  0.00    +0.422 C 
ATOM      3  N   UNL     1       9.997   0.550  22.558  0.00  0.00    -0.113 N 
ATOM      4  C   UNL     1       9.951  -0.814  22.095  0.00  0.00    +0.234 A 
ATOM      5  C   UNL     1      10.669  -1.510  23.153  0.00  0.00    +0.071 A 
ATOM      6  C   UNL     1       9.850  -2.697  23.745  0.00  0.00    +0.026 A 
ATOM      7  C   UNL     1       8.444  -2.616  23.265  0.00  0.00    +0.123 A 
ATOM      8  C   UNL     1       7.722  -2.113  22.010  0.00  0.00    +0.026 A 
ATOM      9  C   UNL     1       8.527  -0.949  21.556  0.00  0.00    +0.066 A 
ATOM     10  C   UNL     1       7.665   0.200  21.824  0.00  0.00    +0.012 A 
ATOM     11  C   UNL     1       8.012   1.633  21.499  0.00  0.00    +0.076 A 
ATOM     12  C   UNL     1       9.523   1.521  21.940  0.00  0.00    +0.298 A 
ENDROOT
BRANCH   7  13
ATOM     13  S   UNL     1       7.698  -4.095  23.424  0.00  0.00    +0.063 S 
ATOM     14  O   UNL     1       7.052  -4.535  22.201  0.00  0.00    -0.153 OA
ATOM     15  O   UNL     1       8.662  -5.124  23.920  0.00  0.00    -0.153 OA
BRANCH  13  16
ATOM     16  N   UNL     1       6.509  -4.045  24.602  0.00  0.00    -0.156 NA
ATOM     17  C   UNL     1       6.743  -5.148  25.497  0.00  0.00    +0.096 C 
ATOM     18  C   UNL     1       7.420  -4.614  26.774  0.00  0.00    +0.021 C 
ATOM     19  C   UNL     1       7.306  -3.068  26.674  0.00  0.00    +0.021 C 
ATOM     20  C   UNL     1       6.592  -2.816  25.327  0.00  0.00    +0.096 C 
ENDBRANCH  13  16
ENDBRANCH   7  13
BRANCH   2  21
ATOM     21  C   UNL     1       8.647   1.147  24.409  0.00  0.00    +0.238 C 
ATOM     22 CL   UNL     1       8.088   0.401  25.936  0.00  0.00    -0.098 Cl
ENDBRANCH   2  21
TORSDOF 3
ENDMDL
MODEL 2
REMARK VINA RESULT:      -6.7      2.636      5.638
REMARK  Name = 
REMARK  3 active torsions:
REMARK  status: ('A' for Active; 'I' for Inactive)
REMARK    1  A    between atoms: C_2  and  C_3
REMARK    2  A    between atoms: C_11  and  S_12
REMARK    3  A    between atoms: S_12  and  N_15
REMARK                            x       y       z     vdW  Elec       q    Type
REMARK                         _______ _______ _______ _____ _____    ______ ____
ROOT
ATOM      1  O   UNL     1       6.868  -3.771  25.987  0.00  0.00    -0.216 OA
ATOM      2  C   UNL     1       7.034  -3.942  24.851  0.00  0.00    +0.422 C 
ATOM      3  N   UNL     1       5.834  -4.375  24.192  0.00  0.00    -0.113 N 
ATOM      4  C   UNL     1       5.344  -3.198  23.520  0.00  0.00    +0.234 A 
ATOM      5  C   UNL     1       5.741  -2.144  24.442  0.00  0.00    +0.071 A 
ATOM      6  C   UNL     1       6.569  -1.024  23.743  0.00  0.00    +0.026 A 
ATOM      7  C   UNL     1       6.972  -1.480  22.386  0.00  0.00    +0.123 A 
ATOM      8  C   UNL     1       6.397  -2.399  21.302  0.00  0.00    +0.026 A 
ATOM      9  C   UNL     1       5.687  -3.467  22.055  0.00  0.00    +0.066 A 
ATOM     10  C   UNL     1       6.507  -4.656  21.832  0.00  0.00    +0.012 A 
ATOM     11  C   UNL     1       6.187  -6.034  22.360  0.00  0.00    +0.076 A 
ATOM     12  C   UNL     1       5.690  -5.538  23.772  0.00  0.00    +0.298 A 
ENDROOT
BRANCH   7  13
ATOM     13  S   UNL     1       7.375  -0.173  21.438  0.00  0.00    +0.063 S 
ATOM     14  O   UNL     1       6.791  -0.239  20.110  0.00  0.00    -0.153 OA
ATOM     15  O   UNL     1       7.012   1.107  22.119  0.00  0.00    -0.153 OA
BRANCH  13  16
ATOM     16  N   UNL     1       9.033  -0.072  21.226  0.00  0.00    -0.156 NA
ATOM     17  C   UNL     1       9.454   1.206  21.740  0.00  0.00    +0.096 C 
ATOM     18  C   UNL     1      10.082   0.998  23.131  0.00  0.00    +0.021 C 
ATOM     19  C   UNL     1      10.251  -0.540  23.271  0.00  0.00    +0.021 C 
ATOM     20  C   UNL     1       9.682  -1.116  21.955  0.00  0.00    +0.096 C 
ENDBRANCH  13  16
ENDBRANCH   7  13
BRANCH   2  21
ATOM     21  C   UNL     1       8.172  -4.746  24.232  0.00  0.00    +0.238 C 
ATOM     22 CL   UNL     1       9.705  -3.890  24.580  0.00  0.00    -0.098 Cl
ENDBRANCH   2  21
TORSDOF 3
ENDMDL
MODEL 3
REMARK VINA RESULT:      -6.7      1.749      2.372
REMARK  Name = 
REMARK  3 active torsions:
REMARK  status: ('A' for Active; 'I' for Inactive)
REMARK    1  A    between atoms: C_2  and  C_3
REMARK    2  A    between atoms: C_11  and  S_12
REMARK    3  A    between atoms: S_12  and  N_15
REMARK                            x       y       z     vdW  Elec       q    Type
REMARK                         _______ _______ _______ _____ _____    ______ ____
ROOT
ATOM      1  O   UNL     1      11.007   0.235  24.465  0.00  0.00    -0.216 OA
ATOM      2  C   UNL     1       9.973   0.505  24.012  0.00  0.00    +0.422 C 
ATOM      3  N   UNL     1      10.078   0.907  22.637  0.00  0.00    -0.113 N 
ATOM      4  C   UNL     1       9.642  -0.244  21.888  0.00  0.00    +0.234 A 
ATOM      5  C   UNL     1      10.114  -1.337  22.725  0.00  0.00    +0.071 A 
ATOM      6  C   UNL     1       8.978  -2.343  23.085  0.00  0.00    +0.026 A 
ATOM      7  C   UNL     1       7.662  -1.756  22.714  0.00  0.00    +0.123 A 
ATOM      8  C   UNL     1       7.132  -0.796  21.643  0.00  0.00    +0.026 A 
ATOM      9  C   UNL     1       8.247   0.160  21.412  0.00  0.00    +0.066 A 
ATOM     10  C   UNL     1       7.753   1.415  21.975  0.00  0.00    +0.012 A 
ATOM     11  C   UNL     1       8.506   2.723  21.955  0.00  0.00    +0.076 A 
ATOM     12  C   UNL     1       9.914   2.087  22.276  0.00  0.00    +0.298 A 
ENDROOT
BRANCH   7  13
ATOM     13  S   UNL     1       6.516  -2.956  22.584  0.00  0.00    +0.063 S 
ATOM     14  O   UNL     1       5.465  -2.842  23.578  0.00  0.00    -0.153 OA
ATOM     15  O   UNL     1       5.945  -2.995  21.203  0.00  0.00    -0.153 OA
BRANCH  13  16
ATOM     16  N   UNL     1       7.204  -4.469  22.787  0.00  0.00    -0.156 NA
ATOM     17  C   UNL     1       6.486  -5.130  23.846  0.00  0.00    +0.096 C 
ATOM     18  C   UNL     1       5.503  -6.140  23.223  0.00  0.00    +0.021 C 
ATOM     19  C   UNL     1       5.905  -6.220  21.724  0.00  0.00    +0.021 C 
ATOM     20  C   UNL     1       7.080  -5.228  21.581  0.00  0.00    +0.096 C 
ENDBRANCH  13  16
ENDBRANCH   7  13
BRANCH   2  21
ATOM     21  C   UNL     1       8.939   1.429  24.646  0.00  0.00    +0.238 C 
ATOM     22 CL   UNL     1       7.778   0.414  25.555  0.00  0.00    -0.098 Cl
ENDBRANCH   2  21
TORSDOF 3
ENDMDL
MODEL 4
REMARK VINA RESULT:      -6.6      2.436      5.753
REMARK  Name = 
REMARK  3 active torsions:
REMARK  status: ('A' for Active; 'I' for Inactive)
REMARK    1  A    between atoms: C_2  and  C_3
REMARK    2  A    between atoms: C_11  and  S_12
REMARK    3  A    between atoms: S_12  and  N_15
REMARK                            x       y       z     vdW  Elec       q    Type
REMARK                         _______ _______ _______ _____ _____    ______ ____
ROOT
ATOM      1  O   UNL     1       8.258  -5.747  23.159  0.00  0.00    -0.216 OA
ATOM      2  C   UNL     1       7.607  -4.786  23.145  0.00  0.00    +0.422 C 
ATOM      3  N   UNL     1       6.833  -4.642  24.346  0.00  0.00    -0.113 N 
ATOM      4  C   UNL     1       7.540  -3.651  25.117  0.00  0.00    +0.234 A 
ATOM      5  C   UNL     1       8.923  -3.929  24.758  0.00  0.00    +0.071 A 
ATOM      6  C   UNL     1       9.668  -2.661  24.240  0.00  0.00    +0.026 A 
ATOM      7  C   UNL     1       8.682  -1.579  23.981  0.00  0.00    +0.123 A 
ATOM      8  C   UNL     1       7.332  -1.139  24.560  0.00  0.00    +0.026 A 
ATOM      9  C   UNL     1       6.667  -2.405  24.965  0.00  0.00    +0.066 A 
ATOM     10  C   UNL     1       5.571  -2.546  24.008  0.00  0.00    +0.012 A 
ATOM     11  C   UNL     1       4.559  -3.666  24.016  0.00  0.00    +0.076 A 
ATOM     12  C   UNL     1       5.598  -4.801  24.364  0.00  0.00    +0.298 A 
ENDROOT
BRANCH   7  13
ATOM     13  S   UNL     1       9.448  -0.102  23.946  0.00  0.00    +0.063 S 
ATOM     14  O   UNL     1       8.584   0.991  24.354  0.00  0.00    -0.153 OA
ATOM     15  O   UNL     1      10.696  -0.133  24.767  0.00  0.00    -0.153 OA
BRANCH  13  16
ATOM     16  N   UNL     1       9.981   0.262  22.401  0.00  0.00    -0.156 NA
ATOM     17  C   UNL     1       9.379  -0.689  21.503  0.00  0.00    +0.096 C 
ATOM     18  C   UNL     1       8.196  -0.011  20.785  0.00  0.00    +0.021 C 
ATOM     19  C   UNL     1       8.331   1.499  21.125  0.00  0.00    +0.021 C 
ATOM     20  C   UNL     1       9.571   1.584  22.042  0.00  0.00    +0.096 C 
ENDBRANCH  13  16
ENDBRANCH   7  13
BRANCH   2  21
ATOM     21  C   UNL     1       6.699  -4.346  22.001  0.00  0.00    +0.238 C 
ATOM     22 CL   UNL     1       6.399  -5.769  20.958  0.00  0.00    -0.098 Cl
ENDBRANCH   2  21
TORSDOF 3
ENDMDL
MODEL 5
REMARK VINA RESULT:      -6.6      2.030      5.966
REMARK  Name = 
REMARK  3 active torsions:
REMARK  status: ('A' for Active; 'I' for Inactive)
REMARK    1  A    between atoms: C_2  and  C_3
REMARK    2  A    between atoms: C_11  and  S_12
REMARK    3  A    between atoms: S_12  and  N_15
REMARK                            x       y       z     vdW  Elec       q    Type
REMARK                         _______ _______ _______ _____ _____    ______ ____
ROOT
ATOM      1  O   UNL     1       4.359  -4.502  22.696  0.00  0.00    -0.216 OA
ATOM      2  C   UNL     1       5.055  -4.261  23.593  0.00  0.00    +0.422 C 
ATOM      3  N   UNL     1       5.890  -5.377  23.940  0.00  0.00    -0.113 N 
ATOM      4  C   UNL     1       7.180  -5.052  23.388  0.00  0.00    +0.234 A 
ATOM      5  C   UNL     1       6.810  -4.322  22.183  0.00  0.00    +0.071 A 
ATOM      6  C   UNL     1       7.495  -2.924  22.103  0.00  0.00    +0.026 A 
ATOM      7  C   UNL     1       8.112  -2.599  23.417  0.00  0.00    +0.123 A 
ATOM      8  C   UNL     1       8.748  -3.378  24.573  0.00  0.00    +0.026 A 
ATOM      9  C   UNL     1       7.996  -4.660  24.619  0.00  0.00    +0.066 A 
ATOM     10  C   UNL     1       7.222  -4.566  25.855  0.00  0.00    +0.012 A 
ATOM     11  C   UNL     1       6.313  -5.648  26.386  0.00  0.00    +0.076 A 
ATOM     12  C   UNL     1       5.715  -6.040  24.980  0.00  0.00    +0.298 A 
ENDROOT
BRANCH   7  13
ATOM     13  S   UNL     1       9.266  -1.414  23.230  0.00  0.00    +0.063 S 
ATOM     14  O   UNL     1      10.041  -1.187  24.436  0.00  0.00    -0.153 OA
ATOM     15  O   UNL     1      10.158  -1.722  22.071  0.00  0.00    -0.153 OA
BRANCH  13  16
ATOM     16  N   UNL     1       8.564   0.052  22.829  0.00  0.00    -0.156 NA
ATOM     17  C   UNL     1       8.800   0.956  23.925  0.00  0.00    +0.096 C 
ATOM     18  C   UNL     1       9.957   1.901  23.546  0.00  0.00    +0.021 C 
ATOM     19  C   UNL     1      10.190   1.663  22.029  0.00  0.00    +0.021 C 
ATOM     20  C   UNL     1       9.166   0.573  21.642  0.00  0.00    +0.096 C 
ENDBRANCH  13  16
ENDBRANCH   7  13
BRANCH   2  21
ATOM     21  C   UNL     1       4.619  -3.633  24.912  0.00  0.00    +0.238 C 
ATOM     22 CL   UNL     1       5.124  -1.916  24.897  0.00  0.00    -0.098 Cl
ENDBRANCH   2  21
TORSDOF 3
ENDMDL
MODEL 6
REMARK VINA RESULT:      -6.5      1.598      2.073
REMARK  Name = 
REMARK  3 active torsions:
REMARK  status: ('A' for Active; 'I' for Inactive)
REMARK    1  A    between atoms: C_2  and  C_3
REMARK    2  A    between atoms: C_11  and  S_12
REMARK    3  A    between atoms: S_12  and  N_15
REMARK                            x       y       z     vdW  Elec       q    Type
REMARK                         _______ _______ _______ _____ _____    ______ ____
ROOT
ATOM      1  O   UNL     1      10.449   1.844  21.639  0.00  0.00    -0.216 OA
ATOM      2  C   UNL     1       9.650   1.598  22.445  0.00  0.00    +0.422 C 
ATOM      3  N   UNL     1       8.314   1.774  21.949  0.00  0.00    -0.113 N 
ATOM      4  C   UNL     1       7.849   0.438  21.676  0.00  0.00    +0.234 A 
ATOM      5  C   UNL     1       9.075  -0.220  21.247  0.00  0.00    +0.071 A 
ATOM      6  C   UNL     1       9.364  -1.521  22.056  0.00  0.00    +0.026 A 
ATOM      7  C   UNL     1       8.462  -1.580  23.237  0.00  0.00    +0.123 A 
ATOM      8  C   UNL     1       7.047  -1.104  23.584  0.00  0.00    +0.026 A 
ATOM      9  C   UNL     1       6.883   0.165  22.828  0.00  0.00    +0.066 A 
ATOM     10  C   UNL     1       6.872   1.192  23.868  0.00  0.00    +0.012 A 
ATOM     11  C   UNL     1       6.687   2.670  23.618  0.00  0.00    +0.076 A 
ATOM     12  C   UNL     1       7.586   2.713  22.322  0.00  0.00    +0.298 A 
ENDROOT
BRANCH   7  13
ATOM     13  S   UNL     1       8.362  -3.141  23.805  0.00  0.00    +0.063 S 
ATOM     14  O   UNL     1       7.700  -4.038  22.875  0.00  0.00    -0.153 OA
ATOM     15  O   UNL     1       9.715  -3.658  24.175  0.00  0.00    -0.153 OA
BRANCH  13  16
ATOM     16  N   UNL     1       7.492  -3.207  25.234  0.00  0.00    -0.156 NA
ATOM     17  C   UNL     1       6.540  -4.281  25.109  0.00  0.00    +0.096 C 
ATOM     18  C   UNL     1       7.069  -5.504  25.882  0.00  0.00    +0.021 C 
ATOM     19  C   UNL     1       8.273  -4.970  26.706  0.00  0.00    +0.021 C 
ATOM     20  C   UNL     1       8.372  -3.475  26.329  0.00  0.00    +0.096 C 
ENDBRANCH  13  16
ENDBRANCH   7  13
BRANCH   2  21
ATOM     21  C   UNL     1       9.643   2.122  23.877  0.00  0.00    +0.238 C 
ATOM     22 CL   UNL     1      10.412   0.887  24.919  0.00  0.00    -0.098 Cl
ENDBRANCH   2  21
TORSDOF 3
ENDMDL
MODEL 7
REMARK VINA RESULT:      -6.2      1.701      2.105
REMARK  Name = 
REMARK  3 active torsions:
REMARK  status: ('A' for Active; 'I' for Inactive)
REMARK    1  A    between atoms: C_2  and  C_3
REMARK    2  A    between atoms: C_11  and  S_12
REMARK    3  A    between atoms: S_12  and  N_15
REMARK                            x       y       z     vdW  Elec       q    Type
REMARK                         _______ _______ _______ _____ _____    ______ ____
ROOT
ATOM      1  O   UNL     1       9.639   1.822  22.136  0.00  0.00    -0.216 OA
ATOM      2  C   UNL     1       8.759   1.065  22.143  0.00  0.00    +0.422 C 
ATOM      3  N   UNL     1       8.814   0.166  21.024  0.00  0.00    -0.113 N 
ATOM      4  C   UNL     1       9.330  -1.063  21.571  0.00  0.00    +0.234 A 
ATOM      5  C   UNL     1      10.237  -0.572  22.598  0.00  0.00    +0.071 A 
ATOM      6  C   UNL     1       9.945  -1.198  23.996  0.00  0.00    +0.026 A 
ATOM      7  C   UNL     1       8.638  -1.907  23.958  0.00  0.00    +0.123 A 
ATOM      8  C   UNL     1       7.810  -2.662  22.912  0.00  0.00    +0.026 A 
ATOM      9  C   UNL     1       8.095  -1.962  21.632  0.00  0.00    +0.066 A 
ATOM     10  C   UNL     1       6.838  -1.287  21.315  0.00  0.00    +0.012 A 
ATOM     11  C   UNL     1       6.591  -0.462  20.075  0.00  0.00    +0.076 A 
ATOM     12  C   UNL     1       8.008   0.233  20.078  0.00  0.00    +0.298 A 
ENDROOT
BRANCH   7  13
ATOM     13  S   UNL     1       8.542  -3.000  25.209  0.00  0.00    +0.063 S 
ATOM     14  O   UNL     1       9.561  -4.032  25.136  0.00  0.00    -0.153 OA
ATOM     15  O   UNL     1       8.584  -2.300  26.528  0.00  0.00    -0.153 OA
BRANCH  13  16
ATOM     16  N   UNL     1       7.064  -3.787  25.208  0.00  0.00    -0.156 NA
ATOM     17  C   UNL     1       7.310  -5.167  25.538  0.00  0.00    +0.096 C 
ATOM     18  C   UNL     1       6.941  -5.396  27.016  0.00  0.00    +0.021 C 
ATOM     19  C   UNL     1       6.191  -4.106  27.448  0.00  0.00    +0.021 C 
ATOM     20  C   UNL     1       6.202  -3.208  26.192  0.00  0.00    +0.096 C 
ENDBRANCH  13  16
ENDBRANCH   7  13
BRANCH   2  21
ATOM     21  C   UNL     1       7.287   1.415  22.332  0.00  0.00    +0.238 C 
ATOM     22 CL   UNL     1       6.876   1.153  24.054  0.00  0.00    -0.098 Cl
ENDBRANCH   2  21
TORSDOF 3
ENDMDL
MODEL 8
REMARK VINA RESULT:      -6.2      2.247      2.905
REMARK  Name = 
REMARK  3 active torsions:
REMARK  status: ('A' for Active; 'I' for Inactive)
REMARK    1  A    between atoms: C_2  and  C_3
REMARK    2  A    between atoms: C_11  and  S_12
REMARK    3  A    between atoms: S_12  and  N_15
REMARK                            x       y       z     vdW  Elec       q    Type
REMARK                         _______ _______ _______ _____ _____    ______ ____
ROOT
ATOM      1  O   UNL     1      10.455   1.739  21.669  0.00  0.00    -0.216 OA
ATOM      2  C   UNL     1       9.726   1.533  22.548  0.00  0.00    +0.422 C 
ATOM      3  N   UNL     1       8.423   2.086  22.307  0.00  0.00    -0.113 N 
ATOM      4  C   UNL     1       7.615   0.957  21.919  0.00  0.00    +0.234 A 
ATOM      5  C   UNL     1       8.581   0.135  21.204  0.00  0.00    +0.071 A 
ATOM      6  C   UNL     1       8.641  -1.323  21.753  0.00  0.00    +0.026 A 
ATOM      7  C   UNL     1       7.904  -1.396  23.043  0.00  0.00    +0.123 A 
ATOM      8  C   UNL     1       6.702  -0.692  23.682  0.00  0.00    +0.026 A 
ATOM      9  C   UNL     1       6.761   0.698  23.159  0.00  0.00    +0.066 A 
ATOM     10  C   UNL     1       7.129   1.496  24.327  0.00  0.00    +0.012 A 
ATOM     11  C   UNL     1       7.281   2.998  24.332  0.00  0.00    +0.076 A 
ATOM     12  C   UNL     1       7.997   3.077  22.928  0.00  0.00    +0.298 A 
ENDROOT
BRANCH   7  13
ATOM     13  S   UNL     1       7.497  -2.974  23.382  0.00  0.00    +0.063 S 
ATOM     14  O   UNL     1       8.653  -3.847  23.477  0.00  0.00    -0.153 OA
ATOM     15  O   UNL     1       6.663  -3.052  24.619  0.00  0.00    -0.153 OA
BRANCH  13  16
ATOM     16  N   UNL     1       6.515  -3.611  22.184  0.00  0.00    -0.156 NA
ATOM     17  C   UNL     1       7.102  -4.856  21.763  0.00  0.00    +0.096 C 
ATOM     18  C   UNL     1       6.324  -6.016  22.412  0.00  0.00    +0.021 C 
ATOM     19  C   UNL     1       5.056  -5.358  23.023  0.00  0.00    +0.021 C 
ATOM     20  C   UNL     1       5.205  -3.853  22.705  0.00  0.00    +0.096 C 
ENDBRANCH  13  16
ENDBRANCH   7  13
BRANCH   2  21
ATOM     21  C   UNL     1      10.022   1.776  24.024  0.00  0.00    +0.238 C 
ATOM     22 CL   UNL     1      10.584   0.232  24.734  0.00  0.00    -0.098 Cl
ENDBRANCH   2  21
TORSDOF 3
ENDMDL
MODEL 9
REMARK VINA RESULT:      -6.0      2.341      5.843
REMARK  Name = 
REMARK  3 active torsions:
REMARK  status: ('A' for Active; 'I' for Inactive)
REMARK    1  A    between atoms: C_2  and  C_3
REMARK    2  A    between atoms: C_11  and  S_12
REMARK    3  A    between atoms: S_12  and  N_15
REMARK                            x       y       z     vdW  Elec       q    Type
REMARK                         _______ _______ _______ _____ _____    ______ ____
ROOT
ATOM      1  O   UNL     1       7.353  -5.805  26.251  0.00  0.00    -0.216 OA
ATOM      2  C   UNL     1       6.822  -5.150  25.453  0.00  0.00    +0.422 C 
ATOM      3  N   UNL     1       5.899  -4.224  26.046  0.00  0.00    -0.113 N 
ATOM      4  C   UNL     1       6.588  -2.959  26.024  0.00  0.00    +0.234 A 
ATOM      5  C   UNL     1       7.969  -3.371  26.223  0.00  0.00    +0.071 A 
ATOM      6  C   UNL     1       8.920  -2.815  25.120  0.00  0.00    +0.026 A 
ATOM      7  C   UNL     1       8.110  -2.254  24.006  0.00  0.00    +0.123 A 
ATOM      8  C   UNL     1       6.747  -1.570  23.854  0.00  0.00    +0.026 A 
ATOM      9  C   UNL     1       5.892  -2.204  24.892  0.00  0.00    +0.066 A 
ATOM     10  C   UNL     1       4.943  -3.004  24.122  0.00  0.00    +0.012 A 
ATOM     11  C   UNL     1       3.822  -3.822  24.718  0.00  0.00    +0.076 A 
ATOM     12  C   UNL     1       4.665  -4.357  25.940  0.00  0.00    +0.298 A 
ENDROOT
BRANCH   7  13
ATOM     13  S   UNL     1       9.033  -1.208  23.097  0.00  0.00    +0.063 S 
ATOM     14  O   UNL     1      10.444  -1.268  23.428  0.00  0.00    -0.153 OA
ATOM     15  O   UNL     1       8.815  -1.442  21.637  0.00  0.00    -0.153 OA
BRANCH  13  16
ATOM     16  N   UNL     1       8.553   0.378  23.334  0.00  0.00    -0.156 NA
ATOM     17  C   UNL     1       9.417   0.944  24.338  0.00  0.00    +0.096 C 
ATOM     18  C   UNL     1      10.473   1.824  23.643  0.00  0.00    +0.021 C 
ATOM     19  C   UNL     1       9.984   1.956  22.175  0.00  0.00    +0.021 C 
ATOM     20  C   UNL     1       8.689   1.117  22.117  0.00  0.00    +0.096 C 
ENDBRANCH  13  16
ENDBRANCH   7  13
BRANCH   2  21
ATOM     21  C   UNL     1       6.151  -5.665  24.185  0.00  0.00    +0.238 C 
ATOM     22 CL   UNL     1       7.319  -5.502  22.838  0.00  0.00    -0.098 Cl
ENDBRANCH   2  21
TORSDOF 3
ENDMDL
