MODEL 1
REMARK VINA RESULT:      -6.4      0.000      0.000
REMARK  Name = 
REMARK  4 active torsions:
REMARK  status: ('A' for Active; 'I' for Inactive)
REMARK    1  A    between atoms: O_2  and  C_3
REMARK    2  A    between atoms: C_6  and  S_7
REMARK    3  A    between atoms: S_7  and  N_10
REMARK    4  A    between atoms: C_14  and  C_16
REMARK                            x       y       z     vdW  Elec       q    Type
REMARK                         _______ _______ _______ _____ _____    ______ ____
ROOT
ATOM      1  S   UNL     1       9.725  -1.461  23.663  0.00  0.00    +0.063 S 
ATOM      2  O   UNL     1      10.537  -2.575  23.128  0.00  0.00    -0.153 OA
ATOM      3  O   UNL     1       9.753  -1.466  25.135  0.00  0.00    -0.153 OA
ENDROOT
BRANCH   1   4
ATOM      4  N   UNL     1       8.226  -1.658  23.174  0.00  0.00    -0.152 NA
ATOM      5  C   UNL     1       7.937  -2.642  22.257  0.00  0.00    +0.117 C 
ATOM      6  C   UNL     1       7.446  -3.947  22.866  0.00  0.00    +0.113 C 
ATOM      7  N   UNL     1       7.438  -3.794  24.326  0.00  0.00    -0.276 N 
ATOM      8  C   UNL     1       8.536  -4.198  25.012  0.00  0.00    +0.242 C 
ATOM      9  O   UNL     1       9.604  -4.350  24.457  0.00  0.00    -0.273 OA
ATOM     10  C   UNL     1       6.723  -2.614  24.840  0.00  0.00    +0.113 C 
ATOM     11  C   UNL     1       7.242  -1.387  24.120  0.00  0.00    +0.117 C 
BRANCH   8  12
ATOM     12  C   UNL     1       8.440  -4.093  26.518  0.00  0.00    +0.180 C 
ATOM     13 CL   UNL     1       7.482  -5.449  27.161  0.00  0.00    -0.103 Cl
ENDBRANCH   8  12
ENDBRANCH   1   4
BRANCH   1  17
ATOM     14  C   UNL     1       8.955   2.829  22.834  0.00  0.00    +0.139 A 
ATOM     15  C   UNL     1       9.946   2.403  23.841  0.00  0.00    +0.038 A 
ATOM     16  C   UNL     1      10.546   1.065  24.265  0.00  0.00    +0.023 A 
ATOM     17  C   UNL     1      10.470   0.053  23.121  0.00  0.00    +0.122 A 
ATOM     18  C   UNL     1       9.658   0.529  21.985  0.00  0.00    +0.023 A 
ATOM     19  C   UNL     1       8.801   1.714  21.650  0.00  0.00    +0.038 A 
BRANCH  14  21
ATOM     20  C   UNL     1       6.904   3.801  22.269  0.00  0.00    +0.252 C 
ATOM     21  O   UNL     1       7.712   3.213  23.242  0.00  0.00    -0.471 OA
ENDBRANCH  14  21
ENDBRANCH   1  17
TORSDOF 4
ENDMDL
MODEL 2
REMARK VINA RESULT:      -6.3      3.262      6.245
REMARK  Name = 
REMARK  4 active torsions:
REMARK  status: ('A' for Active; 'I' for Inactive)
REMARK    1  A    between atoms: O_2  and  C_3
REMARK    2  A    between atoms: C_6  and  S_7
REMARK    3  A    between atoms: S_7  and  N_10
REMARK    4  A    between atoms: C_14  and  C_16
REMARK                            x       y       z     vdW  Elec       q    Type
REMARK                         _______ _______ _______ _____ _____    ______ ____
ROOT
ATOM      1  S   UNL     1       8.360  -3.405  23.691  0.00  0.00    +0.063 S 
ATOM      2  O   UNL     1       9.775  -3.478  24.113  0.00  0.00    -0.153 OA
ATOM      3  O   UNL     1       8.258  -2.856  22.328  0.00  0.00    -0.153 OA
ENDROOT
BRANCH   1   4
ATOM      4  N   UNL     1       7.590  -2.442  24.693  0.00  0.00    -0.152 NA
ATOM      5  C   UNL     1       8.228  -1.997  25.828  0.00  0.00    +0.117 C 
ATOM      6  C   UNL     1       8.868  -0.623  25.695  0.00  0.00    +0.113 C 
ATOM      7  N   UNL     1       8.637  -0.144  24.327  0.00  0.00    -0.276 N 
ATOM      8  C   UNL     1       9.596  -0.386  23.398  0.00  0.00    +0.242 C 
ATOM      9  O   UNL     1      10.436  -1.243  23.571  0.00  0.00    -0.273 OA
ATOM     10  C   UNL     1       7.237  -0.174  23.868  0.00  0.00    +0.113 C 
ATOM     11  C   UNL     1       6.683  -1.563  24.109  0.00  0.00    +0.117 C 
BRANCH   8  12
ATOM     12  C   UNL     1       9.340   0.201  22.028  0.00  0.00    +0.180 C 
ATOM     13 CL   UNL     1      10.072   1.821  21.915  0.00  0.00    -0.103 Cl
ENDBRANCH   8  12
ENDBRANCH   1   4
BRANCH   1  17
ATOM     14  C   UNL     1       4.691  -5.839  23.147  0.00  0.00    +0.139 A 
ATOM     15  C   UNL     1       5.856  -5.987  22.252  0.00  0.00    +0.038 A 
ATOM     16  C   UNL     1       7.280  -5.438  22.236  0.00  0.00    +0.023 A 
ATOM     17  C   UNL     1       7.729  -5.060  23.648  0.00  0.00    +0.122 A 
ATOM     18  C   UNL     1       6.630  -5.109  24.633  0.00  0.00    +0.023 A 
ATOM     19  C   UNL     1       5.150  -5.351  24.636  0.00  0.00    +0.038 A 
BRANCH  14  21
ATOM     20  C   UNL     1       2.447  -5.260  23.455  0.00  0.00    +0.252 C 
ATOM     21  O   UNL     1       3.632  -5.083  22.741  0.00  0.00    -0.471 OA
ENDBRANCH  14  21
ENDBRANCH   1  17
TORSDOF 4
ENDMDL
MODEL 3
REMARK VINA RESULT:      -6.2      2.838      6.019
REMARK  Name = 
REMARK  4 active torsions:
REMARK  status: ('A' for Active; 'I' for Inactive)
REMARK    1  A    between atoms: O_2  and  C_3
REMARK    2  A    between atoms: C_6  and  S_7
REMARK    3  A    between atoms: S_7  and  N_10
REMARK    4  A    between atoms: C_14  and  C_16
REMARK                            x       y       z     vdW  Elec       q    Type
REMARK                         _______ _______ _______ _____ _____    ______ ____
ROOT
ATOM      1  S   UNL     1       8.683  -2.444  23.217  0.00  0.00    +0.063 S 
ATOM      2  O   UNL     1      10.040  -2.276  22.654  0.00  0.00    -0.153 OA
ATOM      3  O   UNL     1       7.663  -2.185  22.186  0.00  0.00    -0.153 OA
ENDROOT
BRANCH   1   4
ATOM      4  N   UNL     1       8.500  -1.396  24.397  0.00  0.00    -0.152 NA
ATOM      5  C   UNL     1       9.582  -0.661  24.823  0.00  0.00    +0.117 C 
ATOM      6  C   UNL     1       9.688   0.724  24.200  0.00  0.00    +0.113 C 
ATOM      7  N   UNL     1       8.572   0.888  23.262  0.00  0.00    -0.276 N 
ATOM      8  C   UNL     1       8.787   0.578  21.959  0.00  0.00    +0.242 C 
ATOM      9  O   UNL     1       9.718  -0.123  21.624  0.00  0.00    -0.273 OA
ATOM     10  C   UNL     1       7.233   0.602  23.806  0.00  0.00    +0.113 C 
ATOM     11  C   UNL     1       7.262  -0.765  24.458  0.00  0.00    +0.117 C 
BRANCH   8  12
ATOM     12  C   UNL     1       7.626   0.844  21.025  0.00  0.00    +0.180 C 
ATOM     13 CL   UNL     1       7.882  -0.008  19.482  0.00  0.00    -0.103 Cl
ENDBRANCH   8  12
ENDBRANCH   1   4
BRANCH   1  17
ATOM     14  C   UNL     1       7.479  -5.100  26.560  0.00  0.00    +0.139 A 
ATOM     15  C   UNL     1       6.803  -5.156  25.248  0.00  0.00    +0.038 A 
ATOM     16  C   UNL     1       7.044  -4.515  23.884  0.00  0.00    +0.023 A 
ATOM     17  C   UNL     1       8.517  -4.135  23.718  0.00  0.00    +0.122 A 
ATOM     18  C   UNL     1       9.290  -4.274  24.967  0.00  0.00    +0.023 A 
ATOM     19  C   UNL     1       9.030  -4.613  26.405  0.00  0.00    +0.038 A 
BRANCH  14  21
ATOM     20  C   UNL     1       6.016  -3.392  27.203  0.00  0.00    +0.252 C 
ATOM     21  O   UNL     1       6.897  -4.407  27.579  0.00  0.00    -0.471 OA
ENDBRANCH  14  21
ENDBRANCH   1  17
TORSDOF 4
ENDMDL
MODEL 4
REMARK VINA RESULT:      -6.2      2.926      6.108
REMARK  Name = 
REMARK  4 active torsions:
REMARK  status: ('A' for Active; 'I' for Inactive)
REMARK    1  A    between atoms: O_2  and  C_3
REMARK    2  A    between atoms: C_6  and  S_7
REMARK    3  A    between atoms: S_7  and  N_10
REMARK    4  A    between atoms: C_14  and  C_16
REMARK                            x       y       z     vdW  Elec       q    Type
REMARK                         _______ _______ _______ _____ _____    ______ ____
ROOT
ATOM      1  S   UNL     1       9.013  -1.314  24.138  0.00  0.00    +0.063 S 
ATOM      2  O   UNL     1      10.202  -1.653  23.327  0.00  0.00    -0.153 OA
ATOM      3  O   UNL     1       7.842  -1.103  23.270  0.00  0.00    -0.153 OA
ENDROOT
BRANCH   1   4
ATOM      4  N   UNL     1       9.317   0.030  24.929  0.00  0.00    -0.152 NA
ATOM      5  C   UNL     1      10.583   0.567  24.889  0.00  0.00    +0.117 C 
ATOM      6  C   UNL     1      10.774   1.657  23.845  0.00  0.00    +0.113 C 
ATOM      7  N   UNL     1       9.506   1.824  23.124  0.00  0.00    -0.276 N 
ATOM      8  C   UNL     1       9.332   1.125  21.975  0.00  0.00    +0.242 C 
ATOM      9  O   UNL     1      10.012   0.153  21.721  0.00  0.00    -0.273 OA
ATOM     10  C   UNL     1       8.316   2.035  23.966  0.00  0.00    +0.113 C 
ATOM     11  C   UNL     1       8.264   0.936  25.007  0.00  0.00    +0.117 C 
BRANCH   8  12
ATOM     12  C   UNL     1       8.042   1.397  21.234  0.00  0.00    +0.180 C 
ATOM     13 CL   UNL     1       7.848   0.230  19.903  0.00  0.00    -0.103 Cl
ENDBRANCH   8  12
ENDBRANCH   1   4
BRANCH   1  17
ATOM     14  C   UNL     1       6.852  -5.182  24.362  0.00  0.00    +0.139 A 
ATOM     15  C   UNL     1       8.318  -5.106  24.525  0.00  0.00    +0.038 A 
ATOM     16  C   UNL     1       9.331  -3.970  24.645  0.00  0.00    +0.023 A 
ATOM     17  C   UNL     1       8.662  -2.703  25.180  0.00  0.00    +0.122 A 
ATOM     18  C   UNL     1       7.191  -2.812  25.241  0.00  0.00    +0.023 A 
ATOM     19  C   UNL     1       6.132  -3.799  24.850  0.00  0.00    +0.038 A 
BRANCH  14  21
ATOM     20  C   UNL     1       7.262  -5.888  22.170  0.00  0.00    +0.252 C 
ATOM     21  O   UNL     1       6.334  -5.548  23.155  0.00  0.00    -0.471 OA
ENDBRANCH  14  21
ENDBRANCH   1  17
TORSDOF 4
ENDMDL
MODEL 5
REMARK VINA RESULT:      -6.2      2.863      6.183
REMARK  Name = 
REMARK  4 active torsions:
REMARK  status: ('A' for Active; 'I' for Inactive)
REMARK    1  A    between atoms: O_2  and  C_3
REMARK    2  A    between atoms: C_6  and  S_7
REMARK    3  A    between atoms: S_7  and  N_10
REMARK    4  A    between atoms: C_14  and  C_16
REMARK                            x       y       z     vdW  Elec       q    Type
REMARK                         _______ _______ _______ _____ _____    ______ ____
ROOT
ATOM      1  S   UNL     1       8.556  -2.008  23.826  0.00  0.00    +0.063 S 
ATOM      2  O   UNL     1       7.597  -1.441  24.799  0.00  0.00    -0.153 OA
ATOM      3  O   UNL     1       9.934  -1.629  24.182  0.00  0.00    -0.153 OA
ENDROOT
BRANCH   1   4
ATOM      4  N   UNL     1       8.214  -1.420  22.391  0.00  0.00    -0.152 NA
ATOM      5  C   UNL     1       7.074  -0.669  22.221  0.00  0.00    +0.117 C 
ATOM      6  C   UNL     1       7.291   0.835  22.299  0.00  0.00    +0.113 C 
ATOM      7  N   UNL     1       8.714   1.075  22.568  0.00  0.00    -0.276 N 
ATOM      8  C   UNL     1       9.100   1.222  23.860  0.00  0.00    +0.242 C 
ATOM      9  O   UNL     1       8.402   0.834  24.773  0.00  0.00    -0.273 OA
ATOM     10  C   UNL     1       9.658   0.403  21.659  0.00  0.00    +0.113 C 
ATOM     11  C   UNL     1       9.308  -1.069  21.606  0.00  0.00    +0.117 C 
BRANCH   8  12
ATOM     12  C   UNL     1      10.562   1.548  24.071  0.00  0.00    +0.180 C 
ATOM     13 CL   UNL     1      10.905   3.198  23.494  0.00  0.00    -0.103 Cl
ENDBRANCH   8  12
ENDBRANCH   1   4
BRANCH   1  17
ATOM     14  C   UNL     1       7.618  -5.393  26.536  0.00  0.00    +0.139 A 
ATOM     15  C   UNL     1       6.853  -5.164  25.294  0.00  0.00    +0.038 A 
ATOM     16  C   UNL     1       6.991  -4.220  24.102  0.00  0.00    +0.023 A 
ATOM     17  C   UNL     1       8.444  -3.773  23.932  0.00  0.00    +0.122 A 
ATOM     18  C   UNL     1       9.305  -4.174  25.062  0.00  0.00    +0.023 A 
ATOM     19  C   UNL     1       9.149  -4.841  26.396  0.00  0.00    +0.038 A 
BRANCH  14  21
ATOM     20  C   UNL     1       5.950  -4.186  27.644  0.00  0.00    +0.252 C 
ATOM     21  O   UNL     1       7.102  -4.969  27.724  0.00  0.00    -0.471 OA
ENDBRANCH  14  21
ENDBRANCH   1  17
TORSDOF 4
ENDMDL
MODEL 6
REMARK VINA RESULT:      -6.1      2.357      3.255
REMARK  Name = 
REMARK  4 active torsions:
REMARK  status: ('A' for Active; 'I' for Inactive)
REMARK    1  A    between atoms: O_2  and  C_3
REMARK    2  A    between atoms: C_6  and  S_7
REMARK    3  A    between atoms: S_7  and  N_10
REMARK    4  A    between atoms: C_14  and  C_16
REMARK                            x       y       z     vdW  Elec       q    Type
REMARK                         _______ _______ _______ _____ _____    ______ ____
ROOT
ATOM      1  S   UNL     1       7.498  -1.587  22.921  0.00  0.00    +0.063 S 
ATOM      2  O   UNL     1       6.054  -1.729  23.205  0.00  0.00    -0.153 OA
ATOM      3  O   UNL     1       7.940  -2.624  21.973  0.00  0.00    -0.153 OA
ENDROOT
BRANCH   1   4
ATOM      4  N   UNL     1       8.294  -1.761  24.284  0.00  0.00    -0.152 NA
ATOM      5  C   UNL     1       7.598  -1.838  25.469  0.00  0.00    +0.117 C 
ATOM      6  C   UNL     1       7.333  -3.256  25.954  0.00  0.00    +0.113 C 
ATOM      7  N   UNL     1       7.897  -4.187  24.969  0.00  0.00    -0.276 N 
ATOM      8  C   UNL     1       7.077  -4.653  23.993  0.00  0.00    +0.242 C 
ATOM      9  O   UNL     1       6.042  -4.085  23.717  0.00  0.00    -0.273 OA
ATOM     10  C   UNL     1       9.306  -3.957  24.607  0.00  0.00    +0.113 C 
ATOM     11  C   UNL     1       9.468  -2.505  24.208  0.00  0.00    +0.117 C 
BRANCH   8  12
ATOM     12  C   UNL     1       7.690  -5.670  23.057  0.00  0.00    +0.180 C 
ATOM     13 CL   UNL     1       6.670  -5.854  21.609  0.00  0.00    -0.103 Cl
ENDBRANCH   8  12
ENDBRANCH   1   4
BRANCH   1  17
ATOM     14  C   UNL     1       9.854   2.170  23.049  0.00  0.00    +0.139 A 
ATOM     15  C   UNL     1       9.867   1.292  21.863  0.00  0.00    +0.038 A 
ATOM     16  C   UNL     1       9.093   0.046  21.435  0.00  0.00    +0.023 A 
ATOM     17  C   UNL     1       7.737  -0.015  22.139  0.00  0.00    +0.122 A 
ATOM     18  C   UNL     1       7.593   1.000  23.201  0.00  0.00    +0.023 A 
ATOM     19  C   UNL     1       8.441   2.049  23.858  0.00  0.00    +0.038 A 
BRANCH  14  21
ATOM     20  C   UNL     1      11.093   0.852  24.532  0.00  0.00    +0.252 C 
ATOM     21  O   UNL     1      10.882   2.098  23.942  0.00  0.00    -0.471 OA
ENDBRANCH  14  21
ENDBRANCH   1  17
TORSDOF 4
ENDMDL
MODEL 7
REMARK VINA RESULT:      -6.1      1.909      2.412
REMARK  Name = 
REMARK  4 active torsions:
REMARK  status: ('A' for Active; 'I' for Inactive)
REMARK    1  A    between atoms: O_2  and  C_3
REMARK    2  A    between atoms: C_6  and  S_7
REMARK    3  A    between atoms: S_7  and  N_10
REMARK    4  A    between atoms: C_14  and  C_16
REMARK                            x       y       z     vdW  Elec       q    Type
REMARK                         _______ _______ _______ _____ _____    ______ ____
ROOT
ATOM      1  S   UNL     1       8.917  -1.773  23.429  0.00  0.00    +0.063 S 
ATOM      2  O   UNL     1       8.073  -1.596  22.229  0.00  0.00    -0.153 OA
ATOM      3  O   UNL     1       9.455  -3.143  23.483  0.00  0.00    -0.153 OA
ENDROOT
BRANCH   1   4
ATOM      4  N   UNL     1       8.016  -1.522  24.713  0.00  0.00    -0.152 NA
ATOM      5  C   UNL     1       6.774  -0.948  24.567  0.00  0.00    +0.117 C 
ATOM      6  C   UNL     1       5.624  -1.941  24.496  0.00  0.00    +0.113 C 
ATOM      7  N   UNL     1       6.185  -3.295  24.584  0.00  0.00    -0.276 N 
ATOM      8  C   UNL     1       6.464  -3.943  23.426  0.00  0.00    +0.242 C 
ATOM      9  O   UNL     1       6.585  -3.340  22.380  0.00  0.00    -0.273 OA
ATOM     10  C   UNL     1       7.087  -3.539  25.722  0.00  0.00    +0.113 C 
ATOM     11  C   UNL     1       8.147  -2.458  25.735  0.00  0.00    +0.117 C 
BRANCH   8  12
ATOM     12  C   UNL     1       6.963  -5.363  23.576  0.00  0.00    +0.180 C 
ATOM     13 CL   UNL     1       7.131  -6.121  21.974  0.00  0.00    -0.103 Cl
ENDBRANCH   8  12
ENDBRANCH   1   4
BRANCH   1  17
ATOM     14  C   UNL     1      10.082   2.501  23.196  0.00  0.00    +0.139 A 
ATOM     15  C   UNL     1      10.574   1.625  24.278  0.00  0.00    +0.038 A 
ATOM     16  C   UNL     1      10.494   0.130  24.574  0.00  0.00    +0.023 A 
ATOM     17  C   UNL     1      10.293  -0.666  23.283  0.00  0.00    +0.122 A 
ATOM     18  C   UNL     1      10.011   0.192  22.117  0.00  0.00    +0.023 A 
ATOM     19  C   UNL     1       9.782   1.647  21.836  0.00  0.00    +0.038 A 
BRANCH  14  21
ATOM     20  C   UNL     1       8.569   3.366  24.755  0.00  0.00    +0.252 C 
ATOM     21  O   UNL     1       9.029   3.332  23.438  0.00  0.00    -0.471 OA
ENDBRANCH  14  21
ENDBRANCH   1  17
TORSDOF 4
ENDMDL
MODEL 8
REMARK VINA RESULT:      -6.1      1.941      2.593
REMARK  Name = 
REMARK  4 active torsions:
REMARK  status: ('A' for Active; 'I' for Inactive)
REMARK    1  A    between atoms: O_2  and  C_3
REMARK    2  A    between atoms: C_6  and  S_7
REMARK    3  A    between atoms: S_7  and  N_10
REMARK    4  A    between atoms: C_14  and  C_16
REMARK                            x       y       z     vdW  Elec       q    Type
REMARK                         _______ _______ _______ _____ _____    ______ ____
ROOT
ATOM      1  S   UNL     1       7.476  -2.125  22.957  0.00  0.00    +0.063 S 
ATOM      2  O   UNL     1       8.642  -2.912  22.499  0.00  0.00    -0.153 OA
ATOM      3  O   UNL     1       7.527  -1.931  24.416  0.00  0.00    -0.153 OA
ENDROOT
BRANCH   1   4
ATOM      4  N   UNL     1       6.157  -2.930  22.589  0.00  0.00    -0.152 NA
ATOM      5  C   UNL     1       6.235  -4.000  21.727  0.00  0.00    +0.117 C 
ATOM      6  C   UNL     1       6.343  -5.355  22.411  0.00  0.00    +0.113 C 
ATOM      7  N   UNL     1       6.358  -5.133  23.862  0.00  0.00    -0.276 N 
ATOM      8  C   UNL     1       7.563  -5.026  24.476  0.00  0.00    +0.242 C 
ATOM      9  O   UNL     1       8.569  -4.772  23.847  0.00  0.00    -0.273 OA
ATOM     10  C   UNL     1       5.261  -4.306  24.393  0.00  0.00    +0.113 C 
ATOM     11  C   UNL     1       5.203  -3.019  23.598  0.00  0.00    +0.117 C 
BRANCH   8  12
ATOM     12  C   UNL     1       7.519  -4.879  25.980  0.00  0.00    +0.180 C 
ATOM     13 CL   UNL     1       9.122  -4.401  26.591  0.00  0.00    -0.103 Cl
ENDBRANCH   8  12
ENDBRANCH   1   4
BRANCH   1  17
ATOM     14  C   UNL     1       9.631   1.751  23.039  0.00  0.00    +0.139 A 
ATOM     15  C   UNL     1       9.618   0.902  21.832  0.00  0.00    +0.038 A 
ATOM     16  C   UNL     1       8.887  -0.374  21.420  0.00  0.00    +0.023 A 
ATOM     17  C   UNL     1       7.582  -0.525  22.203  0.00  0.00    +0.122 A 
ATOM     18  C   UNL     1       7.450   0.457  23.296  0.00  0.00    +0.023 A 
ATOM     19  C   UNL     1       8.279   1.535  23.929  0.00  0.00    +0.038 A 
BRANCH  14  21
ATOM     20  C   UNL     1      10.847   0.570  24.650  0.00  0.00    +0.252 C 
ATOM     21  O   UNL     1      10.714   1.716  23.866  0.00  0.00    -0.471 OA
ENDBRANCH  14  21
ENDBRANCH   1  17
TORSDOF 4
ENDMDL
MODEL 9
REMARK VINA RESULT:      -6.1      2.008      2.723
REMARK  Name = 
REMARK  4 active torsions:
REMARK  status: ('A' for Active; 'I' for Inactive)
REMARK    1  A    between atoms: O_2  and  C_3
REMARK    2  A    between atoms: C_6  and  S_7
REMARK    3  A    between atoms: S_7  and  N_10
REMARK    4  A    between atoms: C_14  and  C_16
REMARK                            x       y       z     vdW  Elec       q    Type
REMARK                         _______ _______ _______ _____ _____    ______ ____
ROOT
ATOM      1  S   UNL     1       8.744  -2.466  24.208  0.00  0.00    +0.063 S 
ATOM      2  O   UNL     1       8.960  -2.075  25.618  0.00  0.00    -0.153 OA
ATOM      3  O   UNL     1       7.412  -2.032  23.753  0.00  0.00    -0.153 OA
ENDROOT
BRANCH   1   4
ATOM      4  N   UNL     1       8.831  -4.049  24.113  0.00  0.00    -0.152 NA
ATOM      5  C   UNL     1       9.310  -4.767  25.185  0.00  0.00    +0.117 C 
ATOM      6  C   UNL     1       8.232  -5.322  26.104  0.00  0.00    +0.113 C 
ATOM      7  N   UNL     1       6.927  -4.901  25.582  0.00  0.00    -0.276 N 
ATOM      8  C   UNL     1       6.384  -3.760  26.076  0.00  0.00    +0.242 C 
ATOM      9  O   UNL     1       7.065  -2.936  26.649  0.00  0.00    -0.273 OA
ATOM     10  C   UNL     1       6.681  -5.199  24.161  0.00  0.00    +0.113 C 
ATOM     11  C   UNL     1       7.843  -4.664  23.350  0.00  0.00    +0.117 C 
BRANCH   8  12
ATOM     12  C   UNL     1       5.003  -3.418  25.561  0.00  0.00    +0.180 C 
ATOM     13 CL   UNL     1       3.790  -4.462  26.342  0.00  0.00    -0.103 Cl
ENDBRANCH   8  12
ENDBRANCH   1   4
BRANCH   1  17
ATOM     14  C   UNL     1       9.430   1.101  21.662  0.00  0.00    +0.139 A 
ATOM     15  C   UNL     1      10.222   0.861  22.884  0.00  0.00    +0.038 A 
ATOM     16  C   UNL     1      10.348  -0.290  23.879  0.00  0.00    +0.023 A 
ATOM     17  C   UNL     1       9.947  -1.614  23.226  0.00  0.00    +0.122 A 
ATOM     18  C   UNL     1       9.341  -1.437  21.892  0.00  0.00    +0.023 A 
ATOM     19  C   UNL     1       8.923  -0.305  21.002  0.00  0.00    +0.038 A 
BRANCH  14  21
ATOM     20  C   UNL     1       7.144   1.458  21.316  0.00  0.00    +0.252 C 
ATOM     21  O   UNL     1       8.381   1.971  21.708  0.00  0.00    -0.471 OA
ENDBRANCH  14  21
ENDBRANCH   1  17
TORSDOF 4
ENDMDL
