MODEL 1
REMARK VINA RESULT:      -5.8      0.000      0.000
REMARK  Name = 
REMARK  3 active torsions:
REMARK  status: ('A' for Active; 'I' for Inactive)
REMARK    1  A    between atoms: C_2  and  C_3
REMARK    2  A    between atoms: N_8  and  C_9
REMARK    3  A    between atoms: C_9  and  C_10
REMARK                            x       y       z     vdW  Elec       q    Type
REMARK                         _______ _______ _______ _____ _____    ______ ____
ROOT
ATOM      1  O   UNL     1       7.205  -6.078  28.046  0.00  0.00    -0.273 OA
ATOM      2  C   UNL     1       7.013  -5.082  27.356  0.00  0.00    +0.242 C 
ATOM      3  N   UNL     1       8.089  -4.481  26.778  0.00  0.00    -0.276 N 
ATOM      4  C   UNL     1       8.856  -5.282  25.819  0.00  0.00    +0.111 C 
ATOM      5  C   UNL     1       9.628  -4.419  24.876  0.00  0.00    +0.094 C 
ATOM      6  N   UNL     1       8.944  -3.347  24.302  0.00  0.00    -0.266 NA
ATOM      7  C   UNL     1       7.704  -3.045  24.909  0.00  0.00    +0.094 C 
ATOM      8  C   UNL     1       7.943  -3.041  26.446  0.00  0.00    +0.111 C 
ENDROOT
BRANCH   2   9
ATOM      9  C   UNL     1       5.767  -4.255  27.545  0.00  0.00    +0.180 C 
ATOM     10 CL   UNL     1       4.601  -4.578  26.236  0.00  0.00    -0.103 Cl
ENDBRANCH   2   9
BRANCH   6  11
ATOM     11  C   UNL     1       9.688  -2.266  23.998  0.00  0.00    +0.099 C 
BRANCH  11  12
ATOM     12  C   UNL     1       9.301  -0.918  23.785  0.00  0.00    -0.006 A 
ATOM     13  C   UNL     1       8.919  -0.481  22.416  0.00  0.00    -0.003 A 
ATOM     14  C   UNL     1       9.306   0.549  21.434  0.00  0.00    -0.000 A 
ATOM     15  C   UNL     1      10.087   1.707  22.172  0.00  0.00    -0.000 A 
ATOM     16  C   UNL     1      10.417   1.362  23.563  0.00  0.00    -0.000 A 
ATOM     17  C   UNL     1      10.132   0.250  24.541  0.00  0.00    -0.003 A 
ENDBRANCH  11  12
ENDBRANCH   6  11
TORSDOF 3
ENDMDL
MODEL 2
REMARK VINA RESULT:      -5.7      1.519      2.025
REMARK  Name = 
REMARK  3 active torsions:
REMARK  status: ('A' for Active; 'I' for Inactive)
REMARK    1  A    between atoms: C_2  and  C_3
REMARK    2  A    between atoms: N_8  and  C_9
REMARK    3  A    between atoms: C_9  and  C_10
REMARK                            x       y       z     vdW  Elec       q    Type
REMARK                         _______ _______ _______ _____ _____    ______ ____
ROOT
ATOM      1  O   UNL     1       5.666  -6.543  26.127  0.00  0.00    -0.273 OA
ATOM      2  C   UNL     1       6.323  -5.539  26.385  0.00  0.00    +0.242 C 
ATOM      3  N   UNL     1       7.336  -5.197  25.543  0.00  0.00    -0.276 N 
ATOM      4  C   UNL     1       6.966  -4.882  24.160  0.00  0.00    +0.111 C 
ATOM      5  C   UNL     1       7.997  -4.028  23.497  0.00  0.00    +0.094 C 
ATOM      6  N   UNL     1       8.469  -2.934  24.223  0.00  0.00    -0.266 NA
ATOM      7  C   UNL     1       8.129  -2.946  25.595  0.00  0.00    +0.094 C 
ATOM      8  C   UNL     1       8.430  -4.378  26.122  0.00  0.00    +0.111 C 
ENDROOT
BRANCH   2   9
ATOM      9  C   UNL     1       6.375  -5.006  27.794  0.00  0.00    +0.180 C 
ATOM     10 CL   UNL     1       6.340  -6.347  28.968  0.00  0.00    -0.103 Cl
ENDBRANCH   2   9
BRANCH   6  11
ATOM     11  C   UNL     1       9.739  -2.562  23.971  0.00  0.00    +0.099 C 
BRANCH  11  12
ATOM     12  C   UNL     1      10.240  -1.489  23.190  0.00  0.00    -0.006 A 
ATOM     13  C   UNL     1      10.481  -0.172  23.836  0.00  0.00    -0.003 A 
ATOM     14  C   UNL     1      10.082   1.237  23.660  0.00  0.00    -0.000 A 
ATOM     15  C   UNL     1       9.540   1.448  22.191  0.00  0.00    -0.000 A 
ATOM     16  C   UNL     1       9.365   0.177  21.472  0.00  0.00    -0.000 A 
ATOM     17  C   UNL     1       9.653  -1.287  21.693  0.00  0.00    -0.003 A 
ENDBRANCH  11  12
ENDBRANCH   6  11
TORSDOF 3
ENDMDL
MODEL 3
REMARK VINA RESULT:      -5.7      2.295      2.804
REMARK  Name = 
REMARK  3 active torsions:
REMARK  status: ('A' for Active; 'I' for Inactive)
REMARK    1  A    between atoms: C_2  and  C_3
REMARK    2  A    between atoms: N_8  and  C_9
REMARK    3  A    between atoms: C_9  and  C_10
REMARK                            x       y       z     vdW  Elec       q    Type
REMARK                         _______ _______ _______ _____ _____    ______ ____
ROOT
ATOM      1  O   UNL     1       5.426  -6.458  24.612  0.00  0.00    -0.273 OA
ATOM      2  C   UNL     1       5.855  -5.546  23.911  0.00  0.00    +0.242 C 
ATOM      3  N   UNL     1       6.627  -4.591  24.498  0.00  0.00    -0.276 N 
ATOM      4  C   UNL     1       7.889  -5.038  25.094  0.00  0.00    +0.111 C 
ATOM      5  C   UNL     1       8.870  -3.916  25.208  0.00  0.00    +0.094 C 
ATOM      6  N   UNL     1       9.027  -3.103  24.085  0.00  0.00    -0.266 NA
ATOM      7  C   UNL     1       8.031  -3.265  23.095  0.00  0.00    +0.094 C 
ATOM      8  C   UNL     1       6.661  -3.266  23.830  0.00  0.00    +0.111 C 
ENDROOT
BRANCH   2   9
ATOM      9  C   UNL     1       5.165  -5.193  22.619  0.00  0.00    +0.180 C 
ATOM     10 CL   UNL     1       6.120  -5.764  21.227  0.00  0.00    -0.103 Cl
ENDBRANCH   2   9
BRANCH   6  11
ATOM     11  C   UNL     1       9.363  -1.821  24.327  0.00  0.00    +0.099 C 
BRANCH  11  12
ATOM     12  C   UNL     1      10.149  -0.921  23.563  0.00  0.00    -0.006 A 
ATOM     13  C   UNL     1      10.618   0.344  24.189  0.00  0.00    -0.003 A 
ATOM     14  C   UNL     1      10.554   1.795  23.936  0.00  0.00    -0.000 A 
ATOM     15  C   UNL     1      10.192   2.046  22.419  0.00  0.00    -0.000 A 
ATOM     16  C   UNL     1       9.802   0.810  21.725  0.00  0.00    -0.000 A 
ATOM     17  C   UNL     1       9.744  -0.670  22.014  0.00  0.00    -0.003 A 
ENDBRANCH  11  12
ENDBRANCH   6  11
TORSDOF 3
ENDMDL
MODEL 4
REMARK VINA RESULT:      -5.6      2.684      3.401
REMARK  Name = 
REMARK  3 active torsions:
REMARK  status: ('A' for Active; 'I' for Inactive)
REMARK    1  A    between atoms: C_2  and  C_3
REMARK    2  A    between atoms: N_8  and  C_9
REMARK    3  A    between atoms: C_9  and  C_10
REMARK                            x       y       z     vdW  Elec       q    Type
REMARK                         _______ _______ _______ _____ _____    ______ ____
ROOT
ATOM      1  O   UNL     1       3.753  -4.942  22.790  0.00  0.00    -0.273 OA
ATOM      2  C   UNL     1       4.699  -4.586  23.487  0.00  0.00    +0.242 C 
ATOM      3  N   UNL     1       5.823  -4.135  22.866  0.00  0.00    -0.276 N 
ATOM      4  C   UNL     1       5.682  -2.935  22.036  0.00  0.00    +0.111 C 
ATOM      5  C   UNL     1       6.988  -2.232  21.861  0.00  0.00    +0.094 C 
ATOM      6  N   UNL     1       7.760  -2.043  23.008  0.00  0.00    -0.266 NA
ATOM      7  C   UNL     1       7.343  -2.796  24.129  0.00  0.00    +0.094 C 
ATOM      8  C   UNL     1       7.091  -4.247  23.630  0.00  0.00    +0.111 C 
ENDROOT
BRANCH   2   9
ATOM      9  C   UNL     1       4.835  -5.093  24.899  0.00  0.00    +0.180 C 
ATOM     10 CL   UNL     1       4.654  -6.866  24.945  0.00  0.00    -0.103 Cl
ENDBRANCH   2   9
BRANCH   6  11
ATOM     11  C   UNL     1       9.094  -2.016  22.824  0.00  0.00    +0.099 C 
BRANCH  11  12
ATOM     12  C   UNL     1       9.978  -0.915  22.692  0.00  0.00    -0.006 A 
ATOM     13  C   UNL     1      10.474  -0.232  23.916  0.00  0.00    -0.003 A 
ATOM     14  C   UNL     1      10.507   1.126  24.490  0.00  0.00    -0.000 A 
ATOM     15  C   UNL     1      10.263   2.184  23.343  0.00  0.00    -0.000 A 
ATOM     16  C   UNL     1       9.852   1.555  22.079  0.00  0.00    -0.000 A 
ATOM     17  C   UNL     1       9.692   0.164  21.517  0.00  0.00    -0.003 A 
ENDBRANCH  11  12
ENDBRANCH   6  11
TORSDOF 3
ENDMDL
MODEL 5
REMARK VINA RESULT:      -5.6      3.936      6.384
REMARK  Name = 
REMARK  3 active torsions:
REMARK  status: ('A' for Active; 'I' for Inactive)
REMARK    1  A    between atoms: C_2  and  C_3
REMARK    2  A    between atoms: N_8  and  C_9
REMARK    3  A    between atoms: C_9  and  C_10
REMARK                            x       y       z     vdW  Elec       q    Type
REMARK                         _______ _______ _______ _____ _____    ______ ____
ROOT
ATOM      1  O   UNL     1      10.619   1.840  24.198  0.00  0.00    -0.273 OA
ATOM      2  C   UNL     1      10.141   0.989  23.455  0.00  0.00    +0.242 C 
ATOM      3  N   UNL     1      10.120  -0.303  23.884  0.00  0.00    -0.276 N 
ATOM      4  C   UNL     1       9.338  -0.584  25.091  0.00  0.00    +0.111 C 
ATOM      5  C   UNL     1       8.935  -2.021  25.162  0.00  0.00    +0.094 C 
ATOM      6  N   UNL     1       8.410  -2.585  23.999  0.00  0.00    -0.266 NA
ATOM      7  C   UNL     1       8.598  -1.811  22.831  0.00  0.00    +0.094 C 
ATOM      8  C   UNL     1      10.083  -1.349  22.831  0.00  0.00    +0.111 C 
ENDROOT
BRANCH   2   9
ATOM      9  C   UNL     1      10.062   1.235  21.971  0.00  0.00    +0.180 C 
ATOM     10 CL   UNL     1       8.403   1.690  21.502  0.00  0.00    -0.103 Cl
ENDBRANCH   2   9
BRANCH   6  11
ATOM     11  C   UNL     1       8.629  -3.903  23.830  0.00  0.00    +0.099 C 
BRANCH  11  12
ATOM     12  C   UNL     1       7.712  -4.983  23.768  0.00  0.00    -0.006 A 
ATOM     13  C   UNL     1       7.285  -5.498  22.440  0.00  0.00    -0.003 A 
ATOM     14  C   UNL     1       6.036  -5.736  21.693  0.00  0.00    -0.000 A 
ATOM     15  C   UNL     1       4.823  -5.783  22.705  0.00  0.00    -0.000 A 
ATOM     16  C   UNL     1       5.209  -5.365  24.061  0.00  0.00    -0.000 A 
ATOM     17  C   UNL     1       6.468  -4.997  24.807  0.00  0.00    -0.003 A 
ENDBRANCH  11  12
ENDBRANCH   6  11
TORSDOF 3
ENDMDL
MODEL 6
REMARK VINA RESULT:      -5.6      2.640      3.987
REMARK  Name = 
REMARK  3 active torsions:
REMARK  status: ('A' for Active; 'I' for Inactive)
REMARK    1  A    between atoms: C_2  and  C_3
REMARK    2  A    between atoms: N_8  and  C_9
REMARK    3  A    between atoms: C_9  and  C_10
REMARK                            x       y       z     vdW  Elec       q    Type
REMARK                         _______ _______ _______ _____ _____    ______ ____
ROOT
ATOM      1  O   UNL     1       7.130  -5.168  23.475  0.00  0.00    -0.273 OA
ATOM      2  C   UNL     1       7.656  -4.081  23.695  0.00  0.00    +0.242 C 
ATOM      3  N   UNL     1       7.812  -3.219  22.653  0.00  0.00    -0.276 N 
ATOM      4  C   UNL     1       6.588  -2.754  21.993  0.00  0.00    +0.111 C 
ATOM      5  C   UNL     1       6.808  -1.462  21.277  0.00  0.00    +0.094 C 
ATOM      6  N   UNL     1       7.492  -0.465  21.974  0.00  0.00    -0.266 NA
ATOM      7  C   UNL     1       8.141  -0.907  23.149  0.00  0.00    +0.094 C 
ATOM      8  C   UNL     1       8.898  -2.215  22.782  0.00  0.00    +0.111 C 
ENDROOT
BRANCH   2   9
ATOM      9  C   UNL     1       8.549  -3.898  24.894  0.00  0.00    +0.180 C 
ATOM     10 CL   UNL     1       9.470  -5.390  25.219  0.00  0.00    -0.103 Cl
ENDBRANCH   2   9
BRANCH   6  11
ATOM     11  C   UNL     1       8.222   0.384  21.225  0.00  0.00    +0.099 C 
BRANCH  11  12
ATOM     12  C   UNL     1       8.677   1.697  21.511  0.00  0.00    -0.006 A 
ATOM     13  C   UNL     1      10.008   1.880  22.148  0.00  0.00    -0.003 A 
ATOM     14  C   UNL     1      10.585   2.523  23.344  0.00  0.00    -0.000 A 
ATOM     15  C   UNL     1       9.567   3.593  23.904  0.00  0.00    -0.000 A 
ATOM     16  C   UNL     1       8.254   3.515  23.246  0.00  0.00    -0.000 A 
ATOM     17  C   UNL     1       7.615   2.769  22.101  0.00  0.00    -0.003 A 
ENDBRANCH  11  12
ENDBRANCH   6  11
TORSDOF 3
ENDMDL
MODEL 7
REMARK VINA RESULT:      -5.4      3.986      6.625
REMARK  Name = 
REMARK  3 active torsions:
REMARK  status: ('A' for Active; 'I' for Inactive)
REMARK    1  A    between atoms: C_2  and  C_3
REMARK    2  A    between atoms: N_8  and  C_9
REMARK    3  A    between atoms: C_9  and  C_10
REMARK                            x       y       z     vdW  Elec       q    Type
REMARK                         _______ _______ _______ _____ _____    ______ ____
ROOT
ATOM      1  O   UNL     1       8.924   3.104  24.917  0.00  0.00    -0.273 OA
ATOM      2  C   UNL     1       9.400   2.205  24.230  0.00  0.00    +0.242 C 
ATOM      3  N   UNL     1       9.450   0.950  24.757  0.00  0.00    -0.276 N 
ATOM      4  C   UNL     1       8.168   0.327  25.100  0.00  0.00    +0.111 C 
ATOM      5  C   UNL     1       8.276  -1.163  25.140  0.00  0.00    +0.094 C 
ATOM      6  N   UNL     1       8.939  -1.774  24.076  0.00  0.00    -0.266 NA
ATOM      7  C   UNL     1       9.675  -0.890  23.253  0.00  0.00    +0.094 C 
ATOM      8  C   UNL     1      10.483   0.041  24.201  0.00  0.00    +0.111 C 
ENDROOT
BRANCH   2   9
ATOM      9  C   UNL     1      10.344   2.529  23.102  0.00  0.00    +0.180 C 
ATOM     10 CL   UNL     1      11.291   3.990  23.483  0.00  0.00    -0.103 Cl
ENDBRANCH   2   9
BRANCH   6  11
ATOM     11  C   UNL     1       9.579  -2.925  24.361  0.00  0.00    +0.099 C 
BRANCH  11  12
ATOM     12  C   UNL     1       9.062  -4.188  24.746  0.00  0.00    -0.006 A 
ATOM     13  C   UNL     1       7.796  -4.672  24.134  0.00  0.00    -0.003 A 
ATOM     14  C   UNL     1       6.467  -5.143  24.563  0.00  0.00    -0.000 A 
ATOM     15  C   UNL     1       6.532  -5.579  26.081  0.00  0.00    -0.000 A 
ATOM     16  C   UNL     1       7.803  -5.201  26.717  0.00  0.00    -0.000 A 
ATOM     17  C   UNL     1       9.126  -4.601  26.312  0.00  0.00    -0.003 A 
ENDBRANCH  11  12
ENDBRANCH   6  11
TORSDOF 3
ENDMDL
MODEL 8
REMARK VINA RESULT:      -5.4      2.776      2.977
REMARK  Name = 
REMARK  3 active torsions:
REMARK  status: ('A' for Active; 'I' for Inactive)
REMARK    1  A    between atoms: C_2  and  C_3
REMARK    2  A    between atoms: N_8  and  C_9
REMARK    3  A    between atoms: C_9  and  C_10
REMARK                            x       y       z     vdW  Elec       q    Type
REMARK                         _______ _______ _______ _____ _____    ______ ____
ROOT
ATOM      1  O   UNL     1       4.391  -7.553  24.319  0.00  0.00    -0.273 OA
ATOM      2  C   UNL     1       4.738  -6.400  24.557  0.00  0.00    +0.242 C 
ATOM      3  N   UNL     1       5.780  -5.882  23.852  0.00  0.00    -0.276 N 
ATOM      4  C   UNL     1       5.605  -5.775  22.400  0.00  0.00    +0.111 C 
ATOM      5  C   UNL     1       6.512  -4.744  21.812  0.00  0.00    +0.094 C 
ATOM      6  N   UNL     1       6.577  -3.515  22.470  0.00  0.00    -0.266 NA
ATOM      7  C   UNL     1       6.005  -3.507  23.762  0.00  0.00    +0.094 C 
ATOM      8  C   UNL     1       6.530  -4.774  24.496  0.00  0.00    +0.111 C 
ENDROOT
BRANCH   2   9
ATOM      9  C   UNL     1       4.407  -5.767  25.884  0.00  0.00    +0.180 C 
ATOM     10 CL   UNL     1       4.964  -6.802  27.224  0.00  0.00    -0.103 Cl
ENDBRANCH   2   9
BRANCH   6  11
ATOM     11  C   UNL     1       7.749  -2.858  22.380  0.00  0.00    +0.099 C 
BRANCH  11  12
ATOM     12  C   UNL     1       8.083  -1.527  22.737  0.00  0.00    -0.006 A 
ATOM     13  C   UNL     1       7.789  -0.424  21.784  0.00  0.00    -0.003 A 
ATOM     14  C   UNL     1       8.505   0.669  21.100  0.00  0.00    -0.000 A 
ATOM     15  C   UNL     1       9.866   0.953  21.851  0.00  0.00    -0.000 A 
ATOM     16  C   UNL     1      10.165  -0.064  22.871  0.00  0.00    -0.000 A 
ATOM     17  C   UNL     1       9.493  -1.263  23.492  0.00  0.00    -0.003 A 
ENDBRANCH  11  12
ENDBRANCH   6  11
TORSDOF 3
ENDMDL
MODEL 9
REMARK VINA RESULT:      -5.4      2.812      3.854
REMARK  Name = 
REMARK  3 active torsions:
REMARK  status: ('A' for Active; 'I' for Inactive)
REMARK    1  A    between atoms: C_2  and  C_3
REMARK    2  A    between atoms: N_8  and  C_9
REMARK    3  A    between atoms: C_9  and  C_10
REMARK                            x       y       z     vdW  Elec       q    Type
REMARK                         _______ _______ _______ _____ _____    ______ ____
ROOT
ATOM      1  O   UNL     1       8.389  -4.596  24.404  0.00  0.00    -0.273 OA
ATOM      2  C   UNL     1       8.143  -3.831  23.476  0.00  0.00    +0.242 C 
ATOM      3  N   UNL     1       8.589  -2.548  23.564  0.00  0.00    -0.276 N 
ATOM      4  C   UNL     1      10.040  -2.357  23.642  0.00  0.00    +0.111 C 
ATOM      5  C   UNL     1      10.439  -0.989  23.195  0.00  0.00    +0.094 C 
ATOM      6  N   UNL     1       9.867  -0.523  22.011  0.00  0.00    -0.266 NA
ATOM      7  C   UNL     1       8.769  -1.282  21.547  0.00  0.00    +0.094 C 
ATOM      8  C   UNL     1       7.845  -1.535  22.773  0.00  0.00    +0.111 C 
ENDROOT
BRANCH   2   9
ATOM      9  C   UNL     1       6.991  -4.110  22.547  0.00  0.00    +0.180 C 
ATOM     10 CL   UNL     1       7.115  -5.758  21.878  0.00  0.00    -0.103 Cl
ENDBRANCH   2   9
BRANCH   6  11
ATOM     11  C   UNL     1       9.694   0.810  21.923  0.00  0.00    +0.099 C 
BRANCH  11  12
ATOM     12  C   UNL     1       9.160   1.728  22.864  0.00  0.00    -0.006 A 
ATOM     13  C   UNL     1       7.925   2.481  22.521  0.00  0.00    -0.003 A 
ATOM     14  C   UNL     1       7.469   3.881  22.437  0.00  0.00    -0.000 A 
ATOM     15  C   UNL     1       8.449   4.801  23.267  0.00  0.00    -0.000 A 
ATOM     16  C   UNL     1       9.654   4.081  23.708  0.00  0.00    -0.000 A 
ATOM     17  C   UNL     1      10.188   2.671  23.689  0.00  0.00    -0.003 A 
ENDBRANCH  11  12
ENDBRANCH   6  11
TORSDOF 3
ENDMDL
