MODEL 1
REMARK VINA RESULT:      -7.0      0.000      0.000
REMARK  Name = 
REMARK  3 active torsions:
REMARK  status: ('A' for Active; 'I' for Inactive)
REMARK    1  A    between atoms: C_2  and  C_3
REMARK    2  A    between atoms: N_8  and  S_9
REMARK    3  A    between atoms: S_9  and  C_12
REMARK                            x       y       z     vdW  Elec       q    Type
REMARK                         _______ _______ _______ _____ _____    ______ ____
ROOT
ATOM      1  S   UNL     1       7.121  -1.994  22.868  0.00  0.00    +0.063 S 
ATOM      2  O   UNL     1       6.119  -2.189  21.805  0.00  0.00    -0.153 OA
ATOM      3  O   UNL     1       6.822  -0.870  23.717  0.00  0.00    -0.153 OA
ENDROOT
BRANCH   1   4
ATOM      4  C   UNL     1       8.627  -1.669  21.990  0.00  0.00    +0.122 A 
ATOM      5  C   UNL     1       9.670  -1.311  22.939  0.00  0.00    +0.015 A 
ATOM      6  C   UNL     1      10.457  -0.043  23.306  0.00  0.00    -0.025 A 
ATOM      7  C   UNL     1      10.233   0.462  24.748  0.00  0.00    +0.026 C 
ATOM      8  C   UNL     1       9.318   1.700  24.587  0.00  0.00    +0.009 C 
ATOM      9  C   UNL     1       9.609   2.366  23.209  0.00  0.00    +0.026 C 
ATOM     10  C   UNL     1      10.044   1.144  22.339  0.00  0.00    -0.026 A 
ATOM     11  C   UNL     1       9.118   0.732  21.251  0.00  0.00    -0.003 A 
ATOM     12  C   UNL     1       8.211  -0.450  21.022  0.00  0.00    +0.020 A 
ENDBRANCH   1   4
BRANCH   1  18
ATOM     13  O   UNL     1       7.150  -4.160  27.435  0.00  0.00    -0.273 OA
ATOM     14  C   UNL     1       7.838  -4.271  26.429  0.00  0.00    +0.242 C 
ATOM     15  N   UNL     1       7.405  -5.164  25.466  0.00  0.00    -0.276 N 
ATOM     16  C   UNL     1       5.992  -4.995  25.070  0.00  0.00    +0.113 C 
ATOM     17  C   UNL     1       5.891  -3.708  24.259  0.00  0.00    +0.117 C 
ATOM     18  N   UNL     1       7.165  -3.349  23.732  0.00  0.00    -0.152 NA
ATOM     19  C   UNL     1       7.845  -4.438  23.208  0.00  0.00    +0.117 C 
ATOM     20  C   UNL     1       8.349  -5.358  24.336  0.00  0.00    +0.113 C 
BRANCH  14  21
ATOM     21  C   UNL     1       8.513  -3.042  25.835  0.00  0.00    +0.180 C 
ATOM     22 CL   UNL     1       8.054  -1.598  26.769  0.00  0.00    -0.103 Cl
ENDBRANCH  14  21
ENDBRANCH   1  18
TORSDOF 3
ENDMDL
MODEL 2
REMARK VINA RESULT:      -6.7      1.908      2.512
REMARK  Name = 
REMARK  3 active torsions:
REMARK  status: ('A' for Active; 'I' for Inactive)
REMARK    1  A    between atoms: C_2  and  C_3
REMARK    2  A    between atoms: N_8  and  S_9
REMARK    3  A    between atoms: S_9  and  C_12
REMARK                            x       y       z     vdW  Elec       q    Type
REMARK                         _______ _______ _______ _____ _____    ______ ____
ROOT
ATOM      1  S   UNL     1       7.175  -2.022  22.510  0.00  0.00    +0.063 S 
ATOM      2  O   UNL     1       6.417  -1.770  21.273  0.00  0.00    -0.153 OA
ATOM      3  O   UNL     1       6.825  -1.117  23.574  0.00  0.00    -0.153 OA
ENDROOT
BRANCH   1   4
ATOM      4  C   UNL     1       8.865  -1.744  22.049  0.00  0.00    +0.122 A 
ATOM      5  C   UNL     1       9.649  -1.462  23.242  0.00  0.00    +0.015 A 
ATOM      6  C   UNL     1      10.367  -0.244  23.842  0.00  0.00    -0.025 A 
ATOM      7  C   UNL     1       9.808   0.230  25.201  0.00  0.00    +0.026 C 
ATOM      8  C   UNL     1       9.012   1.515  24.865  0.00  0.00    +0.009 C 
ATOM      9  C   UNL     1       9.664   2.204  23.630  0.00  0.00    +0.026 C 
ATOM     10  C   UNL     1      10.256   0.988  22.850  0.00  0.00    -0.026 A 
ATOM     11  C   UNL     1       9.617   0.650  21.550  0.00  0.00    -0.003 A 
ATOM     12  C   UNL     1       8.752  -0.480  21.056  0.00  0.00    +0.020 A 
ENDBRANCH   1   4
BRANCH   1  18
ATOM     13  O   UNL     1       3.930  -5.898  22.575  0.00  0.00    -0.273 OA
ATOM     14  C   UNL     1       4.608  -5.333  23.423  0.00  0.00    +0.242 C 
ATOM     15  N   UNL     1       5.906  -5.778  23.590  0.00  0.00    -0.276 N 
ATOM     16  C   UNL     1       6.682  -5.877  22.337  0.00  0.00    +0.113 C 
ATOM     17  C   UNL     1       6.980  -4.459  21.865  0.00  0.00    +0.117 C 
ATOM     18  N   UNL     1       6.874  -3.540  22.949  0.00  0.00    -0.152 NA
ATOM     19  C   UNL     1       7.473  -4.017  24.105  0.00  0.00    +0.117 C 
ATOM     20  C   UNL     1       6.631  -5.151  24.724  0.00  0.00    +0.113 C 
BRANCH  14  21
ATOM     21  C   UNL     1       4.467  -3.829  23.624  0.00  0.00    +0.180 C 
ATOM     22 CL   UNL     1       3.356  -3.509  24.977  0.00  0.00    -0.103 Cl
ENDBRANCH  14  21
ENDBRANCH   1  18
TORSDOF 3
ENDMDL
MODEL 3
REMARK VINA RESULT:      -6.5      1.667      2.022
REMARK  Name = 
REMARK  3 active torsions:
REMARK  status: ('A' for Active; 'I' for Inactive)
REMARK    1  A    between atoms: C_2  and  C_3
REMARK    2  A    between atoms: N_8  and  S_9
REMARK    3  A    between atoms: S_9  and  C_12
REMARK                            x       y       z     vdW  Elec       q    Type
REMARK                         _______ _______ _______ _____ _____    ______ ____
ROOT
ATOM      1  S   UNL     1       8.754  -1.911  23.362  0.00  0.00    +0.063 S 
ATOM      2  O   UNL     1       8.367  -0.894  24.355  0.00  0.00    -0.153 OA
ATOM      3  O   UNL     1      10.076  -2.437  23.588  0.00  0.00    -0.153 OA
ENDROOT
BRANCH   1   4
ATOM      4  C   UNL     1       8.735  -1.041  21.818  0.00  0.00    +0.122 A 
ATOM      5  C   UNL     1       9.772  -0.021  21.828  0.00  0.00    +0.015 A 
ATOM      6  C   UNL     1       9.827   1.514  21.867  0.00  0.00    -0.025 A 
ATOM      7  C   UNL     1      10.504   2.105  23.123  0.00  0.00    +0.026 C 
ATOM      8  C   UNL     1       9.330   2.640  23.979  0.00  0.00    +0.009 C 
ATOM      9  C   UNL     1       8.172   3.075  23.032  0.00  0.00    +0.026 C 
ATOM     10  C   UNL     1       8.356   2.106  21.823  0.00  0.00    -0.026 A 
ATOM     11  C   UNL     1       7.305   1.073  21.625  0.00  0.00    -0.003 A 
ATOM     12  C   UNL     1       7.246  -0.425  21.783  0.00  0.00    +0.020 A 
ENDBRANCH   1   4
BRANCH   1  18
ATOM     13  O   UNL     1       6.408  -5.385  26.189  0.00  0.00    -0.273 OA
ATOM     14  C   UNL     1       6.979  -5.403  25.106  0.00  0.00    +0.242 C 
ATOM     15  N   UNL     1       6.225  -5.087  23.991  0.00  0.00    -0.276 N 
ATOM     16  C   UNL     1       5.455  -3.832  24.112  0.00  0.00    +0.113 C 
ATOM     17  C   UNL     1       6.447  -2.676  24.058  0.00  0.00    +0.117 C 
ATOM     18  N   UNL     1       7.664  -3.091  23.444  0.00  0.00    -0.152 NA
ATOM     19  C   UNL     1       7.448  -3.861  22.312  0.00  0.00    +0.117 C 
ATOM     20  C   UNL     1       6.933  -5.262  22.697  0.00  0.00    +0.113 C 
BRANCH  14  21
ATOM     21  C   UNL     1       8.419  -4.918  25.002  0.00  0.00    +0.180 C 
ATOM     22 CL   UNL     1       8.984  -4.377  26.601  0.00  0.00    -0.103 Cl
ENDBRANCH  14  21
ENDBRANCH   1  18
TORSDOF 3
ENDMDL
MODEL 4
REMARK VINA RESULT:      -6.5      2.679      6.133
REMARK  Name = 
REMARK  3 active torsions:
REMARK  status: ('A' for Active; 'I' for Inactive)
REMARK    1  A    between atoms: C_2  and  C_3
REMARK    2  A    between atoms: N_8  and  S_9
REMARK    3  A    between atoms: S_9  and  C_12
REMARK                            x       y       z     vdW  Elec       q    Type
REMARK                         _______ _______ _______ _____ _____    ______ ____
ROOT
ATOM      1  S   UNL     1       8.340  -1.354  24.925  0.00  0.00    +0.063 S 
ATOM      2  O   UNL     1       8.745  -1.725  26.292  0.00  0.00    -0.153 OA
ATOM      3  O   UNL     1       6.911  -1.336  24.752  0.00  0.00    -0.153 OA
ENDROOT
BRANCH   1   4
ATOM      4  C   UNL     1       9.029  -2.631  23.905  0.00  0.00    +0.122 A 
ATOM      5  C   UNL     1       8.177  -2.831  22.743  0.00  0.00    +0.015 A 
ATOM      6  C   UNL     1       7.232  -3.928  22.228  0.00  0.00    -0.025 A 
ATOM      7  C   UNL     1       5.753  -3.502  22.107  0.00  0.00    +0.026 C 
ATOM      8  C   UNL     1       5.054  -4.185  23.308  0.00  0.00    +0.009 C 
ATOM      9  C   UNL     1       5.806  -5.507  23.644  0.00  0.00    +0.026 C 
ATOM     10  C   UNL     1       7.268  -5.172  23.211  0.00  0.00    -0.026 A 
ATOM     11  C   UNL     1       8.276  -5.045  24.296  0.00  0.00    -0.003 A 
ATOM     12  C   UNL     1       9.047  -3.899  24.899  0.00  0.00    +0.020 A 
ENDBRANCH   1   4
BRANCH   1  18
ATOM     13  O   UNL     1       8.283   2.819  22.071  0.00  0.00    -0.273 OA
ATOM     14  C   UNL     1       9.158   2.054  22.454  0.00  0.00    +0.242 C 
ATOM     15  N   UNL     1       9.724   2.312  23.689  0.00  0.00    -0.276 N 
ATOM     16  C   UNL     1       8.746   2.512  24.777  0.00  0.00    +0.113 C 
ATOM     17  C   UNL     1       8.116   1.159  25.087  0.00  0.00    +0.117 C 
ATOM     18  N   UNL     1       8.955   0.102  24.628  0.00  0.00    -0.152 NA
ATOM     19  C   UNL     1      10.291   0.321  24.928  0.00  0.00    +0.117 C 
ATOM     20  C   UNL     1      10.872   1.437  24.037  0.00  0.00    +0.113 C 
BRANCH  14  21
ATOM     21  C   UNL     1       9.044   0.564  22.156  0.00  0.00    +0.180 C 
ATOM     22 CL   UNL     1       8.320   0.330  20.547  0.00  0.00    -0.103 Cl
ENDBRANCH  14  21
ENDBRANCH   1  18
TORSDOF 3
ENDMDL
MODEL 5
REMARK VINA RESULT:      -6.5      2.031      2.876
REMARK  Name = 
REMARK  3 active torsions:
REMARK  status: ('A' for Active; 'I' for Inactive)
REMARK    1  A    between atoms: C_2  and  C_3
REMARK    2  A    between atoms: N_8  and  S_9
REMARK    3  A    between atoms: S_9  and  C_12
REMARK                            x       y       z     vdW  Elec       q    Type
REMARK                         _______ _______ _______ _____ _____    ______ ____
ROOT
ATOM      1  S   UNL     1       8.660  -1.421  25.089  0.00  0.00    +0.063 S 
ATOM      2  O   UNL     1       7.498  -0.717  24.519  0.00  0.00    -0.153 OA
ATOM      3  O   UNL     1       9.026  -0.929  26.392  0.00  0.00    -0.153 OA
ENDROOT
BRANCH   1   4
ATOM      4  C   UNL     1       9.976  -1.078  23.951  0.00  0.00    +0.122 A 
ATOM      5  C   UNL     1      10.458   0.278  24.168  0.00  0.00    +0.015 A 
ATOM      6  C   UNL     1      10.420   1.610  23.404  0.00  0.00    -0.025 A 
ATOM      7  C   UNL     1       9.649   2.742  24.117  0.00  0.00    +0.026 C 
ATOM      8  C   UNL     1       8.315   2.851  23.340  0.00  0.00    +0.009 C 
ATOM      9  C   UNL     1       8.559   2.435  21.859  0.00  0.00    +0.026 C 
ATOM     10  C   UNL     1       9.722   1.402  21.995  0.00  0.00    -0.026 A 
ATOM     11  C   UNL     1       9.396  -0.018  21.696  0.00  0.00    -0.003 A 
ATOM     12  C   UNL     1       9.260  -1.271  22.521  0.00  0.00    +0.020 A 
ENDBRANCH   1   4
BRANCH   1  18
ATOM     13  O   UNL     1       7.556  -5.694  22.624  0.00  0.00    -0.273 OA
ATOM     14  C   UNL     1       7.036  -5.076  23.544  0.00  0.00    +0.242 C 
ATOM     15  N   UNL     1       7.488  -5.349  24.822  0.00  0.00    -0.276 N 
ATOM     16  C   UNL     1       8.957  -5.298  24.972  0.00  0.00    +0.113 C 
ATOM     17  C   UNL     1       9.378  -3.836  24.883  0.00  0.00    +0.117 C 
ATOM     18  N   UNL     1       8.276  -2.980  25.171  0.00  0.00    -0.152 NA
ATOM     19  C   UNL     1       7.542  -3.416  26.263  0.00  0.00    +0.117 C 
ATOM     20  C   UNL     1       6.727  -4.674  25.903  0.00  0.00    +0.113 C 
BRANCH  14  21
ATOM     21  C   UNL     1       6.656  -3.613  23.352  0.00  0.00    +0.180 C 
ATOM     22 CL   UNL     1       5.879  -3.401  21.765  0.00  0.00    -0.103 Cl
ENDBRANCH  14  21
ENDBRANCH   1  18
TORSDOF 3
ENDMDL
MODEL 6
REMARK VINA RESULT:      -6.3      1.821      2.577
REMARK  Name = 
REMARK  3 active torsions:
REMARK  status: ('A' for Active; 'I' for Inactive)
REMARK    1  A    between atoms: C_2  and  C_3
REMARK    2  A    between atoms: N_8  and  S_9
REMARK    3  A    between atoms: S_9  and  C_12
REMARK                            x       y       z     vdW  Elec       q    Type
REMARK                         _______ _______ _______ _____ _____    ______ ____
ROOT
ATOM      1  S   UNL     1       7.756  -2.013  22.760  0.00  0.00    +0.063 S 
ATOM      2  O   UNL     1       9.173  -2.417  22.798  0.00  0.00    -0.153 OA
ATOM      3  O   UNL     1       7.416  -1.285  21.565  0.00  0.00    -0.153 OA
ENDROOT
BRANCH   1   4
ATOM      4  C   UNL     1       7.571  -0.942  24.161  0.00  0.00    +0.122 A 
ATOM      5  C   UNL     1       7.385   0.425  23.699  0.00  0.00    +0.015 A 
ATOM      6  C   UNL     1       8.197   1.730  23.719  0.00  0.00    -0.025 A 
ATOM      7  C   UNL     1       8.578   2.274  22.326  0.00  0.00    +0.026 C 
ATOM      8  C   UNL     1      10.084   1.946  22.181  0.00  0.00    +0.009 C 
ATOM      9  C   UNL     1      10.740   1.951  23.594  0.00  0.00    +0.026 C 
ATOM     10  C   UNL     1       9.555   1.505  24.507  0.00  0.00    -0.026 A 
ATOM     11  C   UNL     1       9.662   0.163  25.138  0.00  0.00    -0.003 A 
ATOM     12  C   UNL     1       8.960  -1.157  24.950  0.00  0.00    +0.020 A 
ENDBRANCH   1   4
BRANCH   1  18
ATOM     13  O   UNL     1       5.263  -5.287  25.697  0.00  0.00    -0.273 OA
ATOM     14  C   UNL     1       6.111  -5.394  24.821  0.00  0.00    +0.242 C 
ATOM     15  N   UNL     1       5.661  -5.465  23.515  0.00  0.00    -0.276 N 
ATOM     16  C   UNL     1       4.709  -4.401  23.140  0.00  0.00    +0.113 C 
ATOM     17  C   UNL     1       5.490  -3.095  23.047  0.00  0.00    +0.117 C 
ATOM     18  N   UNL     1       6.878  -3.357  22.862  0.00  0.00    -0.152 NA
ATOM     19  C   UNL     1       7.107  -4.359  21.932  0.00  0.00    +0.117 C 
ATOM     20  C   UNL     1       6.721  -5.735  22.511  0.00  0.00    +0.113 C 
BRANCH  14  21
ATOM     21  C   UNL     1       7.432  -4.647  24.950  0.00  0.00    +0.180 C 
ATOM     22 CL   UNL     1       7.637  -4.082  26.625  0.00  0.00    -0.103 Cl
ENDBRANCH  14  21
ENDBRANCH   1  18
TORSDOF 3
ENDMDL
MODEL 7
REMARK VINA RESULT:      -6.2      1.664      2.342
REMARK  Name = 
REMARK  3 active torsions:
REMARK  status: ('A' for Active; 'I' for Inactive)
REMARK    1  A    between atoms: C_2  and  C_3
REMARK    2  A    between atoms: N_8  and  S_9
REMARK    3  A    between atoms: S_9  and  C_12
REMARK                            x       y       z     vdW  Elec       q    Type
REMARK                         _______ _______ _______ _____ _____    ______ ____
ROOT
ATOM      1  S   UNL     1       7.088  -1.783  24.330  0.00  0.00    +0.063 S 
ATOM      2  O   UNL     1       7.203  -2.242  22.935  0.00  0.00    -0.153 OA
ATOM      3  O   UNL     1       6.307  -0.579  24.459  0.00  0.00    -0.153 OA
ENDROOT
BRANCH   1   4
ATOM      4  C   UNL     1       8.759  -1.442  24.815  0.00  0.00    +0.122 A 
ATOM      5  C   UNL     1       8.890  -0.027  25.127  0.00  0.00    +0.015 A 
ATOM      6  C   UNL     1       9.585   1.194  24.504  0.00  0.00    -0.025 A 
ATOM      7  C   UNL     1       8.629   2.314  24.041  0.00  0.00    +0.026 C 
ATOM      8  C   UNL     1       8.603   2.189  22.498  0.00  0.00    +0.009 C 
ATOM      9  C   UNL     1       9.973   1.626  22.015  0.00  0.00    +0.026 C 
ATOM     10  C   UNL     1      10.412   0.746  23.227  0.00  0.00    -0.026 A 
ATOM     11  C   UNL     1      10.431  -0.726  23.015  0.00  0.00    -0.003 A 
ATOM     12  C   UNL     1       9.597  -1.879  23.510  0.00  0.00    +0.020 A 
ENDBRANCH   1   4
BRANCH   1  18
ATOM     13  O   UNL     1       7.693  -5.647  27.534  0.00  0.00    -0.273 OA
ATOM     14  C   UNL     1       7.131  -5.507  26.455  0.00  0.00    +0.242 C 
ATOM     15  N   UNL     1       5.827  -5.049  26.480  0.00  0.00    -0.276 N 
ATOM     16  C   UNL     1       5.623  -3.833  27.294  0.00  0.00    +0.113 C 
ATOM     17  C   UNL     1       6.266  -2.668  26.551  0.00  0.00    +0.117 C 
ATOM     18  N   UNL     1       6.411  -2.977  25.167  0.00  0.00    -0.152 NA
ATOM     19  C   UNL     1       5.280  -3.585  24.642  0.00  0.00    +0.117 C 
ATOM     20  C   UNL     1       5.154  -5.032  25.157  0.00  0.00    +0.113 C 
BRANCH  14  21
ATOM     21  C   UNL     1       7.915  -4.992  25.255  0.00  0.00    +0.180 C 
ATOM     22 CL   UNL     1       9.658  -5.046  25.612  0.00  0.00    -0.103 Cl
ENDBRANCH  14  21
ENDBRANCH   1  18
TORSDOF 3
ENDMDL
MODEL 8
REMARK VINA RESULT:      -6.2      2.469      6.185
REMARK  Name = 
REMARK  3 active torsions:
REMARK  status: ('A' for Active; 'I' for Inactive)
REMARK    1  A    between atoms: C_2  and  C_3
REMARK    2  A    between atoms: N_8  and  S_9
REMARK    3  A    between atoms: S_9  and  C_12
REMARK                            x       y       z     vdW  Elec       q    Type
REMARK                         _______ _______ _______ _____ _____    ______ ____
ROOT
ATOM      1  S   UNL     1       7.583  -0.950  24.570  0.00  0.00    +0.063 S 
ATOM      2  O   UNL     1       7.596  -0.215  25.846  0.00  0.00    -0.153 OA
ATOM      3  O   UNL     1       6.288  -1.493  24.251  0.00  0.00    -0.153 OA
ENDROOT
BRANCH   1   4
ATOM      4  C   UNL     1       8.722  -2.285  24.825  0.00  0.00    +0.122 A 
ATOM      5  C   UNL     1       8.401  -3.372  23.913  0.00  0.00    +0.015 A 
ATOM      6  C   UNL     1       7.829  -4.794  24.029  0.00  0.00    -0.025 A 
ATOM      7  C   UNL     1       6.477  -5.006  23.314  0.00  0.00    +0.026 C 
ATOM      8  C   UNL     1       5.436  -5.049  24.459  0.00  0.00    +0.009 C 
ATOM      9  C   UNL     1       6.117  -5.618  25.739  0.00  0.00    +0.026 C 
ATOM     10  C   UNL     1       7.597  -5.157  25.556  0.00  0.00    -0.026 A 
ATOM     11  C   UNL     1       8.097  -4.120  26.497  0.00  0.00    -0.003 A 
ATOM     12  C   UNL     1       8.472  -2.665  26.371  0.00  0.00    +0.020 A 
ENDBRANCH   1   4
BRANCH   1  18
ATOM     13  O   UNL     1       6.961   0.800  19.867  0.00  0.00    -0.273 OA
ATOM     14  C   UNL     1       7.924   0.417  20.520  0.00  0.00    +0.242 C 
ATOM     15  N   UNL     1       8.561   1.354  21.312  0.00  0.00    -0.276 N 
ATOM     16  C   UNL     1       7.657   2.126  22.189  0.00  0.00    +0.113 C 
ATOM     17  C   UNL     1       7.167   1.188  23.286  0.00  0.00    +0.117 C 
ATOM     18  N   UNL     1       8.051   0.079  23.426  0.00  0.00    -0.152 NA
ATOM     19  C   UNL     1       9.384   0.461  23.396  0.00  0.00    +0.117 C 
ATOM     20  C   UNL     1       9.800   0.867  21.968  0.00  0.00    +0.113 C 
BRANCH  14  21
ATOM     21  C   UNL     1       7.909  -0.973  21.144  0.00  0.00    +0.180 C 
ATOM     22 CL   UNL     1       6.316  -1.725  20.892  0.00  0.00    -0.103 Cl
ENDBRANCH  14  21
ENDBRANCH   1  18
TORSDOF 3
ENDMDL
MODEL 9
REMARK VINA RESULT:      -6.1      2.713      6.179
REMARK  Name = 
REMARK  3 active torsions:
REMARK  status: ('A' for Active; 'I' for Inactive)
REMARK    1  A    between atoms: C_2  and  C_3
REMARK    2  A    between atoms: N_8  and  S_9
REMARK    3  A    between atoms: S_9  and  C_12
REMARK                            x       y       z     vdW  Elec       q    Type
REMARK                         _______ _______ _______ _____ _____    ______ ____
ROOT
ATOM      1  S   UNL     1       8.902  -1.824  24.607  0.00  0.00    +0.063 S 
ATOM      2  O   UNL     1       9.979  -2.621  23.995  0.00  0.00    -0.153 OA
ATOM      3  O   UNL     1       8.739  -2.092  26.013  0.00  0.00    -0.153 OA
ENDROOT
BRANCH   1   4
ATOM      4  C   UNL     1       7.438  -2.339  23.749  0.00  0.00    +0.122 A 
ATOM      5  C   UNL     1       6.316  -2.349  24.675  0.00  0.00    +0.015 A 
ATOM      6  C   UNL     1       5.428  -3.412  25.340  0.00  0.00    -0.025 A 
ATOM      7  C   UNL     1       5.526  -3.464  26.880  0.00  0.00    +0.026 C 
ATOM      8  C   UNL     1       6.369  -4.729  27.172  0.00  0.00    +0.009 C 
ATOM      9  C   UNL     1       6.126  -5.769  26.038  0.00  0.00    +0.026 C 
ATOM     10  C   UNL     1       5.827  -4.853  24.810  0.00  0.00    -0.026 A 
ATOM     11  C   UNL     1       6.846  -4.828  23.727  0.00  0.00    -0.003 A 
ATOM     12  C   UNL     1       7.838  -3.810  23.228  0.00  0.00    +0.020 A 
ENDBRANCH   1   4
BRANCH   1  18
ATOM     13  O   UNL     1       8.538   2.267  21.660  0.00  0.00    -0.273 OA
ATOM     14  C   UNL     1       9.465   1.685  22.209  0.00  0.00    +0.242 C 
ATOM     15  N   UNL     1       9.749   2.044  23.513  0.00  0.00    -0.276 N 
ATOM     16  C   UNL     1       8.578   2.047  24.414  0.00  0.00    +0.113 C 
ATOM     17  C   UNL     1       8.176   0.597  24.653  0.00  0.00    +0.117 C 
ATOM     18  N   UNL     1       9.268  -0.276  24.375  0.00  0.00    -0.152 NA
ATOM     19  C   UNL     1      10.465   0.198  24.891  0.00  0.00    +0.117 C 
ATOM     20  C   UNL     1      10.966   1.407  24.077  0.00  0.00    +0.113 C 
BRANCH  14  21
ATOM     21  C   UNL     1       9.691   0.203  21.941  0.00  0.00    +0.180 C 
ATOM     22 CL   UNL     1       8.587  -0.349  20.659  0.00  0.00    -0.103 Cl
ENDBRANCH  14  21
ENDBRANCH   1  18
TORSDOF 3
ENDMDL
