MODEL 1
REMARK VINA RESULT:      -6.4      0.000      0.000
REMARK  Name = 
REMARK  3 active torsions:
REMARK  status: ('A' for Active; 'I' for Inactive)
REMARK    1  A    between atoms: C_2  and  C_3
REMARK    2  A    between atoms: N_8  and  S_9
REMARK    3  A    between atoms: S_9  and  C_12
REMARK                            x       y       z     vdW  Elec       q    Type
REMARK                         _______ _______ _______ _____ _____    ______ ____
ROOT
ATOM      1  O   UNL     1       6.745   1.470  22.603  0.00  0.00    -0.273 OA
ATOM      2  C   UNL     1       7.900   1.064  22.770  0.00  0.00    +0.242 C 
ATOM      3  N   UNL     1       8.474   1.286  23.983  0.00  0.00    -0.276 N 
ATOM      4  C   UNL     1       9.938   1.506  24.018  0.00  0.00    +0.113 C 
ATOM      5  C   UNL     1      10.569   0.128  23.788  0.00  0.00    +0.117 C 
ATOM      6  N   UNL     1       9.821  -0.887  24.352  0.00  0.00    -0.152 NA
ATOM      7  C   UNL     1       8.973  -0.629  25.377  0.00  0.00    +0.117 C 
ATOM      8  C   UNL     1       7.959   0.476  25.111  0.00  0.00    +0.113 C 
ENDROOT
BRANCH   6   9
ATOM      9  S   UNL     1       9.569  -2.194  23.455  0.00  0.00    +0.064 S 
ATOM     10  O   UNL     1      10.115  -2.038  22.151  0.00  0.00    -0.153 OA
ATOM     11  O   UNL     1      10.247  -3.319  24.190  0.00  0.00    -0.153 OA
BRANCH   9  12
ATOM     12  C   UNL     1       7.850  -2.644  23.443  0.00  0.00    +0.133 A 
ATOM     13  C   UNL     1       7.371  -3.263  22.238  0.00  0.00    +0.076 A 
ATOM     14 CL   UNL     1       5.915  -2.384  21.642  0.00  0.00    -0.081 Cl
ATOM     15  C   UNL     1       7.012  -4.650  21.740  0.00  0.00    +0.013 A 
ATOM     16  C   UNL     1       6.883  -5.627  22.954  0.00  0.00    +0.001 A 
ATOM     17  C   UNL     1       7.350  -5.034  24.209  0.00  0.00    +0.001 A 
ATOM     18  C   UNL     1       7.815  -3.715  24.736  0.00  0.00    +0.021 A 
ENDBRANCH   9  12
ENDBRANCH   6   9
BRANCH   2  19
ATOM     19  C   UNL     1       8.830   1.002  21.578  0.00  0.00    +0.180 C 
ATOM     20 CL   UNL     1       8.124   0.034  20.271  0.00  0.00    -0.103 Cl
ENDBRANCH   2  19
TORSDOF 3
ENDMDL
MODEL 2
REMARK VINA RESULT:      -6.4      2.801      5.578
REMARK  Name = 
REMARK  3 active torsions:
REMARK  status: ('A' for Active; 'I' for Inactive)
REMARK    1  A    between atoms: C_2  and  C_3
REMARK    2  A    between atoms: N_8  and  S_9
REMARK    3  A    between atoms: S_9  and  C_12
REMARK                            x       y       z     vdW  Elec       q    Type
REMARK                         _______ _______ _______ _____ _____    ______ ____
ROOT
ATOM      1  O   UNL     1       5.394  -4.343  26.113  0.00  0.00    -0.273 OA
ATOM      2  C   UNL     1       6.151  -4.476  25.146  0.00  0.00    +0.242 C 
ATOM      3  N   UNL     1       5.583  -4.713  23.932  0.00  0.00    -0.276 N 
ATOM      4  C   UNL     1       6.336  -5.555  22.975  0.00  0.00    +0.113 C 
ATOM      5  C   UNL     1       7.475  -4.672  22.453  0.00  0.00    +0.117 C 
ATOM      6  N   UNL     1       7.098  -3.347  22.347  0.00  0.00    -0.152 NA
ATOM      7  C   UNL     1       5.791  -3.012  22.223  0.00  0.00    +0.117 C 
ATOM      8  C   UNL     1       4.877  -3.572  23.304  0.00  0.00    +0.113 C 
ENDROOT
BRANCH   6   9
ATOM      9  S   UNL     1       8.126  -2.249  22.907  0.00  0.00    +0.064 S 
ATOM     10  O   UNL     1       7.558  -1.510  23.981  0.00  0.00    -0.153 OA
ATOM     11  O   UNL     1       9.328  -3.027  23.368  0.00  0.00    -0.153 OA
BRANCH   9  12
ATOM     12  C   UNL     1       8.740  -1.217  21.597  0.00  0.00    +0.133 A 
ATOM     13  C   UNL     1       7.907  -0.104  21.231  0.00  0.00    +0.076 A 
ATOM     14 CL   UNL     1       7.607  -0.132  19.453  0.00  0.00    -0.081 Cl
ATOM     15  C   UNL     1       7.861   1.397  21.440  0.00  0.00    +0.013 A 
ATOM     16  C   UNL     1       9.241   1.893  21.984  0.00  0.00    +0.001 A 
ATOM     17  C   UNL     1      10.130   0.792  22.362  0.00  0.00    +0.001 A 
ATOM     18  C   UNL     1      10.185  -0.700  22.280  0.00  0.00    +0.021 A 
ENDBRANCH   9  12
ENDBRANCH   6   9
BRANCH   2  19
ATOM     19  C   UNL     1       7.532  -5.050  25.373  0.00  0.00    +0.180 C 
ATOM     20 CL   UNL     1       8.437  -4.080  26.549  0.00  0.00    -0.103 Cl
ENDBRANCH   2  19
TORSDOF 3
ENDMDL
MODEL 3
REMARK VINA RESULT:      -6.3      2.127      5.323
REMARK  Name = 
REMARK  3 active torsions:
REMARK  status: ('A' for Active; 'I' for Inactive)
REMARK    1  A    between atoms: C_2  and  C_3
REMARK    2  A    between atoms: N_8  and  S_9
REMARK    3  A    between atoms: S_9  and  C_12
REMARK                            x       y       z     vdW  Elec       q    Type
REMARK                         _______ _______ _______ _____ _____    ______ ____
ROOT
ATOM      1  O   UNL     1       8.811  -5.354  24.171  0.00  0.00    -0.273 OA
ATOM      2  C   UNL     1       7.969  -4.472  23.968  0.00  0.00    +0.242 C 
ATOM      3  N   UNL     1       7.755  -3.568  24.963  0.00  0.00    -0.276 N 
ATOM      4  C   UNL     1       6.388  -3.017  25.105  0.00  0.00    +0.113 C 
ATOM      5  C   UNL     1       6.217  -2.029  23.946  0.00  0.00    +0.117 C 
ATOM      6  N   UNL     1       7.397  -1.379  23.638  0.00  0.00    -0.152 NA
ATOM      7  C   UNL     1       8.379  -1.264  24.564  0.00  0.00    +0.117 C 
ATOM      8  C   UNL     1       8.831  -2.576  25.191  0.00  0.00    +0.113 C 
ENDROOT
BRANCH   6   9
ATOM      9  S   UNL     1       7.783  -1.265  22.085  0.00  0.00    +0.064 S 
ATOM     10  O   UNL     1       8.966  -1.997  21.792  0.00  0.00    -0.153 OA
ATOM     11  O   UNL     1       6.605  -1.827  21.338  0.00  0.00    -0.153 OA
BRANCH   9  12
ATOM     12  C   UNL     1       7.867   0.433  21.568  0.00  0.00    +0.133 A 
ATOM     13  C   UNL     1       7.217   1.385  22.427  0.00  0.00    +0.076 A 
ATOM     14 CL   UNL     1       6.076   2.393  21.461  0.00  0.00    -0.081 Cl
ATOM     15  C   UNL     1       7.598   2.419  23.470  0.00  0.00    +0.013 A 
ATOM     16  C   UNL     1       9.134   2.700  23.393  0.00  0.00    +0.001 A 
ATOM     17  C   UNL     1       9.839   1.760  22.519  0.00  0.00    +0.001 A 
ATOM     18  C   UNL     1       9.532   0.658  21.556  0.00  0.00    +0.021 A 
ENDBRANCH   9  12
ENDBRANCH   6   9
BRANCH   2  19
ATOM     19  C   UNL     1       6.796  -4.779  23.064  0.00  0.00    +0.180 C 
ATOM     20 CL   UNL     1       7.293  -5.802  21.705  0.00  0.00    -0.103 Cl
ENDBRANCH   2  19
TORSDOF 3
ENDMDL
MODEL 4
REMARK VINA RESULT:      -6.3      2.375      5.142
REMARK  Name = 
REMARK  3 active torsions:
REMARK  status: ('A' for Active; 'I' for Inactive)
REMARK    1  A    between atoms: C_2  and  C_3
REMARK    2  A    between atoms: N_8  and  S_9
REMARK    3  A    between atoms: S_9  and  C_12
REMARK                            x       y       z     vdW  Elec       q    Type
REMARK                         _______ _______ _______ _____ _____    ______ ____
ROOT
ATOM      1  O   UNL     1       8.112  -4.533  27.106  0.00  0.00    -0.273 OA
ATOM      2  C   UNL     1       7.525  -4.008  26.154  0.00  0.00    +0.242 C 
ATOM      3  N   UNL     1       7.046  -2.746  26.330  0.00  0.00    -0.276 N 
ATOM      4  C   UNL     1       5.806  -2.377  25.611  0.00  0.00    +0.113 C 
ATOM      5  C   UNL     1       6.217  -2.193  24.145  0.00  0.00    +0.117 C 
ATOM      6  N   UNL     1       7.490  -1.670  24.024  0.00  0.00    -0.152 NA
ATOM      7  C   UNL     1       8.040  -0.958  25.037  0.00  0.00    +0.117 C 
ATOM      8  C   UNL     1       8.056  -1.663  26.387  0.00  0.00    +0.113 C 
ENDROOT
BRANCH   6   9
ATOM      9  S   UNL     1       8.463  -2.359  22.949  0.00  0.00    +0.064 S 
ATOM     10  O   UNL     1       9.613  -2.913  23.574  0.00  0.00    -0.153 OA
ATOM     11  O   UNL     1       7.637  -3.434  22.296  0.00  0.00    -0.153 OA
BRANCH   9  12
ATOM     12  C   UNL     1       8.857  -1.238  21.628  0.00  0.00    +0.133 A 
ATOM     13  C   UNL     1       7.888  -0.209  21.366  0.00  0.00    +0.076 A 
ATOM     14 CL   UNL     1       7.444  -0.226  19.619  0.00  0.00    -0.081 Cl
ATOM     15  C   UNL     1       7.708   1.274  21.628  0.00  0.00    +0.013 A 
ATOM     16  C   UNL     1       9.070   1.897  22.074  0.00  0.00    +0.001 A 
ATOM     17  C   UNL     1      10.095   0.885  22.342  0.00  0.00    +0.001 A 
ATOM     18  C   UNL     1      10.294  -0.590  22.208  0.00  0.00    +0.021 A 
ENDBRANCH   9  12
ENDBRANCH   6   9
BRANCH   2  19
ATOM     19  C   UNL     1       6.770  -4.892  25.186  0.00  0.00    +0.180 C 
ATOM     20 CL   UNL     1       5.751  -6.056  26.052  0.00  0.00    -0.103 Cl
ENDBRANCH   2  19
TORSDOF 3
ENDMDL
MODEL 5
REMARK VINA RESULT:      -6.1      2.901      5.219
REMARK  Name = 
REMARK  3 active torsions:
REMARK  status: ('A' for Active; 'I' for Inactive)
REMARK    1  A    between atoms: C_2  and  C_3
REMARK    2  A    between atoms: N_8  and  S_9
REMARK    3  A    between atoms: S_9  and  C_12
REMARK                            x       y       z     vdW  Elec       q    Type
REMARK                         _______ _______ _______ _____ _____    ______ ____
ROOT
ATOM      1  O   UNL     1       4.279  -4.381  22.683  0.00  0.00    -0.273 OA
ATOM      2  C   UNL     1       4.997  -4.116  23.653  0.00  0.00    +0.242 C 
ATOM      3  N   UNL     1       5.823  -5.096  24.109  0.00  0.00    -0.276 N 
ATOM      4  C   UNL     1       6.112  -5.129  25.561  0.00  0.00    +0.113 C 
ATOM      5  C   UNL     1       7.080  -3.968  25.817  0.00  0.00    +0.117 C 
ATOM      6  N   UNL     1       7.940  -3.765  24.755  0.00  0.00    -0.152 NA
ATOM      7  C   UNL     1       8.211  -4.770  23.888  0.00  0.00    +0.117 C 
ATOM      8  C   UNL     1       6.989  -5.422  23.255  0.00  0.00    +0.113 C 
ENDROOT
BRANCH   6   9
ATOM      9  S   UNL     1       8.159  -2.250  24.273  0.00  0.00    +0.064 S 
ATOM     10  O   UNL     1       7.282  -1.360  24.950  0.00  0.00    -0.153 OA
ATOM     11  O   UNL     1       9.596  -1.934  24.591  0.00  0.00    -0.153 OA
BRANCH   9  12
ATOM     12  C   UNL     1       8.058  -2.119  22.503  0.00  0.00    +0.133 A 
ATOM     13  C   UNL     1       7.070  -1.206  21.996  0.00  0.00    +0.076 A 
ATOM     14 CL   UNL     1       6.022  -2.051  20.798  0.00  0.00    -0.081 Cl
ATOM     15  C   UNL     1       7.012   0.187  21.398  0.00  0.00    +0.013 A 
ATOM     16  C   UNL     1       8.450   0.641  20.984  0.00  0.00    +0.001 A 
ATOM     17  C   UNL     1       9.492  -0.267  21.471  0.00  0.00    +0.001 A 
ATOM     18  C   UNL     1       9.614  -1.590  22.156  0.00  0.00    +0.021 A 
ENDBRANCH   9  12
ENDBRANCH   6   9
BRANCH   2  19
ATOM     19  C   UNL     1       4.503  -3.115  24.674  0.00  0.00    +0.180 C 
ATOM     20 CL   UNL     1       2.828  -3.459  25.141  0.00  0.00    -0.103 Cl
ENDBRANCH   2  19
TORSDOF 3
ENDMDL
MODEL 6
REMARK VINA RESULT:      -5.9      2.806      5.528
REMARK  Name = 
REMARK  3 active torsions:
REMARK  status: ('A' for Active; 'I' for Inactive)
REMARK    1  A    between atoms: C_2  and  C_3
REMARK    2  A    between atoms: N_8  and  S_9
REMARK    3  A    between atoms: S_9  and  C_12
REMARK                            x       y       z     vdW  Elec       q    Type
REMARK                         _______ _______ _______ _____ _____    ______ ____
ROOT
ATOM      1  O   UNL     1       5.999  -2.741  26.552  0.00  0.00    -0.273 OA
ATOM      2  C   UNL     1       6.671  -3.325  25.696  0.00  0.00    +0.242 C 
ATOM      3  N   UNL     1       6.030  -3.738  24.569  0.00  0.00    -0.276 N 
ATOM      4  C   UNL     1       6.516  -4.977  23.919  0.00  0.00    +0.113 C 
ATOM      5  C   UNL     1       7.830  -4.594  23.229  0.00  0.00    +0.117 C 
ATOM      6  N   UNL     1       7.805  -3.301  22.744  0.00  0.00    -0.152 NA
ATOM      7  C   UNL     1       6.626  -2.692  22.469  0.00  0.00    +0.117 C 
ATOM      8  C   UNL     1       5.626  -2.677  23.618  0.00  0.00    +0.113 C 
ENDROOT
BRANCH   6   9
ATOM      9  S   UNL     1       9.095  -2.390  23.028  0.00  0.00    +0.064 S 
ATOM     10  O   UNL     1      10.062  -3.090  23.801  0.00  0.00    -0.153 OA
ATOM     11  O   UNL     1       9.643  -2.039  21.671  0.00  0.00    -0.153 OA
BRANCH   9  12
ATOM     12  C   UNL     1       8.634  -0.827  23.738  0.00  0.00    +0.133 A 
ATOM     13  C   UNL     1       9.415  -0.393  24.864  0.00  0.00    +0.076 A 
ATOM     14 CL   UNL     1       8.322   0.013  26.238  0.00  0.00    -0.081 Cl
ATOM     15  C   UNL     1      10.525   0.596  25.163  0.00  0.00    +0.013 A 
ATOM     16  C   UNL     1      10.672   1.596  23.969  0.00  0.00    +0.001 A 
ATOM     17  C   UNL     1       9.884   1.200  22.799  0.00  0.00    +0.001 A 
ATOM     18  C   UNL     1       8.863   0.179  22.412  0.00  0.00    +0.021 A 
ENDBRANCH   9  12
ENDBRANCH   6   9
BRANCH   2  19
ATOM     19  C   UNL     1       7.863  -4.146  26.139  0.00  0.00    +0.180 C 
ATOM     20 CL   UNL     1       7.372  -5.412  27.279  0.00  0.00    -0.103 Cl
ENDBRANCH   2  19
TORSDOF 3
ENDMDL
MODEL 7
REMARK VINA RESULT:      -5.9      2.126      2.585
REMARK  Name = 
REMARK  3 active torsions:
REMARK  status: ('A' for Active; 'I' for Inactive)
REMARK    1  A    between atoms: C_2  and  C_3
REMARK    2  A    between atoms: N_8  and  S_9
REMARK    3  A    between atoms: S_9  and  C_12
REMARK                            x       y       z     vdW  Elec       q    Type
REMARK                         _______ _______ _______ _____ _____    ______ ____
ROOT
ATOM      1  O   UNL     1       9.345   2.161  24.156  0.00  0.00    -0.273 OA
ATOM      2  C   UNL     1       9.305   1.210  23.368  0.00  0.00    +0.242 C 
ATOM      3  N   UNL     1      10.034   0.104  23.682  0.00  0.00    -0.276 N 
ATOM      4  C   UNL     1      10.600  -0.683  22.563  0.00  0.00    +0.113 C 
ATOM      5  C   UNL     1       9.416  -1.437  21.947  0.00  0.00    +0.117 C 
ATOM      6  N   UNL     1       8.484  -1.808  22.897  0.00  0.00    -0.152 NA
ATOM      7  C   UNL     1       8.843  -1.939  24.197  0.00  0.00    +0.117 C 
ATOM      8  C   UNL     1       9.526  -0.720  24.803  0.00  0.00    +0.113 C 
ENDROOT
BRANCH   6   9
ATOM      9  S   UNL     1       6.940  -1.547  22.546  0.00  0.00    +0.064 S 
ATOM     10  O   UNL     1       6.368  -0.582  23.419  0.00  0.00    -0.153 OA
ATOM     11  O   UNL     1       6.932  -1.056  21.124  0.00  0.00    -0.153 OA
BRANCH   9  12
ATOM     12  C   UNL     1       6.027  -3.071  22.495  0.00  0.00    +0.133 A 
ATOM     13  C   UNL     1       6.811  -4.270  22.379  0.00  0.00    +0.076 A 
ATOM     14 CL   UNL     1       6.213  -5.253  20.991  0.00  0.00    -0.081 Cl
ATOM     15  C   UNL     1       7.288  -5.404  23.265  0.00  0.00    +0.013 A 
ATOM     16  C   UNL     1       6.487  -5.394  24.608  0.00  0.00    +0.001 A 
ATOM     17  C   UNL     1       5.663  -4.193  24.766  0.00  0.00    +0.001 A 
ATOM     18  C   UNL     1       5.241  -2.996  23.977  0.00  0.00    +0.021 A 
ENDBRANCH   9  12
ENDBRANCH   6   9
BRANCH   2  19
ATOM     19  C   UNL     1       9.094   1.490  21.896  0.00  0.00    +0.180 C 
ATOM     20 CL   UNL     1       7.567   2.350  21.627  0.00  0.00    -0.103 Cl
ENDBRANCH   2  19
TORSDOF 3
ENDMDL
MODEL 8
REMARK VINA RESULT:      -5.9      1.910      2.369
REMARK  Name = 
REMARK  3 active torsions:
REMARK  status: ('A' for Active; 'I' for Inactive)
REMARK    1  A    between atoms: C_2  and  C_3
REMARK    2  A    between atoms: N_8  and  S_9
REMARK    3  A    between atoms: S_9  and  C_12
REMARK                            x       y       z     vdW  Elec       q    Type
REMARK                         _______ _______ _______ _____ _____    ______ ____
ROOT
ATOM      1  O   UNL     1       7.729   2.053  22.781  0.00  0.00    -0.273 OA
ATOM      2  C   UNL     1       8.408   1.021  22.783  0.00  0.00    +0.242 C 
ATOM      3  N   UNL     1       9.189   0.784  23.872  0.00  0.00    -0.276 N 
ATOM      4  C   UNL     1      10.466   0.067  23.656  0.00  0.00    +0.113 C 
ATOM      5  C   UNL     1      10.082  -1.397  23.409  0.00  0.00    +0.117 C 
ATOM      6  N   UNL     1       8.977  -1.776  24.146  0.00  0.00    -0.152 NA
ATOM      7  C   UNL     1       8.644  -1.109  25.277  0.00  0.00    +0.117 C 
ATOM      8  C   UNL     1       8.482   0.396  25.114  0.00  0.00    +0.113 C 
ENDROOT
BRANCH   6   9
ATOM      9  S   UNL     1       7.841  -2.611  23.380  0.00  0.00    +0.064 S 
ATOM     10  O   UNL     1       6.581  -1.956  23.452  0.00  0.00    -0.153 OA
ATOM     11  O   UNL     1       8.313  -2.712  21.955  0.00  0.00    -0.153 OA
BRANCH   9  12
ATOM     12  C   UNL     1       7.787  -4.294  23.950  0.00  0.00    +0.133 A 
ATOM     13  C   UNL     1       6.794  -4.588  24.948  0.00  0.00    +0.076 A 
ATOM     14 CL   UNL     1       7.575  -5.391  26.360  0.00  0.00    -0.081 Cl
ATOM     15  C   UNL     1       5.435  -5.255  25.035  0.00  0.00    +0.013 A 
ATOM     16  C   UNL     1       5.168  -6.073  23.730  0.00  0.00    +0.001 A 
ATOM     17  C   UNL     1       6.162  -5.814  22.685  0.00  0.00    +0.001 A 
ATOM     18  C   UNL     1       7.454  -5.085  22.506  0.00  0.00    +0.021 A 
ENDBRANCH   9  12
ENDBRANCH   6   9
BRANCH   2  19
ATOM     19  C   UNL     1       8.898   0.468  21.462  0.00  0.00    +0.180 C 
ATOM     20 CL   UNL     1       7.603   0.477  20.251  0.00  0.00    -0.103 Cl
ENDBRANCH   2  19
TORSDOF 3
ENDMDL
MODEL 9
REMARK VINA RESULT:      -5.9      3.174      5.764
REMARK  Name = 
REMARK  3 active torsions:
REMARK  status: ('A' for Active; 'I' for Inactive)
REMARK    1  A    between atoms: C_2  and  C_3
REMARK    2  A    between atoms: N_8  and  S_9
REMARK    3  A    between atoms: S_9  and  C_12
REMARK                            x       y       z     vdW  Elec       q    Type
REMARK                         _______ _______ _______ _____ _____    ______ ____
ROOT
ATOM      1  O   UNL     1       5.469  -5.739  25.658  0.00  0.00    -0.273 OA
ATOM      2  C   UNL     1       6.575  -5.188  25.648  0.00  0.00    +0.242 C 
ATOM      3  N   UNL     1       7.353  -5.362  24.545  0.00  0.00    -0.276 N 
ATOM      4  C   UNL     1       8.821  -5.386  24.739  0.00  0.00    +0.113 C 
ATOM      5  C   UNL     1       9.228  -3.931  24.999  0.00  0.00    +0.117 C 
ATOM      6  N   UNL     1       8.453  -3.039  24.284  0.00  0.00    -0.152 NA
ATOM      7  C   UNL     1       7.813  -3.433  23.156  0.00  0.00    +0.117 C 
ATOM      8  C   UNL     1       6.919  -4.656  23.317  0.00  0.00    +0.113 C 
ENDROOT
BRANCH   6   9
ATOM      9  S   UNL     1       7.902  -1.756  25.074  0.00  0.00    +0.064 S 
ATOM     10  O   UNL     1       6.486  -1.798  25.206  0.00  0.00    -0.153 OA
ATOM     11  O   UNL     1       8.568  -1.801  26.422  0.00  0.00    -0.153 OA
BRANCH   9  12
ATOM     12  C   UNL     1       8.489  -0.248  24.339  0.00  0.00    +0.133 A 
ATOM     13  C   UNL     1       9.685  -0.357  23.550  0.00  0.00    +0.076 A 
ATOM     14 CL   UNL     1      10.898   0.850  24.118  0.00  0.00    -0.081 Cl
ATOM     15  C   UNL     1      10.081  -0.398  22.086  0.00  0.00    +0.013 A 
ATOM     16  C   UNL     1       8.877   0.070  21.205  0.00  0.00    +0.001 A 
ATOM     17  C   UNL     1       7.635   0.207  21.970  0.00  0.00    +0.001 A 
ATOM     18  C   UNL     1       7.164   0.154  23.387  0.00  0.00    +0.021 A 
ENDBRANCH   9  12
ENDBRANCH   6   9
BRANCH   2  19
ATOM     19  C   UNL     1       7.295  -4.973  26.961  0.00  0.00    +0.180 C 
ATOM     20 CL   UNL     1       6.393  -5.697  28.304  0.00  0.00    -0.103 Cl
ENDBRANCH   2  19
TORSDOF 3
ENDMDL
