MODEL 1
REMARK VINA RESULT:      -6.3      0.000      0.000
REMARK  Name = 
REMARK  3 active torsions:
REMARK  status: ('A' for Active; 'I' for Inactive)
REMARK    1  A    between atoms: C_7  and  C_8
REMARK    2  A    between atoms: C_8  and  N_9
REMARK    3  A    between atoms: C_13  and  C_15
REMARK                            x       y       z     vdW  Elec       q    Type
REMARK                         _______ _______ _______ _____ _____    ______ ____
ROOT
ATOM      1  N   UNL     1       8.678  -2.187  23.931  0.00  0.00    -0.266 NA
ATOM      2  C   UNL     1       8.790  -1.826  22.560  0.00  0.00    +0.094 C 
ATOM      3  C   UNL     1      10.178  -1.232  22.303  0.00  0.00    +0.111 C 
ATOM      4  N   UNL     1      10.332  -0.087  23.210  0.00  0.00    -0.276 N 
ATOM      5  C   UNL     1      10.156   1.157  22.724  0.00  0.00    +0.242 C 
ATOM      6  O   UNL     1       9.805   1.347  21.570  0.00  0.00    -0.273 OA
ATOM      7  C   UNL     1      10.084  -0.337  24.631  0.00  0.00    +0.111 C 
ATOM      8  C   UNL     1       8.778  -1.088  24.785  0.00  0.00    +0.094 C 
ENDROOT
BRANCH   5   9
ATOM      9  C   UNL     1      10.008   2.262  23.751  0.00  0.00    +0.180 C 
ATOM     10 CL   UNL     1      11.175   3.564  23.425  0.00  0.00    -0.103 Cl
ENDBRANCH   5   9
BRANCH   1  11
ATOM     11  C   UNL     1       9.422  -3.291  24.257  0.00  0.00    +0.099 C 
BRANCH  11  14
ATOM     12  C   UNL     1       7.244  -5.855  22.387  0.00  0.00    +0.031 C 
ATOM     13  C   UNL     1       7.441  -4.765  23.451  0.00  0.00    -0.024 A 
ATOM     14  C   UNL     1       8.633  -4.633  24.285  0.00  0.00    -0.010 A 
ATOM     15  C   UNL     1       9.044  -5.278  25.642  0.00  0.00    -0.003 A 
ATOM     16  C   UNL     1       7.774  -5.330  26.552  0.00  0.00    -0.000 A 
ATOM     17  C   UNL     1       6.539  -5.371  25.760  0.00  0.00    -0.000 A 
ATOM     18  C   UNL     1       6.054  -4.945  24.413  0.00  0.00    -0.005 A 
ENDBRANCH  11  14
ENDBRANCH   1  11
TORSDOF 3
ENDMDL
MODEL 2
REMARK VINA RESULT:      -6.1      3.800      6.674
REMARK  Name = 
REMARK  3 active torsions:
REMARK  status: ('A' for Active; 'I' for Inactive)
REMARK    1  A    between atoms: C_7  and  C_8
REMARK    2  A    between atoms: C_8  and  N_9
REMARK    3  A    between atoms: C_13  and  C_15
REMARK                            x       y       z     vdW  Elec       q    Type
REMARK                         _______ _______ _______ _____ _____    ______ ____
ROOT
ATOM      1  N   UNL     1       8.183  -1.557  23.219  0.00  0.00    -0.266 NA
ATOM      2  C   UNL     1       8.893  -1.948  24.388  0.00  0.00    +0.094 C 
ATOM      3  C   UNL     1       9.337  -3.408  24.250  0.00  0.00    +0.111 C 
ATOM      4  N   UNL     1       8.125  -4.207  24.023  0.00  0.00    -0.276 N 
ATOM      5  C   UNL     1       7.593  -4.891  25.055  0.00  0.00    +0.242 C 
ATOM      6  O   UNL     1       8.054  -4.804  26.182  0.00  0.00    -0.273 OA
ATOM      7  C   UNL     1       7.252  -3.781  22.928  0.00  0.00    +0.111 C 
ATOM      8  C   UNL     1       7.009  -2.290  23.035  0.00  0.00    +0.094 C 
ENDROOT
BRANCH   5   9
ATOM      9  C   UNL     1       6.190  -5.427  24.851  0.00  0.00    +0.180 C 
ATOM     10 CL   UNL     1       5.602  -6.191  26.344  0.00  0.00    -0.103 Cl
ENDBRANCH   5   9
BRANCH   1  11
ATOM     11  C   UNL     1       8.994  -1.409  22.125  0.00  0.00    +0.099 C 
BRANCH  11  14
ATOM     12  C   UNL     1      10.318   2.205  22.224  0.00  0.00    +0.031 C 
ATOM     13  C   UNL     1       9.196   1.168  22.382  0.00  0.00    -0.024 A 
ATOM     14  C   UNL     1       9.004   0.019  21.502  0.00  0.00    -0.010 A 
ATOM     15  C   UNL     1       8.246  -0.160  20.153  0.00  0.00    -0.003 A 
ATOM     16  C   UNL     1       6.916   0.657  20.240  0.00  0.00    -0.000 A 
ATOM     17  C   UNL     1       7.025   1.775  21.184  0.00  0.00    -0.000 A 
ATOM     18  C   UNL     1       7.805   2.143  22.403  0.00  0.00    -0.005 A 
ENDBRANCH  11  14
ENDBRANCH   1  11
TORSDOF 3
ENDMDL
MODEL 3
REMARK VINA RESULT:      -6.0      3.601      6.554
REMARK  Name = 
REMARK  3 active torsions:
REMARK  status: ('A' for Active; 'I' for Inactive)
REMARK    1  A    between atoms: C_7  and  C_8
REMARK    2  A    between atoms: C_8  and  N_9
REMARK    3  A    between atoms: C_13  and  C_15
REMARK                            x       y       z     vdW  Elec       q    Type
REMARK                         _______ _______ _______ _____ _____    ______ ____
ROOT
ATOM      1  N   UNL     1       8.395  -1.319  24.274  0.00  0.00    -0.266 NA
ATOM      2  C   UNL     1       8.594  -2.225  25.352  0.00  0.00    +0.094 C 
ATOM      3  C   UNL     1       9.161  -3.541  24.813  0.00  0.00    +0.111 C 
ATOM      4  N   UNL     1       8.209  -4.044  23.813  0.00  0.00    -0.276 N 
ATOM      5  C   UNL     1       7.355  -5.026  24.162  0.00  0.00    +0.242 C 
ATOM      6  O   UNL     1       7.309  -5.454  25.305  0.00  0.00    -0.273 OA
ATOM      7  C   UNL     1       7.829  -3.118  22.744  0.00  0.00    +0.111 C 
ATOM      8  C   UNL     1       7.454  -1.782  23.352  0.00  0.00    +0.094 C 
ENDROOT
BRANCH   5   9
ATOM      9  C   UNL     1       6.200  -5.277  23.213  0.00  0.00    +0.180 C 
ATOM     10 CL   UNL     1       6.681  -6.438  21.955  0.00  0.00    -0.103 Cl
ENDBRANCH   5   9
BRANCH   1  11
ATOM     11  C   UNL     1       9.567  -0.828  23.764  0.00  0.00    +0.099 C 
BRANCH  11  14
ATOM     12  C   UNL     1       9.338   2.989  24.204  0.00  0.00    +0.031 C 
ATOM     13  C   UNL     1       8.735   1.632  23.813  0.00  0.00    -0.024 A 
ATOM     14  C   UNL     1       9.461   0.580  23.107  0.00  0.00    -0.010 A 
ATOM     15  C   UNL     1       9.705   0.302  21.593  0.00  0.00    -0.003 A 
ATOM     16  C   UNL     1       8.380   0.625  20.828  0.00  0.00    -0.000 A 
ATOM     17  C   UNL     1       7.566   1.614  21.544  0.00  0.00    -0.000 A 
ATOM     18  C   UNL     1       7.351   2.090  22.943  0.00  0.00    -0.005 A 
ENDBRANCH  11  14
ENDBRANCH   1  11
TORSDOF 3
ENDMDL
MODEL 4
REMARK VINA RESULT:      -5.9      3.466      6.563
REMARK  Name = 
REMARK  3 active torsions:
REMARK  status: ('A' for Active; 'I' for Inactive)
REMARK    1  A    between atoms: C_7  and  C_8
REMARK    2  A    between atoms: C_8  and  N_9
REMARK    3  A    between atoms: C_13  and  C_15
REMARK                            x       y       z     vdW  Elec       q    Type
REMARK                         _______ _______ _______ _____ _____    ______ ____
ROOT
ATOM      1  N   UNL     1       8.713  -1.370  23.913  0.00  0.00    -0.266 NA
ATOM      2  C   UNL     1       7.892  -1.030  25.024  0.00  0.00    +0.094 C 
ATOM      3  C   UNL     1       8.465  -1.667  26.294  0.00  0.00    +0.111 C 
ATOM      4  N   UNL     1       8.535  -3.115  26.057  0.00  0.00    -0.276 N 
ATOM      5  C   UNL     1       7.579  -3.908  26.578  0.00  0.00    +0.242 C 
ATOM      6  O   UNL     1       6.624  -3.443  27.181  0.00  0.00    -0.273 OA
ATOM      7  C   UNL     1       9.237  -3.549  24.847  0.00  0.00    +0.111 C 
ATOM      8  C   UNL     1       8.739  -2.743  23.665  0.00  0.00    +0.094 C 
ENDROOT
BRANCH   5   9
ATOM      9  C   UNL     1       7.519  -5.325  26.043  0.00  0.00    +0.180 C 
ATOM     10 CL   UNL     1       6.158  -5.496  24.912  0.00  0.00    -0.103 Cl
ENDBRANCH   5   9
BRANCH   1  11
ATOM     11  C   UNL     1       9.921  -0.723  23.924  0.00  0.00    +0.099 C 
BRANCH  11  14
ATOM     12  C   UNL     1      10.836   2.984  23.435  0.00  0.00    +0.031 C 
ATOM     13  C   UNL     1       9.814   1.841  23.525  0.00  0.00    -0.024 A 
ATOM     14  C   UNL     1      10.019   0.505  22.972  0.00  0.00    -0.010 A 
ATOM     15  C   UNL     1       9.765  -0.099  21.559  0.00  0.00    -0.003 A 
ATOM     16  C   UNL     1       8.418   0.486  21.022  0.00  0.00    -0.000 A 
ATOM     17  C   UNL     1       8.118   1.792  21.619  0.00  0.00    -0.000 A 
ATOM     18  C   UNL     1       8.419   2.553  22.868  0.00  0.00    -0.005 A 
ENDBRANCH  11  14
ENDBRANCH   1  11
TORSDOF 3
ENDMDL
MODEL 5
REMARK VINA RESULT:      -5.9      1.183      1.383
REMARK  Name = 
REMARK  3 active torsions:
REMARK  status: ('A' for Active; 'I' for Inactive)
REMARK    1  A    between atoms: C_7  and  C_8
REMARK    2  A    between atoms: C_8  and  N_9
REMARK    3  A    between atoms: C_13  and  C_15
REMARK                            x       y       z     vdW  Elec       q    Type
REMARK                         _______ _______ _______ _____ _____    ______ ____
ROOT
ATOM      1  N   UNL     1       7.973  -2.238  23.427  0.00  0.00    -0.266 NA
ATOM      2  C   UNL     1       7.934  -1.507  22.208  0.00  0.00    +0.094 C 
ATOM      3  C   UNL     1       9.363  -1.204  21.750  0.00  0.00    +0.111 C 
ATOM      4  N   UNL     1      10.018  -0.465  22.838  0.00  0.00    -0.276 N 
ATOM      5  C   UNL     1      10.136   0.873  22.739  0.00  0.00    +0.242 C 
ATOM      6  O   UNL     1       9.651   1.488  21.802  0.00  0.00    -0.273 OA
ATOM      7  C   UNL     1       9.974  -1.078  24.167  0.00  0.00    +0.111 C 
ATOM      8  C   UNL     1       8.555  -1.513  24.469  0.00  0.00    +0.094 C 
ENDROOT
BRANCH   5   9
ATOM      9  C   UNL     1      10.518   1.607  24.009  0.00  0.00    +0.180 C 
ATOM     10 CL   UNL     1       9.102   2.444  24.683  0.00  0.00    -0.103 Cl
ENDBRANCH   5   9
BRANCH   1  11
ATOM     11  C   UNL     1       8.400  -3.530  23.263  0.00  0.00    +0.099 C 
BRANCH  11  14
ATOM     12  C   UNL     1       5.341  -5.581  24.384  0.00  0.00    +0.031 C 
ATOM     13  C   UNL     1       6.365  -4.454  24.586  0.00  0.00    -0.024 A 
ATOM     14  C   UNL     1       7.783  -4.559  24.256  0.00  0.00    -0.010 A 
ATOM     15  C   UNL     1       9.013  -5.088  25.053  0.00  0.00    -0.003 A 
ATOM     16  C   UNL     1       8.857  -4.626  26.538  0.00  0.00    -0.000 A 
ATOM     17  C   UNL     1       7.449  -4.417  26.896  0.00  0.00    -0.000 A 
ATOM     18  C   UNL     1       6.160  -4.071  26.227  0.00  0.00    -0.005 A 
ENDBRANCH  11  14
ENDBRANCH   1  11
TORSDOF 3
ENDMDL
MODEL 6
REMARK VINA RESULT:      -5.9      3.981      6.684
REMARK  Name = 
REMARK  3 active torsions:
REMARK  status: ('A' for Active; 'I' for Inactive)
REMARK    1  A    between atoms: C_7  and  C_8
REMARK    2  A    between atoms: C_8  and  N_9
REMARK    3  A    between atoms: C_13  and  C_15
REMARK                            x       y       z     vdW  Elec       q    Type
REMARK                         _______ _______ _______ _____ _____    ______ ____
ROOT
ATOM      1  N   UNL     1       8.581  -2.617  24.780  0.00  0.00    -0.266 NA
ATOM      2  C   UNL     1       8.840  -3.460  25.895  0.00  0.00    +0.094 C 
ATOM      3  C   UNL     1       8.717  -4.925  25.466  0.00  0.00    +0.111 C 
ATOM      4  N   UNL     1       7.365  -5.102  24.919  0.00  0.00    -0.276 N 
ATOM      5  C   UNL     1       6.419  -5.671  25.690  0.00  0.00    +0.242 C 
ATOM      6  O   UNL     1       6.642  -5.977  26.851  0.00  0.00    -0.273 OA
ATOM      7  C   UNL     1       6.957  -4.172  23.863  0.00  0.00    +0.111 C 
ATOM      8  C   UNL     1       7.280  -2.756  24.294  0.00  0.00    +0.094 C 
ENDROOT
BRANCH   5   9
ATOM      9  C   UNL     1       4.989  -5.536  25.205  0.00  0.00    +0.180 C 
ATOM     10 CL   UNL     1       4.502  -6.997  24.317  0.00  0.00    -0.103 Cl
ENDBRANCH   5   9
BRANCH   1  11
ATOM     11  C   UNL     1       9.589  -2.630  23.852  0.00  0.00    +0.099 C 
BRANCH  11  14
ATOM     12  C   UNL     1      11.130   0.806  24.648  0.00  0.00    +0.031 C 
ATOM     13  C   UNL     1       9.946  -0.089  24.257  0.00  0.00    -0.024 A 
ATOM     14  C   UNL     1      10.038  -1.227  23.346  0.00  0.00    -0.010 A 
ATOM     15  C   UNL     1       9.944  -1.345  21.796  0.00  0.00    -0.003 A 
ATOM     16  C   UNL     1       8.816  -0.378  21.309  0.00  0.00    -0.000 A 
ATOM     17  C   UNL     1       8.619   0.739  22.240  0.00  0.00    -0.000 A 
ATOM     18  C   UNL     1       8.812   1.040  23.690  0.00  0.00    -0.005 A 
ENDBRANCH  11  14
ENDBRANCH   1  11
TORSDOF 3
ENDMDL
MODEL 7
REMARK VINA RESULT:      -5.8      3.733      6.678
REMARK  Name = 
REMARK  3 active torsions:
REMARK  status: ('A' for Active; 'I' for Inactive)
REMARK    1  A    between atoms: C_7  and  C_8
REMARK    2  A    between atoms: C_8  and  N_9
REMARK    3  A    between atoms: C_13  and  C_15
REMARK                            x       y       z     vdW  Elec       q    Type
REMARK                         _______ _______ _______ _____ _____    ______ ____
ROOT
ATOM      1  N   UNL     1       7.833  -2.197  23.315  0.00  0.00    -0.266 NA
ATOM      2  C   UNL     1       7.821  -2.908  24.547  0.00  0.00    +0.094 C 
ATOM      3  C   UNL     1       8.105  -4.390  24.281  0.00  0.00    +0.111 C 
ATOM      4  N   UNL     1       7.083  -4.863  23.338  0.00  0.00    -0.276 N 
ATOM      5  C   UNL     1       6.036  -5.567  23.810  0.00  0.00    +0.242 C 
ATOM      6  O   UNL     1       5.884  -5.757  25.007  0.00  0.00    -0.273 OA
ATOM      7  C   UNL     1       6.923  -4.093  22.103  0.00  0.00    +0.111 C 
ATOM      8  C   UNL     1       6.830  -2.620  22.442  0.00  0.00    +0.094 C 
ENDROOT
BRANCH   5   9
ATOM      9  C   UNL     1       4.867  -5.747  22.861  0.00  0.00    +0.180 C 
ATOM     10 CL   UNL     1       3.485  -4.765  23.396  0.00  0.00    -0.103 Cl
ENDBRANCH   5   9
BRANCH   1  11
ATOM     11  C   UNL     1       9.091  -2.060  22.789  0.00  0.00    +0.099 C 
BRANCH  11  14
ATOM     12  C   UNL     1      11.045   0.752  24.547  0.00  0.00    +0.031 C 
ATOM     13  C   UNL     1       9.744   0.137  24.012  0.00  0.00    -0.024 A 
ATOM     14  C   UNL     1       9.636  -0.601  22.756  0.00  0.00    -0.010 A 
ATOM     15  C   UNL     1       9.394  -0.148  21.286  0.00  0.00    -0.003 A 
ATOM     16  C   UNL     1       8.334   1.001  21.307  0.00  0.00    -0.000 A 
ATOM     17  C   UNL     1       8.338   1.720  22.587  0.00  0.00    -0.000 A 
ATOM     18  C   UNL     1       8.688   1.466  24.016  0.00  0.00    -0.005 A 
ENDBRANCH  11  14
ENDBRANCH   1  11
TORSDOF 3
ENDMDL
MODEL 8
REMARK VINA RESULT:      -5.8      2.915      3.353
REMARK  Name = 
REMARK  3 active torsions:
REMARK  status: ('A' for Active; 'I' for Inactive)
REMARK    1  A    between atoms: C_7  and  C_8
REMARK    2  A    between atoms: C_8  and  N_9
REMARK    3  A    between atoms: C_13  and  C_15
REMARK                            x       y       z     vdW  Elec       q    Type
REMARK                         _______ _______ _______ _____ _____    ______ ____
ROOT
ATOM      1  N   UNL     1       7.926  -1.814  23.154  0.00  0.00    -0.266 NA
ATOM      2  C   UNL     1       8.583  -1.982  21.904  0.00  0.00    +0.094 C 
ATOM      3  C   UNL     1       9.172  -0.641  21.454  0.00  0.00    +0.111 C 
ATOM      4  N   UNL     1       8.061   0.318  21.391  0.00  0.00    -0.276 N 
ATOM      5  C   UNL     1       7.523   0.614  20.192  0.00  0.00    +0.242 C 
ATOM      6  O   UNL     1       7.891   0.052  19.172  0.00  0.00    -0.273 OA
ATOM      7  C   UNL     1       7.233   0.444  22.592  0.00  0.00    +0.111 C 
ATOM      8  C   UNL     1       6.843  -0.937  23.077  0.00  0.00    +0.094 C 
ENDROOT
BRANCH   5   9
ATOM      9  C   UNL     1       6.195   1.345  20.217  0.00  0.00    +0.180 C 
ATOM     10 CL   UNL     1       5.398   1.222  18.632  0.00  0.00    -0.103 Cl
ENDBRANCH   5   9
BRANCH   1  11
ATOM     11  C   UNL     1       8.796  -1.628  24.196  0.00  0.00    +0.099 C 
BRANCH  11  14
ATOM     12  C   UNL     1       9.839  -5.086  25.526  0.00  0.00    +0.031 C 
ATOM     13  C   UNL     1       8.796  -4.109  24.964  0.00  0.00    -0.024 A 
ATOM     14  C   UNL     1       8.711  -2.696  25.325  0.00  0.00    -0.010 A 
ATOM     15  C   UNL     1       7.995  -1.949  26.490  0.00  0.00    -0.003 A 
ATOM     16  C   UNL     1       6.605  -2.629  26.713  0.00  0.00    -0.000 A 
ATOM     17  C   UNL     1       6.610  -4.031  26.279  0.00  0.00    -0.000 A 
ATOM     18  C   UNL     1       7.336  -4.903  25.308  0.00  0.00    -0.005 A 
ENDBRANCH  11  14
ENDBRANCH   1  11
TORSDOF 3
ENDMDL
MODEL 9
REMARK VINA RESULT:      -5.7      3.454      6.566
REMARK  Name = 
REMARK  3 active torsions:
REMARK  status: ('A' for Active; 'I' for Inactive)
REMARK    1  A    between atoms: C_7  and  C_8
REMARK    2  A    between atoms: C_8  and  N_9
REMARK    3  A    between atoms: C_13  and  C_15
REMARK                            x       y       z     vdW  Elec       q    Type
REMARK                         _______ _______ _______ _____ _____    ______ ____
ROOT
ATOM      1  N   UNL     1       8.371  -1.514  23.408  0.00  0.00    -0.266 NA
ATOM      2  C   UNL     1       7.084  -1.305  22.839  0.00  0.00    +0.094 C 
ATOM      3  C   UNL     1       6.019  -1.930  23.745  0.00  0.00    +0.111 C 
ATOM      4  N   UNL     1       6.355  -3.353  23.889  0.00  0.00    -0.276 N 
ATOM      5  C   UNL     1       5.681  -4.259  23.155  0.00  0.00    +0.242 C 
ATOM      6  O   UNL     1       4.850  -3.918  22.327  0.00  0.00    -0.273 OA
ATOM      7  C   UNL     1       7.717  -3.664  24.327  0.00  0.00    +0.111 C 
ATOM      8  C   UNL     1       8.703  -2.867  23.498  0.00  0.00    +0.094 C 
ENDROOT
BRANCH   5   9
ATOM      9  C   UNL     1       6.276  -5.652  23.100  0.00  0.00    +0.180 C 
ATOM     10 CL   UNL     1       7.047  -5.928  21.522  0.00  0.00    -0.103 Cl
ENDBRANCH   5   9
BRANCH   1  11
ATOM     11  C   UNL     1       8.594  -0.749  24.522  0.00  0.00    +0.099 C 
BRANCH  11  14
ATOM     12  C   UNL     1       8.139   2.995  25.292  0.00  0.00    +0.031 C 
ATOM     13  C   UNL     1       8.004   1.776  24.368  0.00  0.00    -0.024 A 
ATOM     14  C   UNL     1       9.009   0.724  24.237  0.00  0.00    -0.010 A 
ATOM     15  C   UNL     1      10.278   0.586  23.344  0.00  0.00    -0.003 A 
ATOM     16  C   UNL     1       9.932   1.155  21.929  0.00  0.00    -0.000 A 
ATOM     17  C   UNL     1       8.859   2.153  21.993  0.00  0.00    -0.000 A 
ATOM     18  C   UNL     1       7.694   2.497  22.862  0.00  0.00    -0.005 A 
ENDBRANCH  11  14
ENDBRANCH   1  11
TORSDOF 3
ENDMDL
