MODEL 1
REMARK VINA RESULT:      -6.2      0.000      0.000
REMARK  Name = 
REMARK  3 active torsions:
REMARK  status: ('A' for Active; 'I' for Inactive)
REMARK    1  A    between atoms: C_6  and  N_7
REMARK    2  A    between atoms: N_7  and  C_12
REMARK    3  A    between atoms: C_8  and  C_10
REMARK                            x       y       z     vdW  Elec       q    Type
REMARK                         _______ _______ _______ _____ _____    ______ ____
ROOT
ATOM      1  N   UNL     1       8.801  -0.141  22.608  0.00  0.00    -0.254 N 
ATOM      2  C   UNL     1       9.423  -1.361  22.636  0.00  0.00    +0.246 C 
ATOM      3  O   UNL     1      10.443  -1.527  21.994  0.00  0.00    -0.273 OA
ENDROOT
BRANCH   1   7
ATOM      4  C   UNL     1      11.614   3.813  23.449  0.00  0.00    +0.031 C 
ATOM      5  C   UNL     1      10.270   3.238  23.065  0.00  0.00    -0.021 A 
ATOM      6  C   UNL     1      10.179   1.789  22.947  0.00  0.00    +0.011 A 
ATOM      7  C   UNL     1       9.489   0.638  23.552  0.00  0.00    +0.054 A 
ATOM      8  C   UNL     1       8.459   1.159  24.626  0.00  0.00    +0.015 A 
ATOM      9  C   UNL     1       8.623   2.628  24.931  0.00  0.00    +0.001 A 
ATOM     10  C   UNL     1       9.189   3.791  24.188  0.00  0.00    -0.004 A 
ENDBRANCH   1   7
BRANCH   1  11
ATOM     11  C   UNL     1       8.666   0.475  21.276  0.00  0.00    +0.127 C 
ATOM     12  C   UNL     1       8.317  -0.668  20.280  0.00  0.00    +0.180 C 
ATOM     13  S   UNL     1       6.852   0.001  19.411  0.00  0.00    +0.012 S 
ATOM     14  O   UNL     1       7.317   0.527  18.186  0.00  0.00    -0.169 OA
ATOM     15  O   UNL     1       5.848  -0.965  19.457  0.00  0.00    -0.169 OA
ATOM     16  C   UNL     1       6.387   1.415  20.483  0.00  0.00    +0.120 C 
ATOM     17  C   UNL     1       7.572   1.489  21.329  0.00  0.00    +0.015 C 
ENDBRANCH   1  11
BRANCH   2  18
ATOM     18  C   UNL     1       9.062  -2.269  23.786  0.00  0.00    +0.180 C 
ATOM     19 CL   UNL     1       7.286  -2.328  23.971  0.00  0.00    -0.103 Cl
ENDBRANCH   2  18
TORSDOF 3
ENDMDL
MODEL 2
REMARK VINA RESULT:      -5.8      3.046      4.564
REMARK  Name = 
REMARK  3 active torsions:
REMARK  status: ('A' for Active; 'I' for Inactive)
REMARK    1  A    between atoms: C_6  and  N_7
REMARK    2  A    between atoms: N_7  and  C_12
REMARK    3  A    between atoms: C_8  and  C_10
REMARK                            x       y       z     vdW  Elec       q    Type
REMARK                         _______ _______ _______ _____ _____    ______ ____
ROOT
ATOM      1  N   UNL     1       8.664  -0.777  22.831  0.00  0.00    -0.254 N 
ATOM      2  C   UNL     1      10.000  -1.023  23.000  0.00  0.00    +0.246 C 
ATOM      3  O   UNL     1      10.570  -1.778  22.235  0.00  0.00    -0.273 OA
ENDROOT
BRANCH   1   7
ATOM      4  C   UNL     1       7.163   0.486  18.313  0.00  0.00    +0.031 C 
ATOM      5  C   UNL     1       6.817   0.139  19.742  0.00  0.00    -0.021 A 
ATOM      6  C   UNL     1       7.919  -0.230  20.620  0.00  0.00    +0.011 A 
ATOM      7  C   UNL     1       8.601   0.220  21.845  0.00  0.00    +0.054 A 
ATOM      8  C   UNL     1       7.836   1.468  22.433  0.00  0.00    +0.015 A 
ATOM      9  C   UNL     1       6.795   2.016  21.486  0.00  0.00    +0.001 A 
ATOM     10  C   UNL     1       6.008   1.445  20.357  0.00  0.00    -0.004 A 
ENDBRANCH   1   7
BRANCH   1  11
ATOM     11  C   UNL     1       7.825  -1.960  22.569  0.00  0.00    +0.127 C 
ATOM     12  C   UNL     1       8.430  -3.135  23.391  0.00  0.00    +0.180 C 
ATOM     13  S   UNL     1       6.967  -3.788  24.276  0.00  0.00    +0.012 S 
ATOM     14  O   UNL     1       6.526  -4.914  23.547  0.00  0.00    -0.169 OA
ATOM     15  O   UNL     1       7.290  -3.876  25.630  0.00  0.00    -0.169 OA
ATOM     16  C   UNL     1       5.741  -2.448  24.027  0.00  0.00    +0.120 C 
ATOM     17  C   UNL     1       6.430  -1.662  23.010  0.00  0.00    +0.015 C 
ENDBRANCH   1  11
BRANCH   2  18
ATOM     18  C   UNL     1      10.764  -0.022  23.832  0.00  0.00    +0.180 C 
ATOM     19 CL   UNL     1       9.930   0.225  25.392  0.00  0.00    -0.103 Cl
ENDBRANCH   2  18
TORSDOF 3
ENDMDL
MODEL 3
REMARK VINA RESULT:      -5.6      3.583      4.555
REMARK  Name = 
REMARK  3 active torsions:
REMARK  status: ('A' for Active; 'I' for Inactive)
REMARK    1  A    between atoms: C_6  and  N_7
REMARK    2  A    between atoms: N_7  and  C_12
REMARK    3  A    between atoms: C_8  and  C_10
REMARK                            x       y       z     vdW  Elec       q    Type
REMARK                         _______ _______ _______ _____ _____    ______ ____
ROOT
ATOM      1  N   UNL     1       8.063  -3.666  24.791  0.00  0.00    -0.254 N 
ATOM      2  C   UNL     1       8.769  -4.752  25.233  0.00  0.00    +0.246 C 
ATOM      3  O   UNL     1       9.692  -5.177  24.565  0.00  0.00    -0.273 OA
ENDROOT
BRANCH   1   7
ATOM      4  C   UNL     1      10.563   0.344  23.403  0.00  0.00    +0.031 C 
ATOM      5  C   UNL     1       9.239  -0.365  23.559  0.00  0.00    -0.021 A 
ATOM      6  C   UNL     1       9.276  -1.737  24.048  0.00  0.00    +0.011 A 
ATOM      7  C   UNL     1       8.823  -2.554  25.187  0.00  0.00    +0.054 A 
ATOM      8  C   UNL     1       7.950  -1.660  26.149  0.00  0.00    +0.015 A 
ATOM      9  C   UNL     1       8.016  -0.192  25.804  0.00  0.00    +0.001 A 
ATOM     10  C   UNL     1       8.321   0.576  24.564  0.00  0.00    -0.004 A 
ENDBRANCH   1   7
BRANCH   1  11
ATOM     11  C   UNL     1       7.689  -3.684  23.365  0.00  0.00    +0.127 C 
ATOM     12  C   UNL     1       7.420  -5.169  22.987  0.00  0.00    +0.180 C 
ATOM     13  S   UNL     1       5.784  -5.077  22.174  0.00  0.00    +0.012 S 
ATOM     14  O   UNL     1       6.025  -5.073  20.782  0.00  0.00    -0.169 OA
ATOM     15  O   UNL     1       4.955  -6.029  22.768  0.00  0.00    -0.169 OA
ATOM     16  C   UNL     1       5.219  -3.397  22.645  0.00  0.00    +0.120 C 
ATOM     17  C   UNL     1       6.461  -2.856  23.183  0.00  0.00    +0.015 C 
ENDBRANCH   1  11
BRANCH   2  18
ATOM     18  C   UNL     1       8.647  -5.076  26.702  0.00  0.00    +0.180 C 
ATOM     19 CL   UNL     1       6.932  -5.357  27.116  0.00  0.00    -0.103 Cl
ENDBRANCH   2  18
TORSDOF 3
ENDMDL
MODEL 4
REMARK VINA RESULT:      -5.6      3.792      5.306
REMARK  Name = 
REMARK  3 active torsions:
REMARK  status: ('A' for Active; 'I' for Inactive)
REMARK    1  A    between atoms: C_6  and  N_7
REMARK    2  A    between atoms: N_7  and  C_12
REMARK    3  A    between atoms: C_8  and  C_10
REMARK                            x       y       z     vdW  Elec       q    Type
REMARK                         _______ _______ _______ _____ _____    ______ ____
ROOT
ATOM      1  N   UNL     1       7.003  -2.680  23.229  0.00  0.00    -0.254 N 
ATOM      2  C   UNL     1       6.363  -3.843  22.893  0.00  0.00    +0.246 C 
ATOM      3  O   UNL     1       5.319  -3.793  22.272  0.00  0.00    -0.273 OA
ENDROOT
BRANCH   1   7
ATOM      4  C   UNL     1       7.428   0.342  19.364  0.00  0.00    +0.031 C 
ATOM      5  C   UNL     1       7.498   0.135  20.859  0.00  0.00    -0.021 A 
ATOM      6  C   UNL     1       7.145  -1.185  21.361  0.00  0.00    +0.011 A 
ATOM      7  C   UNL     1       7.734  -2.325  22.085  0.00  0.00    +0.054 A 
ATOM      8  C   UNL     1       9.206  -1.958  22.516  0.00  0.00    +0.015 A 
ATOM      9  C   UNL     1       9.702  -0.683  21.878  0.00  0.00    +0.001 A 
ATOM     10  C   UNL     1       9.040   0.527  21.312  0.00  0.00    -0.004 A 
ENDBRANCH   1   7
BRANCH   1  11
ATOM     11  C   UNL     1       6.144  -1.612  23.771  0.00  0.00    +0.127 C 
ATOM     12  C   UNL     1       5.118  -2.295  24.721  0.00  0.00    +0.180 C 
ATOM     13  S   UNL     1       5.266  -1.293  26.245  0.00  0.00    +0.012 S 
ATOM     14  O   UNL     1       4.194  -0.373  26.228  0.00  0.00    -0.169 OA
ATOM     15  O   UNL     1       5.463  -2.165  27.315  0.00  0.00    -0.169 OA
ATOM     16  C   UNL     1       6.810  -0.353  25.933  0.00  0.00    +0.120 C 
ATOM     17  C   UNL     1       7.000  -0.644  24.517  0.00  0.00    +0.015 C 
ENDBRANCH   1  11
BRANCH   2  18
ATOM     18  C   UNL     1       7.199  -5.099  22.924  0.00  0.00    +0.180 C 
ATOM     19 CL   UNL     1       6.906  -6.055  21.444  0.00  0.00    -0.103 Cl
ENDBRANCH   2  18
TORSDOF 3
ENDMDL
MODEL 5
REMARK VINA RESULT:      -5.5      4.094      5.360
REMARK  Name = 
REMARK  3 active torsions:
REMARK  status: ('A' for Active; 'I' for Inactive)
REMARK    1  A    between atoms: C_6  and  N_7
REMARK    2  A    between atoms: N_7  and  C_12
REMARK    3  A    between atoms: C_8  and  C_10
REMARK                            x       y       z     vdW  Elec       q    Type
REMARK                         _______ _______ _______ _____ _____    ______ ____
ROOT
ATOM      1  N   UNL     1       7.482  -3.829  24.188  0.00  0.00    -0.254 N 
ATOM      2  C   UNL     1       8.169  -5.012  24.127  0.00  0.00    +0.246 C 
ATOM      3  O   UNL     1       8.267  -5.592  23.063  0.00  0.00    -0.273 OA
ENDROOT
BRANCH   1   7
ATOM      4  C   UNL     1       8.663  -0.400  20.856  0.00  0.00    +0.031 C 
ATOM      5  C   UNL     1       7.768  -0.853  21.985  0.00  0.00    -0.021 A 
ATOM      6  C   UNL     1       8.006  -2.185  22.525  0.00  0.00    +0.011 A 
ATOM      7  C   UNL     1       8.404  -2.854  23.775  0.00  0.00    +0.054 A 
ATOM      8  C   UNL     1       8.546  -1.775  24.916  0.00  0.00    +0.015 A 
ATOM      9  C   UNL     1       8.492  -0.359  24.393  0.00  0.00    +0.001 A 
ATOM     10  C   UNL     1       7.913   0.283  23.179  0.00  0.00    -0.004 A 
ENDBRANCH   1   7
BRANCH   1  11
ATOM     11  C   UNL     1       6.192  -3.802  23.477  0.00  0.00    +0.127 C 
ATOM     12  C   UNL     1       5.658  -5.263  23.452  0.00  0.00    +0.180 C 
ATOM     13  S   UNL     1       3.948  -5.067  24.075  0.00  0.00    +0.012 S 
ATOM     14  O   UNL     1       3.106  -5.052  22.941  0.00  0.00    -0.169 OA
ATOM     15  O   UNL     1       3.762  -5.982  25.111  0.00  0.00    -0.169 OA
ATOM     16  C   UNL     1       3.986  -3.368  24.762  0.00  0.00    +0.120 C 
ATOM     17  C   UNL     1       5.257  -2.905  24.219  0.00  0.00    +0.015 C 
ENDBRANCH   1  11
BRANCH   2  18
ATOM     18  C   UNL     1       9.118  -5.294  25.266  0.00  0.00    +0.180 C 
ATOM     19 CL   UNL     1       8.283  -5.032  26.824  0.00  0.00    -0.103 Cl
ENDBRANCH   2  18
TORSDOF 3
ENDMDL
MODEL 6
REMARK VINA RESULT:      -5.4      2.564      4.644
REMARK  Name = 
REMARK  3 active torsions:
REMARK  status: ('A' for Active; 'I' for Inactive)
REMARK    1  A    between atoms: C_6  and  N_7
REMARK    2  A    between atoms: N_7  and  C_12
REMARK    3  A    between atoms: C_8  and  C_10
REMARK                            x       y       z     vdW  Elec       q    Type
REMARK                         _______ _______ _______ _____ _____    ______ ____
ROOT
ATOM      1  N   UNL     1       8.044  -0.697  22.359  0.00  0.00    -0.254 N 
ATOM      2  C   UNL     1       8.831   0.326  22.819  0.00  0.00    +0.246 C 
ATOM      3  O   UNL     1       8.319   1.247  23.426  0.00  0.00    -0.273 OA
ENDROOT
BRANCH   1   7
ATOM      4  C   UNL     1       4.967  -2.596  25.703  0.00  0.00    +0.031 C 
ATOM      5  C   UNL     1       5.421  -2.508  24.265  0.00  0.00    -0.021 A 
ATOM      6  C   UNL     1       6.498  -1.573  23.967  0.00  0.00    +0.011 A 
ATOM      7  C   UNL     1       7.881  -1.551  23.461  0.00  0.00    +0.054 A 
ATOM      8  C   UNL     1       8.299  -3.011  23.037  0.00  0.00    +0.015 A 
ATOM      9  C   UNL     1       7.305  -4.058  23.481  0.00  0.00    +0.001 A 
ATOM     10  C   UNL     1       5.853  -4.041  23.818  0.00  0.00    -0.004 A 
ENDBRANCH   1   7
BRANCH   1  11
ATOM     11  C   UNL     1       6.790  -0.291  21.700  0.00  0.00    +0.127 C 
ATOM     12  C   UNL     1       7.140   0.892  20.751  0.00  0.00    +0.180 C 
ATOM     13  S   UNL     1       6.391   0.361  19.169  0.00  0.00    +0.012 S 
ATOM     14  O   UNL     1       5.151   1.031  19.066  0.00  0.00    -0.169 OA
ATOM     15  O   UNL     1       7.363   0.470  18.175  0.00  0.00    -0.169 OA
ATOM     16  C   UNL     1       6.041  -1.410  19.488  0.00  0.00    +0.120 C 
ATOM     17  C   UNL     1       6.259  -1.454  20.929  0.00  0.00    +0.015 C 
ENDBRANCH   1  11
BRANCH   2  18
ATOM     18  C   UNL     1      10.308   0.035  22.929  0.00  0.00    +0.180 C 
ATOM     19 CL   UNL     1      10.882   0.453  24.568  0.00  0.00    -0.103 Cl
ENDBRANCH   2  18
TORSDOF 3
ENDMDL
MODEL 7
REMARK VINA RESULT:      -5.3      6.171      8.435
REMARK  Name = 
REMARK  3 active torsions:
REMARK  status: ('A' for Active; 'I' for Inactive)
REMARK    1  A    between atoms: C_6  and  N_7
REMARK    2  A    between atoms: N_7  and  C_12
REMARK    3  A    between atoms: C_8  and  C_10
REMARK                            x       y       z     vdW  Elec       q    Type
REMARK                         _______ _______ _______ _____ _____    ______ ____
ROOT
ATOM      1  N   UNL     1       6.962  -3.977  25.930  0.00  0.00    -0.254 N 
ATOM      2  C   UNL     1       8.218  -3.555  26.278  0.00  0.00    +0.246 C 
ATOM      3  O   UNL     1       9.162  -4.307  26.132  0.00  0.00    -0.273 OA
ENDROOT
BRANCH   1   7
ATOM      4  C   UNL     1       7.103  -5.958  21.423  0.00  0.00    +0.031 C 
ATOM      5  C   UNL     1       6.386  -5.794  22.742  0.00  0.00    -0.021 A 
ATOM      6  C   UNL     1       7.055  -5.001  23.765  0.00  0.00    +0.011 A 
ATOM      7  C   UNL     1       6.880  -3.764  24.545  0.00  0.00    +0.054 A 
ATOM      8  C   UNL     1       5.472  -3.137  24.210  0.00  0.00    +0.015 A 
ATOM      9  C   UNL     1       4.801  -3.801  23.032  0.00  0.00    +0.001 A 
ATOM     10  C   UNL     1       4.906  -5.143  22.391  0.00  0.00    -0.004 A 
ENDBRANCH   1   7
BRANCH   1  11
ATOM     11  C   UNL     1       6.600  -5.336  26.370  0.00  0.00    +0.127 C 
ATOM     12  C   UNL     1       7.298  -5.569  27.741  0.00  0.00    +0.180 C 
ATOM     13  S   UNL     1       5.919  -6.164  28.787  0.00  0.00    +0.012 S 
ATOM     14  O   UNL     1       6.023  -7.572  28.827  0.00  0.00    -0.169 OA
ATOM     15  O   UNL     1       5.905  -5.400  29.953  0.00  0.00    -0.169 OA
ATOM     16  C   UNL     1       4.456  -5.743  27.764  0.00  0.00    +0.120 C 
ATOM     17  C   UNL     1       5.115  -5.413  26.506  0.00  0.00    +0.015 C 
ENDBRANCH   1  11
BRANCH   2  18
ATOM     18  C   UNL     1       8.411  -2.064  26.402  0.00  0.00    +0.180 C 
ATOM     19 CL   UNL     1       6.902  -1.307  26.985  0.00  0.00    -0.103 Cl
ENDBRANCH   2  18
TORSDOF 3
ENDMDL
MODEL 8
REMARK VINA RESULT:      -5.2      3.385      5.512
REMARK  Name = 
REMARK  3 active torsions:
REMARK  status: ('A' for Active; 'I' for Inactive)
REMARK    1  A    between atoms: C_6  and  N_7
REMARK    2  A    between atoms: N_7  and  C_12
REMARK    3  A    between atoms: C_8  and  C_10
REMARK                            x       y       z     vdW  Elec       q    Type
REMARK                         _______ _______ _______ _____ _____    ______ ____
ROOT
ATOM      1  N   UNL     1       7.458  -0.516  22.017  0.00  0.00    -0.254 N 
ATOM      2  C   UNL     1       8.337  -0.069  21.067  0.00  0.00    +0.246 C 
ATOM      3  O   UNL     1       9.528  -0.063  21.310  0.00  0.00    -0.273 OA
ENDROOT
BRANCH   1   7
ATOM      4  C   UNL     1       8.343  -4.869  24.144  0.00  0.00    +0.031 C 
ATOM      5  C   UNL     1       7.494  -3.623  24.051  0.00  0.00    -0.021 A 
ATOM      6  C   UNL     1       7.920  -2.601  23.105  0.00  0.00    +0.011 A 
ATOM      7  C   UNL     1       7.463  -1.914  21.885  0.00  0.00    +0.054 A 
ATOM      8  C   UNL     1       6.002  -2.396  21.538  0.00  0.00    +0.015 A 
ATOM      9  C   UNL     1       5.565  -3.581  22.364  0.00  0.00    +0.001 A 
ATOM     10  C   UNL     1       5.960  -4.130  23.693  0.00  0.00    -0.004 A 
ENDBRANCH   1   7
BRANCH   1  11
ATOM     11  C   UNL     1       7.691  -0.022  23.385  0.00  0.00    +0.127 C 
ATOM     12  C   UNL     1       8.303   1.402  23.255  0.00  0.00    +0.180 C 
ATOM     13  S   UNL     1       7.242   2.390  24.371  0.00  0.00    +0.012 S 
ATOM     14  O   UNL     1       7.947   2.518  25.588  0.00  0.00    -0.169 OA
ATOM     15  O   UNL     1       6.797   3.506  23.664  0.00  0.00    -0.169 OA
ATOM     16  C   UNL     1       5.834   1.252  24.663  0.00  0.00    +0.120 C 
ATOM     17  C   UNL     1       6.384   0.022  24.106  0.00  0.00    +0.015 C 
ENDBRANCH   1  11
BRANCH   2  18
ATOM     18  C   UNL     1       7.824  -0.030  19.648  0.00  0.00    +0.180 C 
ATOM     19 CL   UNL     1       6.269   0.847  19.593  0.00  0.00    -0.103 Cl
ENDBRANCH   2  18
TORSDOF 3
ENDMDL
MODEL 9
REMARK VINA RESULT:      -5.2      3.246      5.772
REMARK  Name = 
REMARK  3 active torsions:
REMARK  status: ('A' for Active; 'I' for Inactive)
REMARK    1  A    between atoms: C_6  and  N_7
REMARK    2  A    between atoms: N_7  and  C_12
REMARK    3  A    between atoms: C_8  and  C_10
REMARK                            x       y       z     vdW  Elec       q    Type
REMARK                         _______ _______ _______ _____ _____    ______ ____
ROOT
ATOM      1  N   UNL     1       7.213  -1.660  24.262  0.00  0.00    -0.254 N 
ATOM      2  C   UNL     1       6.484  -0.920  25.155  0.00  0.00    +0.246 C 
ATOM      3  O   UNL     1       5.333  -0.629  24.892  0.00  0.00    -0.273 OA
ENDROOT
BRANCH   1   7
ATOM      4  C   UNL     1       4.729  -5.629  22.735  0.00  0.00    +0.031 C 
ATOM      5  C   UNL     1       5.890  -4.679  22.553  0.00  0.00    -0.021 A 
ATOM      6  C   UNL     1       5.973  -3.551  23.470  0.00  0.00    +0.011 A 
ATOM      7  C   UNL     1       6.849  -2.992  24.513  0.00  0.00    +0.054 A 
ATOM      8  C   UNL     1       8.159  -3.865  24.611  0.00  0.00    +0.015 A 
ATOM      9  C   UNL     1       8.066  -5.149  23.821  0.00  0.00    +0.001 A 
ATOM     10  C   UNL     1       7.263  -5.597  22.648  0.00  0.00    -0.004 A 
ENDBRANCH   1   7
BRANCH   1  11
ATOM     11  C   UNL     1       7.106  -1.244  22.852  0.00  0.00    +0.127 C 
ATOM     12  C   UNL     1       7.035   0.310  22.842  0.00  0.00    +0.180 C 
ATOM     13  S   UNL     1       8.323   0.754  21.621  0.00  0.00    +0.012 S 
ATOM     14  O   UNL     1       7.654   1.010  20.404  0.00  0.00    -0.169 OA
ATOM     15  O   UNL     1       9.160   1.704  22.207  0.00  0.00    -0.169 OA
ATOM     16  C   UNL     1       9.232  -0.827  21.435  0.00  0.00    +0.120 C 
ATOM     17  C   UNL     1       8.313  -1.728  22.119  0.00  0.00    +0.015 C 
ENDBRANCH   1  11
BRANCH   2  18
ATOM     18  C   UNL     1       6.999  -0.890  26.574  0.00  0.00    +0.180 C 
ATOM     19 CL   UNL     1       8.777  -0.720  26.566  0.00  0.00    -0.103 Cl
ENDBRANCH   2  18
TORSDOF 3
ENDMDL
