MODEL 1
REMARK VINA RESULT:      -6.3      0.000      0.000
REMARK  Name = 
REMARK  3 active torsions:
REMARK  status: ('A' for Active; 'I' for Inactive)
REMARK    1  A    between atoms: C_5  and  C_6
REMARK    2  A    between atoms: C_6  and  N_7
REMARK    3  A    between atoms: C_12  and  C_14
REMARK                            x       y       z     vdW  Elec       q    Type
REMARK                         _______ _______ _______ _____ _____    ______ ____
ROOT
ATOM      1  N   UNL     1       8.570  -2.305  23.650  0.00  0.00    -0.267 NA
ATOM      2  C   UNL     1       9.604  -3.159  24.157  0.00  0.00    +0.094 C 
ATOM      3  C   UNL     1       9.140  -3.885  25.403  0.00  0.00    +0.111 C 
ATOM      4  N   UNL     1       7.700  -3.800  25.529  0.00  0.00    -0.277 N 
ATOM      5  C   UNL     1       6.952  -4.918  25.440  0.00  0.00    +0.242 C 
ATOM      6  O   UNL     1       7.135  -5.860  26.177  0.00  0.00    -0.273 OA
ATOM      7  C   UNL     1       7.074  -2.535  25.863  0.00  0.00    +0.095 C 
ATOM      8  C   UNL     1       8.128  -1.434  25.862  0.00  0.00    +0.039 C 
ATOM      9  C   UNL     1       8.534  -1.108  24.435  0.00  0.00    +0.074 C 
ENDROOT
BRANCH   5  10
ATOM     10  C   UNL     1       6.022  -5.001  24.251  0.00  0.00    +0.180 C 
ATOM     11 CL   UNL     1       6.968  -5.318  22.772  0.00  0.00    -0.103 Cl
ENDBRANCH   5  10
BRANCH   1  12
ATOM     12  C   UNL     1       8.953  -1.943  22.295  0.00  0.00    +0.099 C 
BRANCH  12  17
ATOM     13  C   UNL     1       5.286   0.632  18.842  0.00  0.00    +0.031 C 
ATOM     14  C   UNL     1       6.464  -0.318  19.036  0.00  0.00    -0.022 A 
ATOM     15  C   UNL     1       7.654   0.324  19.617  0.00  0.00    -0.005 A 
ATOM     16  C   UNL     1       8.486   0.202  20.869  0.00  0.00    -0.003 A 
ATOM     17  C   UNL     1       7.922  -0.899  21.808  0.00  0.00    -0.006 A 
ATOM     18  C   UNL     1       6.693  -1.514  21.276  0.00  0.00    -0.003 A 
ATOM     19  C   UNL     1       5.911  -1.529  20.008  0.00  0.00    -0.005 A 
ENDBRANCH  12  17
ENDBRANCH   1  12
TORSDOF 3
ENDMDL
MODEL 2
REMARK VINA RESULT:      -6.2      2.257      3.683
REMARK  Name = 
REMARK  3 active torsions:
REMARK  status: ('A' for Active; 'I' for Inactive)
REMARK    1  A    between atoms: C_5  and  C_6
REMARK    2  A    between atoms: C_6  and  N_7
REMARK    3  A    between atoms: C_12  and  C_14
REMARK                            x       y       z     vdW  Elec       q    Type
REMARK                         _______ _______ _______ _____ _____    ______ ____
ROOT
ATOM      1  N   UNL     1       6.500  -3.416  22.252  0.00  0.00    -0.267 NA
ATOM      2  C   UNL     1       5.467  -3.536  23.239  0.00  0.00    +0.094 C 
ATOM      3  C   UNL     1       5.710  -4.738  24.129  0.00  0.00    +0.111 C 
ATOM      4  N   UNL     1       7.070  -5.210  23.978  0.00  0.00    -0.277 N 
ATOM      5  C   UNL     1       7.925  -5.138  25.018  0.00  0.00    +0.242 C 
ATOM      6  O   UNL     1       7.675  -5.667  26.078  0.00  0.00    -0.273 OA
ATOM      7  C   UNL     1       7.479  -5.862  22.749  0.00  0.00    +0.095 C 
ATOM      8  C   UNL     1       6.350  -5.772  21.730  0.00  0.00    +0.039 C 
ATOM      9  C   UNL     1       6.242  -4.353  21.200  0.00  0.00    +0.074 C 
ENDROOT
BRANCH   5  10
ATOM     10  C   UNL     1       9.100  -4.203  24.848  0.00  0.00    +0.180 C 
ATOM     11 CL   UNL     1       8.696  -2.604  25.529  0.00  0.00    -0.103 Cl
ENDBRANCH   5  10
BRANCH   1  12
ATOM     12  C   UNL     1       6.395  -2.077  21.697  0.00  0.00    +0.099 C 
BRANCH  12  17
ATOM     13  C   UNL     1      10.195   2.044  22.462  0.00  0.00    +0.031 C 
ATOM     14  C   UNL     1       9.373   1.173  21.517  0.00  0.00    -0.022 A 
ATOM     15  C   UNL     1       9.668  -0.265  21.628  0.00  0.00    -0.005 A 
ATOM     16  C   UNL     1       8.935  -1.526  22.011  0.00  0.00    -0.003 A 
ATOM     17  C   UNL     1       7.466  -1.218  22.409  0.00  0.00    -0.006 A 
ATOM     18  C   UNL     1       7.164   0.224  22.366  0.00  0.00    -0.003 A 
ATOM     19  C   UNL     1       7.794   1.483  21.878  0.00  0.00    -0.005 A 
ENDBRANCH  12  17
ENDBRANCH   1  12
TORSDOF 3
ENDMDL
MODEL 3
REMARK VINA RESULT:      -6.0      3.381      5.612
REMARK  Name = 
REMARK  3 active torsions:
REMARK  status: ('A' for Active; 'I' for Inactive)
REMARK    1  A    between atoms: C_5  and  C_6
REMARK    2  A    between atoms: C_6  and  N_7
REMARK    3  A    between atoms: C_12  and  C_14
REMARK                            x       y       z     vdW  Elec       q    Type
REMARK                         _______ _______ _______ _____ _____    ______ ____
ROOT
ATOM      1  N   UNL     1       9.105  -0.253  24.455  0.00  0.00    -0.267 NA
ATOM      2  C   UNL     1       8.242   0.714  25.066  0.00  0.00    +0.094 C 
ATOM      3  C   UNL     1       8.024   1.899  24.147  0.00  0.00    +0.111 C 
ATOM      4  N   UNL     1       8.437   1.573  22.799  0.00  0.00    -0.277 N 
ATOM      5  C   UNL     1       7.522   1.521  21.810  0.00  0.00    +0.242 C 
ATOM      6  O   UNL     1       6.819   2.472  21.550  0.00  0.00    -0.273 OA
ATOM      7  C   UNL     1       9.846   1.414  22.490  0.00  0.00    +0.095 C 
ATOM      8  C   UNL     1      10.655   1.476  23.780  0.00  0.00    +0.039 C 
ATOM      9  C   UNL     1      10.460   0.197  24.575  0.00  0.00    +0.074 C 
ENDROOT
BRANCH   5  10
ATOM     10  C   UNL     1       7.291   0.162  21.190  0.00  0.00    +0.180 C 
ATOM     11 CL   UNL     1       7.746   0.206  19.466  0.00  0.00    -0.103 Cl
ENDBRANCH   5  10
BRANCH   1  12
ATOM     12  C   UNL     1       8.969  -1.480  25.222  0.00  0.00    +0.099 C 
BRANCH  12  17
ATOM     13  C   UNL     1       7.374  -5.864  22.022  0.00  0.00    +0.031 C 
ATOM     14  C   UNL     1       7.125  -4.950  23.217  0.00  0.00    -0.022 A 
ATOM     15  C   UNL     1       8.185  -5.004  24.237  0.00  0.00    -0.005 A 
ATOM     16  C   UNL     1       9.193  -4.062  24.847  0.00  0.00    -0.003 A 
ATOM     17  C   UNL     1       9.087  -2.647  24.214  0.00  0.00    -0.006 A 
ATOM     18  C   UNL     1       8.074  -2.585  23.146  0.00  0.00    -0.003 A 
ATOM     19  C   UNL     1       6.975  -3.429  22.598  0.00  0.00    -0.005 A 
ENDBRANCH  12  17
ENDBRANCH   1  12
TORSDOF 3
ENDMDL
MODEL 4
REMARK VINA RESULT:      -5.9      3.339      6.263
REMARK  Name = 
REMARK  3 active torsions:
REMARK  status: ('A' for Active; 'I' for Inactive)
REMARK    1  A    between atoms: C_5  and  C_6
REMARK    2  A    between atoms: C_6  and  N_7
REMARK    3  A    between atoms: C_12  and  C_14
REMARK                            x       y       z     vdW  Elec       q    Type
REMARK                         _______ _______ _______ _____ _____    ______ ____
ROOT
ATOM      1  N   UNL     1       8.444  -0.699  22.073  0.00  0.00    -0.267 NA
ATOM      2  C   UNL     1       9.689  -0.167  21.603  0.00  0.00    +0.094 C 
ATOM      3  C   UNL     1       9.720   1.341  21.750  0.00  0.00    +0.111 C 
ATOM      4  N   UNL     1       8.663   1.783  22.633  0.00  0.00    -0.277 N 
ATOM      5  C   UNL     1       8.971   2.357  23.813  0.00  0.00    +0.242 C 
ATOM      6  O   UNL     1       9.670   3.344  23.872  0.00  0.00    -0.273 OA
ATOM      7  C   UNL     1       7.280   1.713  22.202  0.00  0.00    +0.095 C 
ATOM      8  C   UNL     1       7.205   0.989  20.863  0.00  0.00    +0.039 C 
ATOM      9  C   UNL     1       7.448  -0.497  21.064  0.00  0.00    +0.074 C 
ENDROOT
BRANCH   5  10
ATOM     10  C   UNL     1       8.566   1.590  25.051  0.00  0.00    +0.180 C 
ATOM     11 CL   UNL     1       9.731   0.271  25.345  0.00  0.00    -0.103 Cl
ENDBRANCH   5  10
BRANCH   1  12
ATOM     12  C   UNL     1       8.635  -2.130  22.236  0.00  0.00    +0.099 C 
BRANCH  12  17
ATOM     13  C   UNL     1       7.773  -5.243  26.881  0.00  0.00    +0.031 C 
ATOM     14  C   UNL     1       7.940  -5.159  25.367  0.00  0.00    -0.022 A 
ATOM     15  C   UNL     1       6.905  -4.351  24.700  0.00  0.00    -0.005 A 
ATOM     16  C   UNL     1       6.835  -3.090  23.878  0.00  0.00    -0.003 A 
ATOM     17  C   UNL     1       8.245  -2.465  23.694  0.00  0.00    -0.006 A 
ATOM     18  C   UNL     1       9.291  -3.222  24.406  0.00  0.00    -0.003 A 
ATOM     19  C   UNL     1       9.440  -4.526  25.112  0.00  0.00    -0.005 A 
ENDBRANCH  12  17
ENDBRANCH   1  12
TORSDOF 3
ENDMDL
MODEL 5
REMARK VINA RESULT:      -5.9      1.332      2.372
REMARK  Name = 
REMARK  3 active torsions:
REMARK  status: ('A' for Active; 'I' for Inactive)
REMARK    1  A    between atoms: C_5  and  C_6
REMARK    2  A    between atoms: C_6  and  N_7
REMARK    3  A    between atoms: C_12  and  C_14
REMARK                            x       y       z     vdW  Elec       q    Type
REMARK                         _______ _______ _______ _____ _____    ______ ____
ROOT
ATOM      1  N   UNL     1       7.983  -3.269  24.766  0.00  0.00    -0.267 NA
ATOM      2  C   UNL     1       8.409  -4.467  25.429  0.00  0.00    +0.094 C 
ATOM      3  C   UNL     1       7.217  -5.308  25.839  0.00  0.00    +0.111 C 
ATOM      4  N   UNL     1       6.026  -4.865  25.148  0.00  0.00    -0.277 N 
ATOM      5  C   UNL     1       5.419  -5.682  24.264  0.00  0.00    +0.242 C 
ATOM      6  O   UNL     1       5.033  -6.784  24.585  0.00  0.00    -0.273 OA
ATOM      7  C   UNL     1       5.421  -3.590  25.487  0.00  0.00    +0.095 C 
ATOM      8  C   UNL     1       6.321  -2.851  26.471  0.00  0.00    +0.039 C 
ATOM      9  C   UNL     1       7.551  -2.326  25.752  0.00  0.00    +0.074 C 
ENDROOT
BRANCH   5  10
ATOM     10  C   UNL     1       5.432  -5.228  22.822  0.00  0.00    +0.180 C 
ATOM     11 CL   UNL     1       6.860  -5.905  21.995  0.00  0.00    -0.103 Cl
ENDBRANCH   5  10
BRANCH   1  12
ATOM     12  C   UNL     1       9.153  -2.721  24.100  0.00  0.00    +0.099 C 
BRANCH  12  17
ATOM     13  C   UNL     1       7.658   0.183  19.481  0.00  0.00    +0.031 C 
ATOM     14  C   UNL     1       7.781   0.100  20.999  0.00  0.00    -0.022 A 
ATOM     15  C   UNL     1       6.981  -0.979  21.601  0.00  0.00    -0.005 A 
ATOM     16  C   UNL     1       7.226  -2.237  22.395  0.00  0.00    -0.003 A 
ATOM     17  C   UNL     1       8.745  -2.459  22.632  0.00  0.00    -0.006 A 
ATOM     18  C   UNL     1       9.571  -1.424  21.984  0.00  0.00    -0.003 A 
ATOM     19  C   UNL     1       9.387  -0.108  21.311  0.00  0.00    -0.005 A 
ENDBRANCH  12  17
ENDBRANCH   1  12
TORSDOF 3
ENDMDL
MODEL 6
REMARK VINA RESULT:      -5.7      2.750      3.854
REMARK  Name = 
REMARK  3 active torsions:
REMARK  status: ('A' for Active; 'I' for Inactive)
REMARK    1  A    between atoms: C_5  and  C_6
REMARK    2  A    between atoms: C_6  and  N_7
REMARK    3  A    between atoms: C_12  and  C_14
REMARK                            x       y       z     vdW  Elec       q    Type
REMARK                         _______ _______ _______ _____ _____    ______ ____
ROOT
ATOM      1  N   UNL     1       7.808  -3.303  25.441  0.00  0.00    -0.267 NA
ATOM      2  C   UNL     1       8.767  -3.968  24.607  0.00  0.00    +0.094 C 
ATOM      3  C   UNL     1       8.137  -5.151  23.900  0.00  0.00    +0.111 C 
ATOM      4  N   UNL     1       6.694  -5.071  23.972  0.00  0.00    -0.277 N 
ATOM      5  C   UNL     1       5.975  -4.900  22.846  0.00  0.00    +0.242 C 
ATOM      6  O   UNL     1       6.059  -5.675  21.919  0.00  0.00    -0.273 OA
ATOM      7  C   UNL     1       6.018  -5.289  25.237  0.00  0.00    +0.095 C 
ATOM      8  C   UNL     1       7.053  -5.414  26.348  0.00  0.00    +0.039 C 
ATOM      9  C   UNL     1       7.654  -4.052  26.652  0.00  0.00    +0.074 C 
ENDROOT
BRANCH   5  10
ATOM     10  C   UNL     1       5.221  -3.595  22.731  0.00  0.00    +0.180 C 
ATOM     11 CL   UNL     1       5.902  -2.627  21.396  0.00  0.00    -0.103 Cl
ENDBRANCH   5  10
BRANCH   1  12
ATOM     12  C   UNL     1       8.375  -2.009  25.781  0.00  0.00    +0.099 C 
BRANCH  12  17
ATOM     13  C   UNL     1      10.120   2.011  22.203  0.00  0.00    +0.031 C 
ATOM     14  C   UNL     1       9.455   1.621  23.519  0.00  0.00    -0.022 A 
ATOM     15  C   UNL     1       8.223   0.832  23.351  0.00  0.00    -0.005 A 
ATOM     16  C   UNL     1       7.726  -0.546  23.709  0.00  0.00    -0.003 A 
ATOM     17  C   UNL     1       8.822  -1.358  24.451  0.00  0.00    -0.006 A 
ATOM     18  C   UNL     1      10.086  -0.611  24.577  0.00  0.00    -0.003 A 
ATOM     19  C   UNL     1      10.589   0.775  24.365  0.00  0.00    -0.005 A 
ENDBRANCH  12  17
ENDBRANCH   1  12
TORSDOF 3
ENDMDL
MODEL 7
REMARK VINA RESULT:      -5.7      3.335      5.993
REMARK  Name = 
REMARK  3 active torsions:
REMARK  status: ('A' for Active; 'I' for Inactive)
REMARK    1  A    between atoms: C_5  and  C_6
REMARK    2  A    between atoms: C_6  and  N_7
REMARK    3  A    between atoms: C_12  and  C_14
REMARK                            x       y       z     vdW  Elec       q    Type
REMARK                         _______ _______ _______ _____ _____    ______ ____
ROOT
ATOM      1  N   UNL     1       8.519  -0.619  22.042  0.00  0.00    -0.267 NA
ATOM      2  C   UNL     1       9.708   0.054  21.610  0.00  0.00    +0.094 C 
ATOM      3  C   UNL     1       9.624   1.538  21.905  0.00  0.00    +0.111 C 
ATOM      4  N   UNL     1       8.555   1.805  22.843  0.00  0.00    -0.277 N 
ATOM      5  C   UNL     1       8.844   2.284  24.069  0.00  0.00    +0.242 C 
ATOM      6  O   UNL     1       9.464   3.314  24.215  0.00  0.00    -0.273 OA
ATOM      7  C   UNL     1       7.173   1.667  22.426  0.00  0.00    +0.095 C 
ATOM      8  C   UNL     1       7.125   1.074  21.023  0.00  0.00    +0.039 C 
ATOM      9  C   UNL     1       7.488  -0.400  21.072  0.00  0.00    +0.074 C 
ENDROOT
BRANCH   5  10
ATOM     10  C   UNL     1       8.527   1.369  25.230  0.00  0.00    +0.180 C 
ATOM     11 CL   UNL     1       9.762   0.086  25.334  0.00  0.00    -0.103 Cl
ENDBRANCH   5  10
BRANCH   1  12
ATOM     12  C   UNL     1       8.825  -2.040  22.059  0.00  0.00    +0.099 C 
BRANCH  12  17
ATOM     13  C   UNL     1       6.147  -5.374  25.763  0.00  0.00    +0.031 C 
ATOM     14  C   UNL     1       7.421  -5.003  25.011  0.00  0.00    -0.022 A 
ATOM     15  C   UNL     1       7.301  -5.116  23.548  0.00  0.00    -0.005 A 
ATOM     16  C   UNL     1       7.378  -4.203  22.351  0.00  0.00    -0.003 A 
ATOM     17  C   UNL     1       7.650  -2.737  22.784  0.00  0.00    -0.006 A 
ATOM     18  C   UNL     1       7.712  -2.587  24.249  0.00  0.00    -0.003 A 
ATOM     19  C   UNL     1       7.774  -3.455  25.458  0.00  0.00    -0.005 A 
ENDBRANCH  12  17
ENDBRANCH   1  12
TORSDOF 3
ENDMDL
MODEL 8
REMARK VINA RESULT:      -5.7      2.857      3.877
REMARK  Name = 
REMARK  3 active torsions:
REMARK  status: ('A' for Active; 'I' for Inactive)
REMARK    1  A    between atoms: C_5  and  C_6
REMARK    2  A    between atoms: C_6  and  N_7
REMARK    3  A    between atoms: C_12  and  C_14
REMARK                            x       y       z     vdW  Elec       q    Type
REMARK                         _______ _______ _______ _____ _____    ______ ____
ROOT
ATOM      1  N   UNL     1       8.838  -3.288  24.385  0.00  0.00    -0.267 NA
ATOM      2  C   UNL     1       7.985  -3.877  23.394  0.00  0.00    +0.094 C 
ATOM      3  C   UNL     1       6.758  -4.491  24.035  0.00  0.00    +0.111 C 
ATOM      4  N   UNL     1       6.605  -4.011  25.392  0.00  0.00    -0.277 N 
ATOM      5  C   UNL     1       5.541  -3.250  25.718  0.00  0.00    +0.242 C 
ATOM      6  O   UNL     1       4.409  -3.640  25.544  0.00  0.00    -0.273 OA
ATOM      7  C   UNL     1       7.531  -4.440  26.423  0.00  0.00    +0.095 C 
ATOM      8  C   UNL     1       8.654  -5.250  25.786  0.00  0.00    +0.039 C 
ATOM      9  C   UNL     1       9.589  -4.327  25.022  0.00  0.00    +0.074 C 
ENDROOT
BRANCH   5  10
ATOM     10  C   UNL     1       5.843  -1.824  26.119  0.00  0.00    +0.180 C 
ATOM     11 CL   UNL     1       5.794  -0.774  24.678  0.00  0.00    -0.103 Cl
ENDBRANCH   5  10
BRANCH   1  12
ATOM     12  C   UNL     1       9.772  -2.428  23.676  0.00  0.00    +0.099 C 
BRANCH  12  17
ATOM     13  C   UNL     1       9.707   3.218  23.334  0.00  0.00    +0.031 C 
ATOM     14  C   UNL     1      10.489   1.908  23.307  0.00  0.00    -0.022 A 
ATOM     15  C   UNL     1      10.417   1.148  24.565  0.00  0.00    -0.005 A 
ATOM     16  C   UNL     1       9.902  -0.191  25.030  0.00  0.00    -0.003 A 
ATOM     17  C   UNL     1       9.262  -0.979  23.855  0.00  0.00    -0.006 A 
ATOM     18  C   UNL     1       9.266  -0.213  22.596  0.00  0.00    -0.003 A 
ATOM     19  C   UNL     1       9.866   1.038  22.052  0.00  0.00    -0.005 A 
ENDBRANCH  12  17
ENDBRANCH   1  12
TORSDOF 3
ENDMDL
MODEL 9
REMARK VINA RESULT:      -5.6      3.306      5.640
REMARK  Name = 
REMARK  3 active torsions:
REMARK  status: ('A' for Active; 'I' for Inactive)
REMARK    1  A    between atoms: C_5  and  C_6
REMARK    2  A    between atoms: C_6  and  N_7
REMARK    3  A    between atoms: C_12  and  C_14
REMARK                            x       y       z     vdW  Elec       q    Type
REMARK                         _______ _______ _______ _____ _____    ______ ____
ROOT
ATOM      1  N   UNL     1       9.472  -0.407  23.757  0.00  0.00    -0.267 NA
ATOM      2  C   UNL     1       8.330   0.143  24.426  0.00  0.00    +0.094 C 
ATOM      3  C   UNL     1       7.888   1.434  23.766  0.00  0.00    +0.111 C 
ATOM      4  N   UNL     1       8.496   1.564  22.459  0.00  0.00    -0.277 N 
ATOM      5  C   UNL     1       7.722   1.547  21.355  0.00  0.00    +0.242 C 
ATOM      6  O   UNL     1       6.818   2.339  21.206  0.00  0.00    -0.273 OA
ATOM      7  C   UNL     1       9.918   1.827  22.342  0.00  0.00    +0.095 C 
ATOM      8  C   UNL     1      10.559   1.752  23.723  0.00  0.00    +0.039 C 
ATOM      9  C   UNL     1      10.640   0.306  24.179  0.00  0.00    +0.074 C 
ENDROOT
BRANCH   5  10
ATOM     10  C   UNL     1       7.919   0.373  20.425  0.00  0.00    +0.180 C 
ATOM     11 CL   UNL     1       6.354  -0.090  19.705  0.00  0.00    -0.103 Cl
ENDBRANCH   5  10
BRANCH   1  12
ATOM     12  C   UNL     1       9.598  -1.783  24.207  0.00  0.00    +0.099 C 
BRANCH  12  17
ATOM     13  C   UNL     1       5.833  -5.895  23.243  0.00  0.00    +0.031 C 
ATOM     14  C   UNL     1       7.272  -5.391  23.189  0.00  0.00    -0.022 A 
ATOM     15  C   UNL     1       7.455  -4.209  22.330  0.00  0.00    -0.005 A 
ATOM     16  C   UNL     1       7.888  -2.774  22.488  0.00  0.00    -0.003 A 
ATOM     17  C   UNL     1       8.224  -2.453  23.970  0.00  0.00    -0.006 A 
ATOM     18  C   UNL     1       7.988  -3.604  24.860  0.00  0.00    -0.003 A 
ATOM     19  C   UNL     1       7.693  -5.060  24.748  0.00  0.00    -0.005 A 
ENDBRANCH  12  17
ENDBRANCH   1  12
TORSDOF 3
ENDMDL
