MODEL 1
REMARK VINA RESULT:      -6.4      0.000      0.000
REMARK  Name = 
REMARK  4 active torsions:
REMARK  status: ('A' for Active; 'I' for Inactive)
REMARK    1  A    between atoms: C_2  and  C_3
REMARK    2  A    between atoms: N_8  and  S_9
REMARK    3  A    between atoms: S_9  and  C_12
REMARK    4  A    between atoms: C_12  and  C_13
REMARK                            x       y       z     vdW  Elec       q    Type
REMARK                         _______ _______ _______ _____ _____    ______ ____
ROOT
ATOM      1  O   UNL     1       9.858  -3.432  23.885  0.00  0.00    -0.273 OA
ATOM      2  C   UNL     1       9.037  -2.623  24.262  0.00  0.00    +0.242 C 
ATOM      3  N   UNL     1       9.396  -1.375  24.598  0.00  0.00    -0.276 N 
ATOM      4  C   UNL     1       8.546  -0.579  25.474  0.00  0.00    +0.113 C 
ATOM      5  C   UNL     1       8.440   0.821  24.898  0.00  0.00    +0.117 C 
ATOM      6  N   UNL     1       9.673   1.436  24.697  0.00  0.00    -0.156 NA
ATOM      7  C   UNL     1      10.783   0.605  24.594  0.00  0.00    +0.117 C 
ATOM      8  C   UNL     1      10.482  -0.707  23.893  0.00  0.00    +0.113 C 
ENDROOT
BRANCH   6   9
ATOM      9  S   UNL     1       9.634   2.585  23.542  0.00  0.00    +0.048 S 
ATOM     10  O   UNL     1       8.696   3.620  23.989  0.00  0.00    -0.157 OA
ATOM     11  O   UNL     1      11.014   3.129  23.464  0.00  0.00    -0.157 OA
BRANCH   9  12
ATOM     12  C   UNL     1       9.217   2.078  21.978  0.00  0.00    +0.195 C 
BRANCH  12  13
ATOM     13  C   UNL     1       8.166   1.330  21.535  0.00  0.00    +0.003 A 
ATOM     14  C   UNL     1       8.216   0.263  20.519  0.00  0.00    -0.003 A 
ATOM     15  C   UNL     1       7.602   0.034  19.185  0.00  0.00    -0.000 A 
ATOM     16  C   UNL     1       6.115   0.610  19.230  0.00  0.00    -0.000 A 
ATOM     17  C   UNL     1       5.983   1.652  20.266  0.00  0.00    -0.000 A 
ATOM     18  C   UNL     1       6.660   1.989  21.575  0.00  0.00    -0.003 A 
ENDBRANCH  12  13
ENDBRANCH   9  12
ENDBRANCH   6   9
BRANCH   2  19
ATOM     19  C   UNL     1       7.576  -2.964  24.421  0.00  0.00    +0.180 C 
ATOM     20 CL   UNL     1       6.625  -2.365  23.045  0.00  0.00    -0.103 Cl
ENDBRANCH   2  19
TORSDOF 4
ENDMDL
MODEL 2
REMARK VINA RESULT:      -6.3      3.593      5.193
REMARK  Name = 
REMARK  4 active torsions:
REMARK  status: ('A' for Active; 'I' for Inactive)
REMARK    1  A    between atoms: C_2  and  C_3
REMARK    2  A    between atoms: N_8  and  S_9
REMARK    3  A    between atoms: S_9  and  C_12
REMARK    4  A    between atoms: C_12  and  C_13
REMARK                            x       y       z     vdW  Elec       q    Type
REMARK                         _______ _______ _______ _____ _____    ______ ____
ROOT
ATOM      1  O   UNL     1       6.962  -6.319  28.548  0.00  0.00    -0.273 OA
ATOM      2  C   UNL     1       6.337  -5.649  27.753  0.00  0.00    +0.242 C 
ATOM      3  N   UNL     1       6.895  -4.591  27.147  0.00  0.00    -0.276 N 
ATOM      4  C   UNL     1       6.055  -3.537  26.591  0.00  0.00    +0.113 C 
ATOM      5  C   UNL     1       6.588  -3.172  25.218  0.00  0.00    +0.117 C 
ATOM      6  N   UNL     1       7.929  -2.798  25.221  0.00  0.00    -0.156 NA
ATOM      7  C   UNL     1       8.701  -3.225  26.296  0.00  0.00    +0.117 C 
ATOM      8  C   UNL     1       8.311  -4.603  26.799  0.00  0.00    +0.113 C 
ENDROOT
BRANCH   6   9
ATOM      9  S   UNL     1       8.662  -3.032  23.784  0.00  0.00    +0.048 S 
ATOM     10  O   UNL     1      10.024  -3.498  24.062  0.00  0.00    -0.157 OA
ATOM     11  O   UNL     1       7.877  -4.090  23.098  0.00  0.00    -0.157 OA
BRANCH   9  12
ATOM     12  C   UNL     1       8.718  -1.702  22.733  0.00  0.00    +0.195 C 
BRANCH  12  13
ATOM     13  C   UNL     1       9.623  -0.688  22.629  0.00  0.00    +0.003 A 
ATOM     14  C   UNL     1      10.419  -0.107  23.726  0.00  0.00    -0.003 A 
ATOM     15  C   UNL     1      10.542   1.234  24.356  0.00  0.00    -0.000 A 
ATOM     16  C   UNL     1      10.414   2.326  23.201  0.00  0.00    -0.000 A 
ATOM     17  C   UNL     1       9.669   1.789  22.045  0.00  0.00    -0.000 A 
ATOM     18  C   UNL     1       9.421   0.428  21.438  0.00  0.00    -0.003 A 
ENDBRANCH  12  13
ENDBRANCH   9  12
ENDBRANCH   6   9
BRANCH   2  19
ATOM     19  C   UNL     1       4.892  -5.923  27.421  0.00  0.00    +0.180 C 
ATOM     20 CL   UNL     1       4.743  -6.798  25.881  0.00  0.00    -0.103 Cl
ENDBRANCH   2  19
TORSDOF 4
ENDMDL
MODEL 3
REMARK VINA RESULT:      -6.2      3.447      4.996
REMARK  Name = 
REMARK  4 active torsions:
REMARK  status: ('A' for Active; 'I' for Inactive)
REMARK    1  A    between atoms: C_2  and  C_3
REMARK    2  A    between atoms: N_8  and  S_9
REMARK    3  A    between atoms: S_9  and  C_12
REMARK    4  A    between atoms: C_12  and  C_13
REMARK                            x       y       z     vdW  Elec       q    Type
REMARK                         _______ _______ _______ _____ _____    ______ ____
ROOT
ATOM      1  O   UNL     1       5.454  -6.179  25.629  0.00  0.00    -0.273 OA
ATOM      2  C   UNL     1       6.459  -5.499  25.620  0.00  0.00    +0.242 C 
ATOM      3  N   UNL     1       6.946  -4.996  24.477  0.00  0.00    -0.276 N 
ATOM      4  C   UNL     1       8.349  -4.608  24.386  0.00  0.00    +0.113 C 
ATOM      5  C   UNL     1       8.431  -3.263  23.688  0.00  0.00    +0.117 C 
ATOM      6  N   UNL     1       7.822  -3.247  22.436  0.00  0.00    -0.156 NA
ATOM      7  C   UNL     1       6.867  -4.227  22.186  0.00  0.00    +0.117 C 
ATOM      8  C   UNL     1       6.044  -4.583  23.410  0.00  0.00    +0.113 C 
ENDROOT
BRANCH   6   9
ATOM      9  S   UNL     1       7.335  -1.759  21.981  0.00  0.00    +0.048 S 
ATOM     10  O   UNL     1       6.182  -1.932  21.092  0.00  0.00    -0.157 OA
ATOM     11  O   UNL     1       6.933  -1.066  23.231  0.00  0.00    -0.157 OA
BRANCH   9  12
ATOM     12  C   UNL     1       8.494  -0.778  21.225  0.00  0.00    +0.195 C 
BRANCH  12  13
ATOM     13  C   UNL     1       9.462   0.024  21.754  0.00  0.00    +0.003 A 
ATOM     14  C   UNL     1      10.365  -0.312  22.871  0.00  0.00    -0.003 A 
ATOM     15  C   UNL     1      10.625   0.233  24.228  0.00  0.00    -0.000 A 
ATOM     16  C   UNL     1      10.505   1.821  24.145  0.00  0.00    -0.000 A 
ATOM     17  C   UNL     1       9.652   2.228  23.011  0.00  0.00    -0.000 A 
ATOM     18  C   UNL     1       9.268   1.654  21.668  0.00  0.00    -0.003 A 
ENDBRANCH  12  13
ENDBRANCH   9  12
ENDBRANCH   6   9
BRANCH   2  19
ATOM     19  C   UNL     1       7.250  -5.207  26.870  0.00  0.00    +0.180 C 
ATOM     20 CL   UNL     1       6.377  -5.745  28.321  0.00  0.00    -0.103 Cl
ENDBRANCH   2  19
TORSDOF 4
ENDMDL
MODEL 4
REMARK VINA RESULT:      -6.2      3.079      6.146
REMARK  Name = 
REMARK  4 active torsions:
REMARK  status: ('A' for Active; 'I' for Inactive)
REMARK    1  A    between atoms: C_2  and  C_3
REMARK    2  A    between atoms: N_8  and  S_9
REMARK    3  A    between atoms: S_9  and  C_12
REMARK    4  A    between atoms: C_12  and  C_13
REMARK                            x       y       z     vdW  Elec       q    Type
REMARK                         _______ _______ _______ _____ _____    ______ ____
ROOT
ATOM      1  O   UNL     1       6.326   1.610  20.796  0.00  0.00    -0.273 OA
ATOM      2  C   UNL     1       7.180   0.779  20.567  0.00  0.00    +0.242 C 
ATOM      3  N   UNL     1       8.000   0.343  21.535  0.00  0.00    -0.276 N 
ATOM      4  C   UNL     1       9.283  -0.259  21.192  0.00  0.00    +0.113 C 
ATOM      5  C   UNL     1       9.470  -1.506  22.037  0.00  0.00    +0.117 C 
ATOM      6  N   UNL     1       9.373  -1.271  23.406  0.00  0.00    -0.156 NA
ATOM      7  C   UNL     1       8.695  -0.124  23.803  0.00  0.00    +0.117 C 
ATOM      8  C   UNL     1       7.519   0.214  22.904  0.00  0.00    +0.113 C 
ENDROOT
BRANCH   6   9
ATOM      9  S   UNL     1       8.930  -2.593  24.251  0.00  0.00    +0.048 S 
ATOM     10  O   UNL     1      10.046  -3.541  24.191  0.00  0.00    -0.157 OA
ATOM     11  O   UNL     1       8.712  -2.128  25.645  0.00  0.00    -0.157 OA
BRANCH   9  12
ATOM     12  C   UNL     1       7.500  -3.364  23.762  0.00  0.00    +0.195 C 
BRANCH  12  13
ATOM     13  C   UNL     1       7.061  -4.638  23.969  0.00  0.00    +0.003 A 
ATOM     14  C   UNL     1       6.186  -5.420  23.076  0.00  0.00    -0.003 A 
ATOM     15  C   UNL     1       4.841  -6.043  23.182  0.00  0.00    -0.000 A 
ATOM     16  C   UNL     1       4.689  -6.623  24.660  0.00  0.00    -0.000 A 
ATOM     17  C   UNL     1       5.580  -5.914  25.600  0.00  0.00    -0.000 A 
ATOM     18  C   UNL     1       6.892  -5.170  25.516  0.00  0.00    -0.003 A 
ENDBRANCH  12  13
ENDBRANCH   9  12
ENDBRANCH   6   9
BRANCH   2  19
ATOM     19  C   UNL     1       7.411   0.213  19.189  0.00  0.00    +0.180 C 
ATOM     20 CL   UNL     1       5.958   0.372  18.179  0.00  0.00    -0.103 Cl
ENDBRANCH   2  19
TORSDOF 4
ENDMDL
MODEL 5
REMARK VINA RESULT:      -6.2      1.959      2.528
REMARK  Name = 
REMARK  4 active torsions:
REMARK  status: ('A' for Active; 'I' for Inactive)
REMARK    1  A    between atoms: C_2  and  C_3
REMARK    2  A    between atoms: N_8  and  S_9
REMARK    3  A    between atoms: S_9  and  C_12
REMARK    4  A    between atoms: C_12  and  C_13
REMARK                            x       y       z     vdW  Elec       q    Type
REMARK                         _______ _______ _______ _____ _____    ______ ____
ROOT
ATOM      1  O   UNL     1       7.362  -4.939  23.040  0.00  0.00    -0.273 OA
ATOM      2  C   UNL     1       7.581  -4.130  23.917  0.00  0.00    +0.242 C 
ATOM      3  N   UNL     1       8.442  -3.119  23.730  0.00  0.00    -0.276 N 
ATOM      4  C   UNL     1       9.056  -2.458  24.874  0.00  0.00    +0.113 C 
ATOM      5  C   UNL     1       9.006  -0.958  24.647  0.00  0.00    +0.117 C 
ATOM      6  N   UNL     1       9.599  -0.554  23.454  0.00  0.00    -0.156 NA
ATOM      7  C   UNL     1       9.729  -1.515  22.457  0.00  0.00    +0.117 C 
ATOM      8  C   UNL     1       8.570  -2.495  22.419  0.00  0.00    +0.113 C 
ENDROOT
BRANCH   6   9
ATOM      9  S   UNL     1       9.014   0.861  22.896  0.00  0.00    +0.048 S 
ATOM     10  O   UNL     1       8.870   1.757  24.047  0.00  0.00    -0.157 OA
ATOM     11  O   UNL     1      10.039   1.379  21.954  0.00  0.00    -0.157 OA
BRANCH   9  12
ATOM     12  C   UNL     1       7.550   0.794  22.040  0.00  0.00    +0.195 C 
BRANCH  12  13
ATOM     13  C   UNL     1       7.273   1.049  20.730  0.00  0.00    +0.003 A 
ATOM     14  C   UNL     1       6.090   1.757  20.206  0.00  0.00    -0.003 A 
ATOM     15  C   UNL     1       4.958   1.415  19.306  0.00  0.00    -0.000 A 
ATOM     16  C   UNL     1       5.523   0.469  18.153  0.00  0.00    -0.000 A 
ATOM     17  C   UNL     1       6.743  -0.234  18.596  0.00  0.00    -0.000 A 
ATOM     18  C   UNL     1       7.855   0.020  19.587  0.00  0.00    -0.003 A 
ENDBRANCH  12  13
ENDBRANCH   9  12
ENDBRANCH   6   9
BRANCH   2  19
ATOM     19  C   UNL     1       6.944  -4.221  25.281  0.00  0.00    +0.180 C 
ATOM     20 CL   UNL     1       7.707  -5.493  26.260  0.00  0.00    -0.103 Cl
ENDBRANCH   2  19
TORSDOF 4
ENDMDL
MODEL 6
REMARK VINA RESULT:      -6.1      2.509      3.785
REMARK  Name = 
REMARK  4 active torsions:
REMARK  status: ('A' for Active; 'I' for Inactive)
REMARK    1  A    between atoms: C_2  and  C_3
REMARK    2  A    between atoms: N_8  and  S_9
REMARK    3  A    between atoms: S_9  and  C_12
REMARK    4  A    between atoms: C_12  and  C_13
REMARK                            x       y       z     vdW  Elec       q    Type
REMARK                         _______ _______ _______ _____ _____    ______ ____
ROOT
ATOM      1  O   UNL     1       5.950  -5.947  25.350  0.00  0.00    -0.273 OA
ATOM      2  C   UNL     1       5.965  -5.310  24.318  0.00  0.00    +0.242 C 
ATOM      3  N   UNL     1       6.401  -4.042  24.291  0.00  0.00    -0.276 N 
ATOM      4  C   UNL     1       5.990  -3.148  23.216  0.00  0.00    +0.113 C 
ATOM      5  C   UNL     1       7.209  -2.382  22.735  0.00  0.00    +0.117 C 
ATOM      6  N   UNL     1       7.865  -1.686  23.746  0.00  0.00    -0.156 NA
ATOM      7  C   UNL     1       7.647  -2.114  25.051  0.00  0.00    +0.117 C 
ATOM      8  C   UNL     1       7.488  -3.619  25.165  0.00  0.00    +0.113 C 
ENDROOT
BRANCH   6   9
ATOM      9  S   UNL     1       9.441  -1.421  23.422  0.00  0.00    +0.048 S 
ATOM     10  O   UNL     1       9.997  -0.673  24.553  0.00  0.00    -0.157 OA
ATOM     11  O   UNL     1      10.065  -2.766  23.326  0.00  0.00    -0.157 OA
BRANCH   9  12
ATOM     12  C   UNL     1       9.794  -0.611  21.974  0.00  0.00    +0.195 C 
BRANCH  12  13
ATOM     13  C   UNL     1       9.088   0.332  21.287  0.00  0.00    +0.003 A 
ATOM     14  C   UNL     1       8.537   1.585  21.834  0.00  0.00    -0.003 A 
ATOM     15  C   UNL     1       7.180   2.173  21.986  0.00  0.00    -0.000 A 
ATOM     16  C   UNL     1       6.331   1.777  20.696  0.00  0.00    -0.000 A 
ATOM     17  C   UNL     1       6.865   0.553  20.067  0.00  0.00    -0.000 A 
ATOM     18  C   UNL     1       8.205  -0.142  19.983  0.00  0.00    -0.003 A 
ENDBRANCH  12  13
ENDBRANCH   9  12
ENDBRANCH   6   9
BRANCH   2  19
ATOM     19  C   UNL     1       5.462  -5.871  23.011  0.00  0.00    +0.180 C 
ATOM     20 CL   UNL     1       6.810  -6.342  21.954  0.00  0.00    -0.103 Cl
ENDBRANCH   2  19
TORSDOF 4
ENDMDL
MODEL 7
REMARK VINA RESULT:      -6.1      3.832      5.648
REMARK  Name = 
REMARK  4 active torsions:
REMARK  status: ('A' for Active; 'I' for Inactive)
REMARK    1  A    between atoms: C_2  and  C_3
REMARK    2  A    between atoms: N_8  and  S_9
REMARK    3  A    between atoms: S_9  and  C_12
REMARK    4  A    between atoms: C_12  and  C_13
REMARK                            x       y       z     vdW  Elec       q    Type
REMARK                         _______ _______ _______ _____ _____    ______ ____
ROOT
ATOM      1  O   UNL     1       2.978  -4.714  23.108  0.00  0.00    -0.273 OA
ATOM      2  C   UNL     1       3.983  -5.375  23.260  0.00  0.00    +0.242 C 
ATOM      3  N   UNL     1       5.194  -4.872  22.979  0.00  0.00    -0.276 N 
ATOM      4  C   UNL     1       6.313  -5.765  22.702  0.00  0.00    +0.113 C 
ATOM      5  C   UNL     1       7.529  -5.260  23.456  0.00  0.00    +0.117 C 
ATOM      6  N   UNL     1       7.855  -3.938  23.165  0.00  0.00    -0.156 NA
ATOM      7  C   UNL     1       6.846  -3.139  22.639  0.00  0.00    +0.117 C 
ATOM      8  C   UNL     1       5.475  -3.460  23.207  0.00  0.00    +0.113 C 
ENDROOT
BRANCH   6   9
ATOM      9  S   UNL     1       8.681  -3.205  24.365  0.00  0.00    +0.048 S 
ATOM     10  O   UNL     1       8.065  -3.616  25.631  0.00  0.00    -0.157 OA
ATOM     11  O   UNL     1      10.072  -3.716  24.270  0.00  0.00    -0.157 OA
BRANCH   9  12
ATOM     12  C   UNL     1       8.774  -1.512  24.301  0.00  0.00    +0.195 C 
BRANCH  12  13
ATOM     13  C   UNL     1       9.659  -0.693  23.666  0.00  0.00    +0.003 A 
ATOM     14  C   UNL     1      10.340   0.480  24.245  0.00  0.00    -0.003 A 
ATOM     15  C   UNL     1      10.374   1.938  23.960  0.00  0.00    -0.000 A 
ATOM     16  C   UNL     1      10.321   2.125  22.377  0.00  0.00    -0.000 A 
ATOM     17  C   UNL     1       9.694   0.957  21.728  0.00  0.00    -0.000 A 
ATOM     18  C   UNL     1       9.534  -0.514  22.036  0.00  0.00    -0.003 A 
ENDBRANCH  12  13
ENDBRANCH   9  12
ENDBRANCH   6   9
BRANCH   2  19
ATOM     19  C   UNL     1       3.947  -6.808  23.728  0.00  0.00    +0.180 C 
ATOM     20 CL   UNL     1       4.526  -6.950  25.402  0.00  0.00    -0.103 Cl
ENDBRANCH   2  19
TORSDOF 4
ENDMDL
MODEL 8
REMARK VINA RESULT:      -6.0      3.299      6.280
REMARK  Name = 
REMARK  4 active torsions:
REMARK  status: ('A' for Active; 'I' for Inactive)
REMARK    1  A    between atoms: C_2  and  C_3
REMARK    2  A    between atoms: N_8  and  S_9
REMARK    3  A    between atoms: S_9  and  C_12
REMARK    4  A    between atoms: C_12  and  C_13
REMARK                            x       y       z     vdW  Elec       q    Type
REMARK                         _______ _______ _______ _____ _____    ______ ____
ROOT
ATOM      1  O   UNL     1      10.931   0.592  24.892  0.00  0.00    -0.273 OA
ATOM      2  C   UNL     1       9.897   0.877  24.325  0.00  0.00    +0.242 C 
ATOM      3  N   UNL     1       9.369   0.066  23.397  0.00  0.00    -0.276 N 
ATOM      4  C   UNL     1       8.440   0.595  22.406  0.00  0.00    +0.113 C 
ATOM      5  C   UNL     1       7.274  -0.369  22.278  0.00  0.00    +0.117 C 
ATOM      6  N   UNL     1       7.659  -1.670  21.965  0.00  0.00    -0.156 NA
ATOM      7  C   UNL     1       8.971  -2.028  22.255  0.00  0.00    +0.117 C 
ATOM      8  C   UNL     1       9.498  -1.380  23.522  0.00  0.00    +0.113 C 
ENDROOT
BRANCH   6   9
ATOM      9  S   UNL     1       6.576  -2.790  22.447  0.00  0.00    +0.048 S 
ATOM     10  O   UNL     1       5.945  -2.285  23.671  0.00  0.00    -0.157 OA
ATOM     11  O   UNL     1       5.582  -2.891  21.348  0.00  0.00    -0.157 OA
BRANCH   9  12
ATOM     12  C   UNL     1       7.171  -4.356  22.718  0.00  0.00    +0.195 C 
BRANCH  12  13
ATOM     13  C   UNL     1       7.330  -5.059  23.875  0.00  0.00    +0.003 A 
ATOM     14  C   UNL     1       6.261  -5.476  24.802  0.00  0.00    -0.003 A 
ATOM     15  C   UNL     1       5.925  -5.211  26.225  0.00  0.00    -0.000 A 
ATOM     16  C   UNL     1       7.293  -5.139  27.042  0.00  0.00    -0.000 A 
ATOM     17  C   UNL     1       8.418  -4.776  26.158  0.00  0.00    -0.000 A 
ATOM     18  C   UNL     1       8.750  -4.920  24.691  0.00  0.00    -0.003 A 
ENDBRANCH  12  13
ENDBRANCH   9  12
ENDBRANCH   6   9
BRANCH   2  19
ATOM     19  C   UNL     1       9.159   2.166  24.585  0.00  0.00    +0.180 C 
ATOM     20 CL   UNL     1       9.970   3.539  23.801  0.00  0.00    -0.103 Cl
ENDBRANCH   2  19
TORSDOF 4
ENDMDL
MODEL 9
REMARK VINA RESULT:      -5.9      2.492      4.474
REMARK  Name = 
REMARK  4 active torsions:
REMARK  status: ('A' for Active; 'I' for Inactive)
REMARK    1  A    between atoms: C_2  and  C_3
REMARK    2  A    between atoms: N_8  and  S_9
REMARK    3  A    between atoms: S_9  and  C_12
REMARK    4  A    between atoms: C_12  and  C_13
REMARK                            x       y       z     vdW  Elec       q    Type
REMARK                         _______ _______ _______ _____ _____    ______ ____
ROOT
ATOM      1  O   UNL     1       8.478   2.812  24.931  0.00  0.00    -0.273 OA
ATOM      2  C   UNL     1       9.233   1.930  24.580  0.00  0.00    +0.242 C 
ATOM      3  N   UNL     1       8.991   0.647  24.884  0.00  0.00    -0.276 N 
ATOM      4  C   UNL     1      10.080  -0.322  24.895  0.00  0.00    +0.113 C 
ATOM      5  C   UNL     1       9.610  -1.581  24.190  0.00  0.00    +0.117 C 
ATOM      6  N   UNL     1       8.448  -2.123  24.733  0.00  0.00    -0.156 NA
ATOM      7  C   UNL     1       7.642  -1.271  25.479  0.00  0.00    +0.117 C 
ATOM      8  C   UNL     1       7.622   0.150  24.944  0.00  0.00    +0.113 C 
ENDROOT
BRANCH   6   9
ATOM      9  S   UNL     1       7.602  -3.020  23.666  0.00  0.00    +0.048 S 
ATOM     10  O   UNL     1       8.123  -4.389  23.739  0.00  0.00    -0.157 OA
ATOM     11  O   UNL     1       6.190  -2.972  24.127  0.00  0.00    -0.157 OA
BRANCH   9  12
ATOM     12  C   UNL     1       7.610  -2.493  22.054  0.00  0.00    +0.195 C 
BRANCH  12  13
ATOM     13  C   UNL     1       6.956  -1.459  21.452  0.00  0.00    +0.003 A 
ATOM     14  C   UNL     1       6.007  -1.557  20.328  0.00  0.00    -0.003 A 
ATOM     15  C   UNL     1       5.952  -1.042  18.935  0.00  0.00    -0.000 A 
ATOM     16  C   UNL     1       6.574   0.426  18.935  0.00  0.00    -0.000 A 
ATOM     17  C   UNL     1       7.499   0.609  20.070  0.00  0.00    -0.000 A 
ATOM     18  C   UNL     1       7.662   0.026  21.455  0.00  0.00    -0.003 A 
ENDBRANCH  12  13
ENDBRANCH   9  12
ENDBRANCH   6   9
BRANCH   2  19
ATOM     19  C   UNL     1      10.507   2.208  23.822  0.00  0.00    +0.180 C 
ATOM     20 CL   UNL     1      10.242   2.109  22.067  0.00  0.00    -0.103 Cl
ENDBRANCH   2  19
TORSDOF 4
ENDMDL
