MODEL 1
REMARK VINA RESULT:      -7.1      0.000      0.000
REMARK  Name = 
REMARK  3 active torsions:
REMARK  status: ('A' for Active; 'I' for Inactive)
REMARK    1  A    between atoms: C_2  and  C_3
REMARK    2  A    between atoms: N_8  and  S_9
REMARK    3  A    between atoms: S_9  and  C_12
REMARK                            x       y       z     vdW  Elec       q    Type
REMARK                         _______ _______ _______ _____ _____    ______ ____
ROOT
ATOM      1  S   UNL     1       7.606  -1.830  23.716  0.00  0.00    +0.063 S 
ATOM      2  O   UNL     1       7.007  -0.531  23.657  0.00  0.00    -0.153 OA
ATOM      3  O   UNL     1       7.865  -2.404  22.379  0.00  0.00    -0.153 OA
ENDROOT
BRANCH   1   4
ATOM      4  C   UNL     1       6.578  -2.956  24.577  0.00  0.00    +0.125 A 
ATOM      5  C   UNL     1       7.083  -4.313  24.393  0.00  0.00    +0.061 A 
ATOM      6  C   UNL     1       6.651  -5.618  23.680  0.00  0.00    +0.181 A 
ATOM      7  O   UNL     1       7.677  -5.659  22.886  0.00  0.00    -0.444 OA
ATOM      8  C   UNL     1       7.038  -6.093  21.884  0.00  0.00    +0.220 C 
ATOM      9  C   UNL     1       5.964  -5.438  21.428  0.00  0.00    +0.220 C 
ATOM     10  O   UNL     1       4.909  -5.752  22.089  0.00  0.00    -0.444 OA
ATOM     11  C   UNL     1       5.331  -5.484  23.186  0.00  0.00    +0.180 A 
ATOM     12  C   UNL     1       4.652  -4.109  23.371  0.00  0.00    +0.042 A 
ATOM     13  C   UNL     1       5.130  -2.779  23.856  0.00  0.00    +0.023 A 
ENDBRANCH   1   4
BRANCH   1  19
ATOM     14  O   UNL     1       8.886   1.727  22.235  0.00  0.00    -0.273 OA
ATOM     15  C   UNL     1       9.155   0.573  21.967  0.00  0.00    +0.242 C 
ATOM     16  N   UNL     1      10.116  -0.090  22.659  0.00  0.00    -0.276 N 
ATOM     17  C   UNL     1      10.337   0.330  24.054  0.00  0.00    +0.113 C 
ATOM     18  C   UNL     1       9.355  -0.440  24.923  0.00  0.00    +0.117 C 
ATOM     19  N   UNL     1       9.067  -1.714  24.442  0.00  0.00    -0.152 NA
ATOM     20  C   UNL     1      10.083  -2.300  23.662  0.00  0.00    +0.117 C 
ATOM     21  C   UNL     1      10.302  -1.518  22.369  0.00  0.00    +0.113 C 
BRANCH  15  22
ATOM     22  C   UNL     1       8.699  -0.065  20.678  0.00  0.00    +0.180 C 
ATOM     23 CL   UNL     1       7.208   0.717  20.103  0.00  0.00    -0.103 Cl
ENDBRANCH  15  22
ENDBRANCH   1  19
TORSDOF 3
ENDMDL
MODEL 2
REMARK VINA RESULT:      -7.1      2.476      6.186
REMARK  Name = 
REMARK  3 active torsions:
REMARK  status: ('A' for Active; 'I' for Inactive)
REMARK    1  A    between atoms: C_2  and  C_3
REMARK    2  A    between atoms: N_8  and  S_9
REMARK    3  A    between atoms: S_9  and  C_12
REMARK                            x       y       z     vdW  Elec       q    Type
REMARK                         _______ _______ _______ _____ _____    ______ ____
ROOT
ATOM      1  S   UNL     1       9.155  -2.257  23.571  0.00  0.00    +0.063 S 
ATOM      2  O   UNL     1       9.836  -3.382  24.139  0.00  0.00    -0.153 OA
ATOM      3  O   UNL     1       8.156  -2.645  22.554  0.00  0.00    -0.153 OA
ENDROOT
BRANCH   1   4
ATOM      4  C   UNL     1      10.286  -1.163  22.803  0.00  0.00    +0.125 A 
ATOM      5  C   UNL     1      10.606  -0.073  23.719  0.00  0.00    +0.061 A 
ATOM      6  C   UNL     1      10.357   1.451  23.833  0.00  0.00    +0.181 A 
ATOM      7  O   UNL     1       9.687   1.375  24.942  0.00  0.00    -0.444 OA
ATOM      8  C   UNL     1       8.857   2.283  24.645  0.00  0.00    +0.220 C 
ATOM      9  C   UNL     1       8.141   2.206  23.517  0.00  0.00    +0.220 C 
ATOM     10  O   UNL     1       8.805   2.647  22.510  0.00  0.00    -0.444 OA
ATOM     11  C   UNL     1       9.768   1.934  22.638  0.00  0.00    +0.180 A 
ATOM     12  C   UNL     1       9.432   0.887  21.552  0.00  0.00    +0.042 A 
ATOM     13  C   UNL     1       9.462  -0.606  21.514  0.00  0.00    +0.023 A 
ENDBRANCH   1   4
BRANCH   1  19
ATOM     14  O   UNL     1       7.896  -5.425  25.776  0.00  0.00    -0.273 OA
ATOM     15  C   UNL     1       7.343  -4.707  24.968  0.00  0.00    +0.242 C 
ATOM     16  N   UNL     1       6.783  -3.533  25.356  0.00  0.00    -0.276 N 
ATOM     17  C   UNL     1       7.384  -2.868  26.526  0.00  0.00    +0.113 C 
ATOM     18  C   UNL     1       8.532  -2.008  26.020  0.00  0.00    +0.117 C 
ATOM     19  N   UNL     1       8.320  -1.487  24.748  0.00  0.00    -0.152 NA
ATOM     20  C   UNL     1       6.967  -1.312  24.394  0.00  0.00    +0.117 C 
ATOM     21  C   UNL     1       6.244  -2.655  24.310  0.00  0.00    +0.113 C 
BRANCH  15  22
ATOM     22  C   UNL     1       6.958  -5.209  23.598  0.00  0.00    +0.180 C 
ATOM     23 CL   UNL     1       5.439  -6.130  23.689  0.00  0.00    -0.103 Cl
ENDBRANCH  15  22
ENDBRANCH   1  19
TORSDOF 3
ENDMDL
MODEL 3
REMARK VINA RESULT:      -6.9      2.996      6.339
REMARK  Name = 
REMARK  3 active torsions:
REMARK  status: ('A' for Active; 'I' for Inactive)
REMARK    1  A    between atoms: C_2  and  C_3
REMARK    2  A    between atoms: N_8  and  S_9
REMARK    3  A    between atoms: S_9  and  C_12
REMARK                            x       y       z     vdW  Elec       q    Type
REMARK                         _______ _______ _______ _____ _____    ______ ____
ROOT
ATOM      1  S   UNL     1       9.125  -2.115  23.965  0.00  0.00    +0.063 S 
ATOM      2  O   UNL     1       8.798  -1.530  25.230  0.00  0.00    -0.153 OA
ATOM      3  O   UNL     1       9.695  -3.473  24.090  0.00  0.00    -0.153 OA
ENDROOT
BRANCH   1   4
ATOM      4  C   UNL     1      10.294  -1.136  23.104  0.00  0.00    +0.125 A 
ATOM      5  C   UNL     1      10.555   0.085  23.861  0.00  0.00    +0.061 A 
ATOM      6  C   UNL     1      10.294   1.605  23.727  0.00  0.00    +0.181 A 
ATOM      7  O   UNL     1       9.561   1.690  24.794  0.00  0.00    -0.444 OA
ATOM      8  C   UNL     1       8.746   2.531  24.316  0.00  0.00    +0.220 C 
ATOM      9  C   UNL     1       8.097   2.274  23.174  0.00  0.00    +0.220 C 
ATOM     10  O   UNL     1       8.817   2.567  22.151  0.00  0.00    -0.444 OA
ATOM     11  C   UNL     1       9.774   1.893  22.441  0.00  0.00    +0.180 A 
ATOM     12  C   UNL     1       9.506   0.690  21.509  0.00  0.00    +0.042 A 
ATOM     13  C   UNL     1       9.544  -0.792  21.701  0.00  0.00    +0.023 A 
ENDBRANCH   1   4
BRANCH   1  19
ATOM     14  O   UNL     1       6.399  -2.644  26.926  0.00  0.00    -0.273 OA
ATOM     15  C   UNL     1       6.943  -3.409  26.156  0.00  0.00    +0.242 C 
ATOM     16  N   UNL     1       6.430  -3.623  24.917  0.00  0.00    -0.276 N 
ATOM     17  C   UNL     1       5.667  -2.515  24.316  0.00  0.00    +0.113 C 
ATOM     18  C   UNL     1       6.662  -1.608  23.610  0.00  0.00    +0.117 C 
ATOM     19  N   UNL     1       7.757  -2.285  23.083  0.00  0.00    -0.152 NA
ATOM     20  C   UNL     1       7.519  -3.633  22.748  0.00  0.00    +0.117 C 
ATOM     21  C   UNL     1       7.206  -4.460  23.993  0.00  0.00    +0.113 C 
BRANCH  15  22
ATOM     22  C   UNL     1       7.989  -4.390  26.624  0.00  0.00    +0.180 C 
ATOM     23 CL   UNL     1       7.230  -5.678  27.589  0.00  0.00    -0.103 Cl
ENDBRANCH  15  22
ENDBRANCH   1  19
TORSDOF 3
ENDMDL
MODEL 4
REMARK VINA RESULT:      -6.9      2.605      6.027
REMARK  Name = 
REMARK  3 active torsions:
REMARK  status: ('A' for Active; 'I' for Inactive)
REMARK    1  A    between atoms: C_2  and  C_3
REMARK    2  A    between atoms: N_8  and  S_9
REMARK    3  A    between atoms: S_9  and  C_12
REMARK                            x       y       z     vdW  Elec       q    Type
REMARK                         _______ _______ _______ _____ _____    ______ ____
ROOT
ATOM      1  S   UNL     1       8.280  -1.837  24.969  0.00  0.00    +0.063 S 
ATOM      2  O   UNL     1       9.406  -2.548  24.443  0.00  0.00    -0.153 OA
ATOM      3  O   UNL     1       7.139  -1.792  24.031  0.00  0.00    -0.153 OA
ENDROOT
BRANCH   1   4
ATOM      4  C   UNL     1       8.708  -0.182  25.349  0.00  0.00    +0.125 A 
ATOM      5  C   UNL     1       7.931   0.726  24.511  0.00  0.00    +0.061 A 
ATOM      6  C   UNL     1       8.174   1.716  23.346  0.00  0.00    +0.181 A 
ATOM      7  O   UNL     1       7.423   1.082  22.499  0.00  0.00    -0.444 OA
ATOM      8  C   UNL     1       8.166   1.292  21.496  0.00  0.00    +0.220 C 
ATOM      9  C   UNL     1       9.456   0.936  21.522  0.00  0.00    +0.220 C 
ATOM     10  O   UNL     1      10.177   1.831  22.095  0.00  0.00    -0.444 OA
ATOM     11  C   UNL     1       9.565   1.877  23.133  0.00  0.00    +0.180 A 
ATOM     12  C   UNL     1      10.509   1.016  24.001  0.00  0.00    +0.042 A 
ATOM     13  C   UNL     1      10.289  -0.099  24.971  0.00  0.00    +0.023 A 
ENDBRANCH   1   4
BRANCH   1  19
ATOM     14  O   UNL     1       9.036  -5.692  23.949  0.00  0.00    -0.273 OA
ATOM     15  C   UNL     1       8.022  -5.025  23.968  0.00  0.00    +0.242 C 
ATOM     16  N   UNL     1       7.292  -4.910  25.106  0.00  0.00    -0.276 N 
ATOM     17  C   UNL     1       8.026  -5.028  26.378  0.00  0.00    +0.113 C 
ATOM     18  C   UNL     1       8.556  -3.647  26.728  0.00  0.00    +0.117 C 
ATOM     19  N   UNL     1       7.732  -2.610  26.302  0.00  0.00    -0.152 NA
ATOM     20  C   UNL     1       6.368  -2.942  26.186  0.00  0.00    +0.117 C 
ATOM     21  C   UNL     1       6.150  -3.987  25.094  0.00  0.00    +0.113 C 
BRANCH  15  22
ATOM     22  C   UNL     1       7.348  -4.575  22.694  0.00  0.00    +0.180 C 
ATOM     23 CL   UNL     1       7.015  -5.976  21.651  0.00  0.00    -0.103 Cl
ENDBRANCH  15  22
ENDBRANCH   1  19
TORSDOF 3
ENDMDL
MODEL 5
REMARK VINA RESULT:      -6.9      1.717      2.403
REMARK  Name = 
REMARK  3 active torsions:
REMARK  status: ('A' for Active; 'I' for Inactive)
REMARK    1  A    between atoms: C_2  and  C_3
REMARK    2  A    between atoms: N_8  and  S_9
REMARK    3  A    between atoms: S_9  and  C_12
REMARK                            x       y       z     vdW  Elec       q    Type
REMARK                         _______ _______ _______ _____ _____    ______ ____
ROOT
ATOM      1  S   UNL     1       7.365  -1.250  23.694  0.00  0.00    +0.063 S 
ATOM      2  O   UNL     1       6.977   0.097  23.400  0.00  0.00    -0.153 OA
ATOM      3  O   UNL     1       7.438  -2.103  22.490  0.00  0.00    -0.153 OA
ENDROOT
BRANCH   1   4
ATOM      4  C   UNL     1       6.232  -2.001  24.799  0.00  0.00    +0.125 A 
ATOM      5  C   UNL     1       6.924  -2.361  26.033  0.00  0.00    +0.061 A 
ATOM      6  C   UNL     1       7.358  -3.646  26.781  0.00  0.00    +0.181 A 
ATOM      7  O   UNL     1       8.628  -3.385  26.728  0.00  0.00    -0.444 OA
ATOM      8  C   UNL     1       8.990  -4.583  26.541  0.00  0.00    +0.220 C 
ATOM      9  C   UNL     1       8.491  -5.292  25.522  0.00  0.00    +0.220 C 
ATOM     10  O   UNL     1       7.353  -5.807  25.824  0.00  0.00    -0.444 OA
ATOM     11  C   UNL     1       6.803  -4.784  26.145  0.00  0.00    +0.180 A 
ATOM     12  C   UNL     1       5.991  -4.537  24.855  0.00  0.00    +0.042 A 
ATOM     13  C   UNL     1       5.748  -3.334  24.002  0.00  0.00    +0.023 A 
ENDBRANCH   1   4
BRANCH   1  19
ATOM     14  O   UNL     1       9.014   1.858  21.670  0.00  0.00    -0.273 OA
ATOM     15  C   UNL     1       9.108   0.653  21.555  0.00  0.00    +0.242 C 
ATOM     16  N   UNL     1      10.013  -0.042  22.290  0.00  0.00    -0.276 N 
ATOM     17  C   UNL     1      10.377   0.526  23.600  0.00  0.00    +0.113 C 
ATOM     18  C   UNL     1       9.359   0.026  24.613  0.00  0.00    +0.117 C 
ATOM     19  N   UNL     1       8.872  -1.246  24.331  0.00  0.00    -0.152 NA
ATOM     20  C   UNL     1       9.748  -2.070  23.596  0.00  0.00    +0.117 C 
ATOM     21  C   UNL     1       9.987  -1.507  22.198  0.00  0.00    +0.113 C 
BRANCH  15  22
ATOM     22  C   UNL     1       8.488  -0.080  20.391  0.00  0.00    +0.180 C 
ATOM     23 CL   UNL     1       6.956   0.695  19.926  0.00  0.00    -0.103 Cl
ENDBRANCH  15  22
ENDBRANCH   1  19
TORSDOF 3
ENDMDL
MODEL 6
REMARK VINA RESULT:      -6.8      2.830      5.941
REMARK  Name = 
REMARK  3 active torsions:
REMARK  status: ('A' for Active; 'I' for Inactive)
REMARK    1  A    between atoms: C_2  and  C_3
REMARK    2  A    between atoms: N_8  and  S_9
REMARK    3  A    between atoms: S_9  and  C_12
REMARK                            x       y       z     vdW  Elec       q    Type
REMARK                         _______ _______ _______ _____ _____    ______ ____
ROOT
ATOM      1  S   UNL     1       7.674  -1.950  25.194  0.00  0.00    +0.063 S 
ATOM      2  O   UNL     1       6.337  -2.453  25.286  0.00  0.00    -0.153 OA
ATOM      3  O   UNL     1       8.507  -2.318  26.358  0.00  0.00    -0.153 OA
ENDROOT
BRANCH   1   4
ATOM      4  C   UNL     1       7.679  -0.203  25.080  0.00  0.00    +0.125 A 
ATOM      5  C   UNL     1       7.166   0.200  23.774  0.00  0.00    +0.061 A 
ATOM      6  C   UNL     1       7.697   0.857  22.477  0.00  0.00    +0.181 A 
ATOM      7  O   UNL     1       7.431  -0.161  21.717  0.00  0.00    -0.444 OA
ATOM      8  C   UNL     1       8.466  -0.049  20.997  0.00  0.00    +0.220 C 
ATOM      9  C   UNL     1       9.682  -0.032  21.556  0.00  0.00    +0.220 C 
ATOM     10  O   UNL     1       9.988   1.143  21.973  0.00  0.00    -0.444 OA
ATOM     11  C   UNL     1       9.024   1.312  22.675  0.00  0.00    +0.180 A 
ATOM     12  C   UNL     1       9.671   1.005  24.044  0.00  0.00    +0.042 A 
ATOM     13  C   UNL     1       9.254   0.184  25.221  0.00  0.00    +0.023 A 
ENDBRANCH   1   4
BRANCH   1  19
ATOM     14  O   UNL     1       5.998  -5.647  25.206  0.00  0.00    -0.273 OA
ATOM     15  C   UNL     1       7.083  -5.230  25.556  0.00  0.00    +0.242 C 
ATOM     16  N   UNL     1       8.098  -5.109  24.662  0.00  0.00    -0.276 N 
ATOM     17  C   UNL     1       7.718  -4.864  23.259  0.00  0.00    +0.113 C 
ATOM     18  C   UNL     1       7.555  -3.362  23.087  0.00  0.00    +0.117 C 
ATOM     19  N   UNL     1       8.408  -2.614  23.893  0.00  0.00    -0.152 NA
ATOM     20  C   UNL     1       9.611  -3.258  24.246  0.00  0.00    +0.117 C 
ATOM     21  C   UNL     1       9.341  -4.479  25.122  0.00  0.00    +0.113 C 
BRANCH  15  22
ATOM     22  C   UNL     1       7.464  -5.142  27.014  0.00  0.00    +0.180 C 
ATOM     23 CL   UNL     1       6.056  -4.650  27.984  0.00  0.00    -0.103 Cl
ENDBRANCH  15  22
ENDBRANCH   1  19
TORSDOF 3
ENDMDL
MODEL 7
REMARK VINA RESULT:      -6.6      1.816      2.453
REMARK  Name = 
REMARK  3 active torsions:
REMARK  status: ('A' for Active; 'I' for Inactive)
REMARK    1  A    between atoms: C_2  and  C_3
REMARK    2  A    between atoms: N_8  and  S_9
REMARK    3  A    between atoms: S_9  and  C_12
REMARK                            x       y       z     vdW  Elec       q    Type
REMARK                         _______ _______ _______ _____ _____    ______ ____
ROOT
ATOM      1  S   UNL     1       8.628  -0.772  23.948  0.00  0.00    +0.063 S 
ATOM      2  O   UNL     1       7.254  -0.646  23.564  0.00  0.00    -0.153 OA
ATOM      3  O   UNL     1       9.484  -1.283  22.857  0.00  0.00    -0.153 OA
ENDROOT
BRANCH   1   4
ATOM      4  C   UNL     1       8.802  -1.867  25.304  0.00  0.00    +0.125 A 
ATOM      5  C   UNL     1       9.113  -3.205  24.812  0.00  0.00    +0.061 A 
ATOM      6  C   UNL     1       8.433  -4.594  24.736  0.00  0.00    +0.181 A 
ATOM      7  O   UNL     1       8.438  -4.653  23.439  0.00  0.00    -0.444 OA
ATOM      8  C   UNL     1       7.310  -5.216  23.338  0.00  0.00    +0.220 C 
ATOM      9  C   UNL     1       6.225  -4.668  23.900  0.00  0.00    +0.220 C 
ATOM     10  O   UNL     1       6.136  -4.975  25.144  0.00  0.00    -0.444 OA
ATOM     11  C   UNL     1       7.225  -4.581  25.476  0.00  0.00    +0.180 A 
ATOM     12  C   UNL     1       6.807  -3.235  26.107  0.00  0.00    +0.042 A 
ATOM     13  C   UNL     1       7.334  -1.840  26.007  0.00  0.00    +0.023 A 
ENDBRANCH   1   4
BRANCH   1  19
ATOM     14  O   UNL     1       6.559   1.534  21.325  0.00  0.00    -0.273 OA
ATOM     15  C   UNL     1       7.700   1.119  21.341  0.00  0.00    +0.242 C 
ATOM     16  N   UNL     1       8.674   1.801  21.995  0.00  0.00    -0.276 N 
ATOM     17  C   UNL     1       8.253   2.613  23.150  0.00  0.00    +0.113 C 
ATOM     18  C   UNL     1       8.248   1.703  24.368  0.00  0.00    +0.117 C 
ATOM     19  N   UNL     1       9.218   0.706  24.323  0.00  0.00    -0.152 NA
ATOM     20  C   UNL     1      10.359   1.020  23.558  0.00  0.00    +0.117 C 
ATOM     21  C   UNL     1      10.002   1.180  22.082  0.00  0.00    +0.113 C 
BRANCH  15  22
ATOM     22  C   UNL     1       8.162   0.042  20.390  0.00  0.00    +0.180 C 
ATOM     23 CL   UNL     1       7.430   0.288  18.787  0.00  0.00    -0.103 Cl
ENDBRANCH  15  22
ENDBRANCH   1  19
TORSDOF 3
ENDMDL
MODEL 8
REMARK VINA RESULT:      -6.6      1.691      2.206
REMARK  Name = 
REMARK  3 active torsions:
REMARK  status: ('A' for Active; 'I' for Inactive)
REMARK    1  A    between atoms: C_2  and  C_3
REMARK    2  A    between atoms: N_8  and  S_9
REMARK    3  A    between atoms: S_9  and  C_12
REMARK                            x       y       z     vdW  Elec       q    Type
REMARK                         _______ _______ _______ _____ _____    ______ ____
ROOT
ATOM      1  S   UNL     1       7.541  -1.801  24.677  0.00  0.00    +0.063 S 
ATOM      2  O   UNL     1       8.550  -1.576  25.667  0.00  0.00    -0.153 OA
ATOM      3  O   UNL     1       6.731  -0.597  24.399  0.00  0.00    -0.153 OA
ENDROOT
BRANCH   1   4
ATOM      4  C   UNL     1       6.440  -3.066  25.181  0.00  0.00    +0.125 A 
ATOM      5  C   UNL     1       6.970  -4.363  24.772  0.00  0.00    +0.061 A 
ATOM      6  C   UNL     1       6.623  -5.488  23.767  0.00  0.00    +0.181 A 
ATOM      7  O   UNL     1       7.723  -5.378  23.088  0.00  0.00    -0.444 OA
ATOM      8  C   UNL     1       7.191  -5.588  21.959  0.00  0.00    +0.220 C 
ATOM      9  C   UNL     1       6.164  -4.839  21.543  0.00  0.00    +0.220 C 
ATOM     10  O   UNL     1       5.049  -5.267  22.017  0.00  0.00    -0.444 OA
ATOM     11  C   UNL     1       5.357  -5.237  23.181  0.00  0.00    +0.180 A 
ATOM     12  C   UNL     1       4.653  -3.920  23.577  0.00  0.00    +0.042 A 
ATOM     13  C   UNL     1       5.070  -2.725  24.371  0.00  0.00    +0.023 A 
ENDBRANCH   1   4
BRANCH   1  19
ATOM     14  O   UNL     1      10.895   0.475  24.892  0.00  0.00    -0.273 OA
ATOM     15  C   UNL     1       9.851   0.596  24.284  0.00  0.00    +0.242 C 
ATOM     16  N   UNL     1       9.685   0.007  23.073  0.00  0.00    -0.276 N 
ATOM     17  C   UNL     1      10.453  -1.227  22.826  0.00  0.00    +0.113 C 
ATOM     18  C   UNL     1       9.632  -2.388  23.362  0.00  0.00    +0.117 C 
ATOM     19  N   UNL     1       8.258  -2.194  23.261  0.00  0.00    -0.152 NA
ATOM     20  C   UNL     1       7.853  -1.336  22.218  0.00  0.00    +0.117 C 
ATOM     21  C   UNL     1       8.357   0.086  22.452  0.00  0.00    +0.113 C 
BRANCH  15  22
ATOM     22  C   UNL     1       8.834   1.644  24.662  0.00  0.00    +0.180 C 
ATOM     23 CL   UNL     1       9.422   3.259  24.204  0.00  0.00    -0.103 Cl
ENDBRANCH  15  22
ENDBRANCH   1  19
TORSDOF 3
ENDMDL
MODEL 9
REMARK VINA RESULT:      -6.6      2.700      6.257
REMARK  Name = 
REMARK  3 active torsions:
REMARK  status: ('A' for Active; 'I' for Inactive)
REMARK    1  A    between atoms: C_2  and  C_3
REMARK    2  A    between atoms: N_8  and  S_9
REMARK    3  A    between atoms: S_9  and  C_12
REMARK                            x       y       z     vdW  Elec       q    Type
REMARK                         _______ _______ _______ _____ _____    ______ ____
ROOT
ATOM      1  S   UNL     1       8.683  -2.506  24.000  0.00  0.00    +0.063 S 
ATOM      2  O   UNL     1       7.466  -1.824  23.677  0.00  0.00    -0.153 OA
ATOM      3  O   UNL     1       8.942  -2.560  25.453  0.00  0.00    -0.153 OA
ENDROOT
BRANCH   1   4
ATOM      4  C   UNL     1      10.058  -1.721  23.253  0.00  0.00    +0.125 A 
ATOM      5  C   UNL     1      10.420  -0.536  24.026  0.00  0.00    +0.061 A 
ATOM      6  C   UNL     1      10.395   1.003  23.860  0.00  0.00    +0.181 A 
ATOM      7  O   UNL     1       9.584   1.211  24.851  0.00  0.00    -0.444 OA
ATOM      8  C   UNL     1       8.949   2.152  24.292  0.00  0.00    +0.220 C 
ATOM      9  C   UNL     1       8.382   1.971  23.093  0.00  0.00    +0.220 C 
ATOM     10  O   UNL     1       9.231   2.137  22.144  0.00  0.00    -0.444 OA
ATOM     11  C   UNL     1      10.048   1.339  22.528  0.00  0.00    +0.180 A 
ATOM     12  C   UNL     1       9.699   0.170  21.581  0.00  0.00    +0.042 A 
ATOM     13  C   UNL     1       9.504  -1.298  21.782  0.00  0.00    +0.023 A 
ENDBRANCH   1   4
BRANCH   1  19
ATOM     14  O   UNL     1       4.713  -3.167  24.529  0.00  0.00    -0.273 OA
ATOM     15  C   UNL     1       5.696  -3.480  25.168  0.00  0.00    +0.242 C 
ATOM     16  N   UNL     1       6.386  -4.609  24.864  0.00  0.00    -0.276 N 
ATOM     17  C   UNL     1       6.345  -5.052  23.459  0.00  0.00    +0.113 C 
ATOM     18  C   UNL     1       7.456  -4.323  22.719  0.00  0.00    +0.117 C 
ATOM     19  N   UNL     1       8.572  -4.062  23.508  0.00  0.00    -0.152 NA
ATOM     20  C   UNL     1       8.770  -4.960  24.575  0.00  0.00    +0.117 C 
ATOM     21  C   UNL     1       7.636  -4.861  25.592  0.00  0.00    +0.113 C 
BRANCH  15  22
ATOM     22  C   UNL     1       6.006  -2.847  26.502  0.00  0.00    +0.180 C 
ATOM     23 CL   UNL     1       4.972  -3.549  27.767  0.00  0.00    -0.103 Cl
ENDBRANCH  15  22
ENDBRANCH   1  19
TORSDOF 3
ENDMDL
