MODEL 1
REMARK VINA RESULT:      -6.5      0.000      0.000
REMARK  Name = 
REMARK  3 active torsions:
REMARK  status: ('A' for Active; 'I' for Inactive)
REMARK    1  A    between atoms: C_2  and  C_3
REMARK    2  A    between atoms: N_8  and  C_9
REMARK    3  A    between atoms: C_9  and  C_10
REMARK                            x       y       z     vdW  Elec       q    Type
REMARK                         _______ _______ _______ _____ _____    ______ ____
ROOT
ATOM      1  C   UNL     1       8.542  -2.072  22.195  0.00  0.00    +0.099 C 
ENDROOT
BRANCH   1   2
ATOM      2  C   UNL     1       9.425  -0.993  21.626  0.00  0.00    -0.003 A 
ATOM      3  C   UNL     1      10.207  -0.186  22.579  0.00  0.00    +0.038 A 
ATOM      4  C   UNL     1      10.230   1.180  23.207  0.00  0.00    +0.180 A 
ATOM      5  O   UNL     1       9.926   0.790  24.395  0.00  0.00    -0.444 OA
ATOM      6  C   UNL     1       9.166   1.783  24.654  0.00  0.00    +0.220 C 
ATOM      7  C   UNL     1       8.142   2.050  23.820  0.00  0.00    +0.220 C 
ATOM      8  O   UNL     1       8.546   2.747  22.827  0.00  0.00    -0.444 OA
ATOM      9  C   UNL     1       9.414   2.059  22.431  0.00  0.00    +0.180 A 
ATOM     10  C   UNL     1       8.606   1.395  21.276  0.00  0.00    +0.040 A 
ATOM     11  C   UNL     1       8.447   0.012  20.771  0.00  0.00    +0.000 A 
ENDBRANCH   1   2
BRANCH   1  17
ATOM     12  O   UNL     1       5.867  -4.574  21.021  0.00  0.00    -0.273 OA
ATOM     13  C   UNL     1       5.901  -4.594  22.236  0.00  0.00    +0.242 C 
ATOM     14  N   UNL     1       6.726  -3.696  22.885  0.00  0.00    -0.276 N 
ATOM     15  C   UNL     1       7.835  -4.270  23.627  0.00  0.00    +0.111 C 
ATOM     16  C   UNL     1       8.690  -3.182  24.233  0.00  0.00    +0.094 C 
ATOM     17  N   UNL     1       8.424  -1.919  23.593  0.00  0.00    -0.266 NA
ATOM     18  C   UNL     1       7.089  -1.530  23.944  0.00  0.00    +0.094 C 
ATOM     19  C   UNL     1       6.077  -2.491  23.377  0.00  0.00    +0.111 C 
BRANCH  13  20
ATOM     20  C   UNL     1       4.650  -4.939  23.036  0.00  0.00    +0.180 C 
ATOM     21 CL   UNL     1       4.872  -6.539  23.795  0.00  0.00    -0.103 Cl
ENDBRANCH  13  20
ENDBRANCH   1  17
TORSDOF 3
ENDMDL
MODEL 2
REMARK VINA RESULT:      -6.4      1.696      1.976
REMARK  Name = 
REMARK  3 active torsions:
REMARK  status: ('A' for Active; 'I' for Inactive)
REMARK    1  A    between atoms: C_2  and  C_3
REMARK    2  A    between atoms: N_8  and  C_9
REMARK    3  A    between atoms: C_9  and  C_10
REMARK                            x       y       z     vdW  Elec       q    Type
REMARK                         _______ _______ _______ _____ _____    ______ ____
ROOT
ATOM      1  C   UNL     1       9.583  -1.676  24.202  0.00  0.00    +0.099 C 
ENDROOT
BRANCH   1   2
ATOM      2  C   UNL     1      10.452  -0.683  23.473  0.00  0.00    -0.003 A 
ATOM      3  C   UNL     1      10.548   0.674  24.040  0.00  0.00    +0.038 A 
ATOM      4  C   UNL     1      10.057   2.075  23.802  0.00  0.00    +0.180 A 
ATOM      5  O   UNL     1       9.288   2.127  24.833  0.00  0.00    -0.444 OA
ATOM      6  C   UNL     1       8.353   2.772  24.250  0.00  0.00    +0.220 C 
ATOM      7  C   UNL     1       7.824   2.264  23.119  0.00  0.00    +0.220 C 
ATOM      8  O   UNL     1       8.538   2.585  22.109  0.00  0.00    -0.444 OA
ATOM      9  C   UNL     1       9.585   2.177  22.458  0.00  0.00    +0.180 A 
ATOM     10  C   UNL     1       9.539   0.846  21.650  0.00  0.00    +0.040 A 
ATOM     11  C   UNL     1       9.857  -0.570  21.947  0.00  0.00    +0.000 A 
ENDBRANCH   1   2
BRANCH   1  17
ATOM     12  O   UNL     1       8.514  -5.352  23.831  0.00  0.00    -0.273 OA
ATOM     13  C   UNL     1       7.783  -4.821  24.645  0.00  0.00    +0.242 C 
ATOM     14  N   UNL     1       7.921  -3.465  24.867  0.00  0.00    -0.276 N 
ATOM     15  C   UNL     1       8.375  -3.078  26.191  0.00  0.00    +0.111 C 
ATOM     16  C   UNL     1       8.542  -1.579  26.279  0.00  0.00    +0.094 C 
ATOM     17  N   UNL     1       8.602  -1.002  24.960  0.00  0.00    -0.266 NA
ATOM     18  C   UNL     1       7.309  -1.160  24.361  0.00  0.00    +0.094 C 
ATOM     19  C   UNL     1       6.982  -2.615  24.150  0.00  0.00    +0.111 C 
BRANCH  13  20
ATOM     20  C   UNL     1       6.352  -5.313  24.832  0.00  0.00    +0.180 C 
ATOM     21 CL   UNL     1       5.752  -5.949  23.276  0.00  0.00    -0.103 Cl
ENDBRANCH  13  20
ENDBRANCH   1  17
TORSDOF 3
ENDMDL
MODEL 3
REMARK VINA RESULT:      -6.4      3.242      5.507
REMARK  Name = 
REMARK  3 active torsions:
REMARK  status: ('A' for Active; 'I' for Inactive)
REMARK    1  A    between atoms: C_2  and  C_3
REMARK    2  A    between atoms: N_8  and  C_9
REMARK    3  A    between atoms: C_9  and  C_10
REMARK                            x       y       z     vdW  Elec       q    Type
REMARK                         _______ _______ _______ _____ _____    ______ ____
ROOT
ATOM      1  C   UNL     1       8.459   0.070  23.829  0.00  0.00    +0.099 C 
ENDROOT
BRANCH   1   2
ATOM      2  C   UNL     1       9.340  -0.777  24.711  0.00  0.00    -0.003 A 
ATOM      3  C   UNL     1       9.666  -2.134  24.237  0.00  0.00    +0.038 A 
ATOM      4  C   UNL     1       9.317  -3.573  24.492  0.00  0.00    +0.180 A 
ATOM      5  O   UNL     1       8.695  -3.763  23.381  0.00  0.00    -0.444 OA
ATOM      6  C   UNL     1       7.777  -4.494  23.883  0.00  0.00    +0.220 C 
ATOM      7  C   UNL     1       7.054  -4.010  24.912  0.00  0.00    +0.220 C 
ATOM      8  O   UNL     1       7.668  -4.198  26.017  0.00  0.00    -0.444 OA
ATOM      9  C   UNL     1       8.695  -3.678  25.773  0.00  0.00    +0.180 A 
ATOM     10  C   UNL     1       8.392  -2.331  26.494  0.00  0.00    +0.040 A 
ATOM     11  C   UNL     1       8.576  -0.900  26.159  0.00  0.00    +0.000 A 
ENDBRANCH   1   2
BRANCH   1  17
ATOM     12  O   UNL     1       6.550  -1.307  20.787  0.00  0.00    -0.273 OA
ATOM     13  C   UNL     1       6.973  -0.202  20.505  0.00  0.00    +0.242 C 
ATOM     14  N   UNL     1       7.779   0.446  21.420  0.00  0.00    -0.276 N 
ATOM     15  C   UNL     1       7.236   1.662  21.999  0.00  0.00    +0.111 C 
ATOM     16  C   UNL     1       8.187   2.234  23.024  0.00  0.00    +0.094 C 
ATOM     17  N   UNL     1       9.144   1.237  23.432  0.00  0.00    -0.266 NA
ATOM     18  C   UNL     1       9.990   0.965  22.307  0.00  0.00    +0.094 C 
ATOM     19  C   UNL     1       9.210   0.338  21.181  0.00  0.00    +0.111 C 
BRANCH  13  20
ATOM     20  C   UNL     1       7.310   0.147  19.060  0.00  0.00    +0.180 C 
ATOM     21 CL   UNL     1       5.852   0.804  18.268  0.00  0.00    -0.103 Cl
ENDBRANCH  13  20
ENDBRANCH   1  17
TORSDOF 3
ENDMDL
MODEL 4
REMARK VINA RESULT:      -6.3      2.186      2.655
REMARK  Name = 
REMARK  3 active torsions:
REMARK  status: ('A' for Active; 'I' for Inactive)
REMARK    1  A    between atoms: C_2  and  C_3
REMARK    2  A    between atoms: N_8  and  C_9
REMARK    3  A    between atoms: C_9  and  C_10
REMARK                            x       y       z     vdW  Elec       q    Type
REMARK                         _______ _______ _______ _____ _____    ______ ____
ROOT
ATOM      1  C   UNL     1       9.440  -2.114  23.638  0.00  0.00    +0.099 C 
ENDROOT
BRANCH   1   2
ATOM      2  C   UNL     1      10.345  -1.084  23.014  0.00  0.00    -0.003 A 
ATOM      3  C   UNL     1      10.610   0.141  23.788  0.00  0.00    +0.038 A 
ATOM      4  C   UNL     1      10.239   1.597  23.831  0.00  0.00    +0.180 A 
ATOM      5  O   UNL     1       9.553   1.531  24.918  0.00  0.00    -0.444 OA
ATOM      6  C   UNL     1       8.645   2.342  24.533  0.00  0.00    +0.220 C 
ATOM      7  C   UNL     1       7.991   2.084  23.383  0.00  0.00    +0.220 C 
ATOM      8  O   UNL     1       8.659   2.516  22.383  0.00  0.00    -0.444 OA
ATOM      9  C   UNL     1       9.684   1.969  22.568  0.00  0.00    +0.180 A 
ATOM     10  C   UNL     1       9.455   0.807  21.556  0.00  0.00    +0.040 A 
ATOM     11  C   UNL     1       9.657  -0.660  21.584  0.00  0.00    +0.000 A 
ENDBRANCH   1   2
BRANCH   1  17
ATOM     12  O   UNL     1       9.330  -4.577  26.591  0.00  0.00    -0.273 OA
ATOM     13  C   UNL     1       8.188  -4.345  26.243  0.00  0.00    +0.242 C 
ATOM     14  N   UNL     1       7.988  -3.557  25.128  0.00  0.00    -0.276 N 
ATOM     15  C   UNL     1       7.345  -2.275  25.360  0.00  0.00    +0.111 C 
ATOM     16  C   UNL     1       7.243  -1.490  24.073  0.00  0.00    +0.094 C 
ATOM     17  N   UNL     1       8.145  -2.025  23.085  0.00  0.00    -0.266 NA
ATOM     18  C   UNL     1       7.664  -3.326  22.722  0.00  0.00    +0.094 C 
ATOM     19  C   UNL     1       7.734  -4.276  23.890  0.00  0.00    +0.111 C 
BRANCH  13  20
ATOM     20  C   UNL     1       7.096  -5.392  26.437  0.00  0.00    +0.180 C 
ATOM     21 CL   UNL     1       6.262  -5.078  27.983  0.00  0.00    -0.103 Cl
ENDBRANCH  13  20
ENDBRANCH   1  17
TORSDOF 3
ENDMDL
MODEL 5
REMARK VINA RESULT:      -6.1      3.139      5.622
REMARK  Name = 
REMARK  3 active torsions:
REMARK  status: ('A' for Active; 'I' for Inactive)
REMARK    1  A    between atoms: C_2  and  C_3
REMARK    2  A    between atoms: N_8  and  C_9
REMARK    3  A    between atoms: C_9  and  C_10
REMARK                            x       y       z     vdW  Elec       q    Type
REMARK                         _______ _______ _______ _____ _____    ______ ____
ROOT
ATOM      1  C   UNL     1       8.092  -0.824  23.871  0.00  0.00    +0.099 C 
ENDROOT
BRANCH   1   2
ATOM      2  C   UNL     1       7.788  -1.114  25.318  0.00  0.00    -0.003 A 
ATOM      3  C   UNL     1       8.580  -2.167  25.978  0.00  0.00    +0.038 A 
ATOM      4  C   UNL     1       8.464  -3.587  26.455  0.00  0.00    +0.180 A 
ATOM      5  O   UNL     1       9.257  -4.092  25.576  0.00  0.00    -0.444 OA
ATOM      6  C   UNL     1       8.571  -5.154  25.394  0.00  0.00    +0.220 C 
ATOM      7  C   UNL     1       7.274  -5.036  25.048  0.00  0.00    +0.220 C 
ATOM      8  O   UNL     1       6.549  -4.866  26.087  0.00  0.00    -0.444 OA
ATOM      9  C   UNL     1       7.081  -3.928  26.559  0.00  0.00    +0.180 A 
ATOM     10  C   UNL     1       6.076  -2.863  26.027  0.00  0.00    +0.040 A 
ATOM     11  C   UNL     1       6.201  -1.532  25.389  0.00  0.00    +0.000 A 
ENDBRANCH   1   2
BRANCH   1  17
ATOM     12  O   UNL     1       6.865   1.523  21.081  0.00  0.00    -0.273 OA
ATOM     13  C   UNL     1       7.576   0.672  20.581  0.00  0.00    +0.242 C 
ATOM     14  N   UNL     1       8.052  -0.343  21.386  0.00  0.00    -0.276 N 
ATOM     15  C   UNL     1       9.491  -0.378  21.585  0.00  0.00    +0.111 C 
ATOM     16  C   UNL     1       9.870  -1.493  22.531  0.00  0.00    +0.094 C 
ATOM     17  N   UNL     1       8.718  -1.938  23.272  0.00  0.00    -0.266 NA
ATOM     18  C   UNL     1       7.828  -2.574  22.345  0.00  0.00    +0.094 C 
ATOM     19  C   UNL     1       7.302  -1.588  21.333  0.00  0.00    +0.111 C 
BRANCH  13  20
ATOM     20  C   UNL     1       7.351   0.234  19.138  0.00  0.00    +0.180 C 
ATOM     21 CL   UNL     1       5.679   0.638  18.664  0.00  0.00    -0.103 Cl
ENDBRANCH  13  20
ENDBRANCH   1  17
TORSDOF 3
ENDMDL
MODEL 6
REMARK VINA RESULT:      -6.1      3.205      6.574
REMARK  Name = 
REMARK  3 active torsions:
REMARK  status: ('A' for Active; 'I' for Inactive)
REMARK    1  A    between atoms: C_2  and  C_3
REMARK    2  A    between atoms: N_8  and  C_9
REMARK    3  A    between atoms: C_9  and  C_10
REMARK                            x       y       z     vdW  Elec       q    Type
REMARK                         _______ _______ _______ _____ _____    ______ ____
ROOT
ATOM      1  C   UNL     1       9.389  -2.553  24.068  0.00  0.00    +0.099 C 
ENDROOT
BRANCH   1   2
ATOM      2  C   UNL     1       9.168  -3.932  24.633  0.00  0.00    -0.003 A 
ATOM      3  C   UNL     1       8.141  -4.770  23.989  0.00  0.00    +0.038 A 
ATOM      4  C   UNL     1       6.745  -5.280  24.211  0.00  0.00    +0.180 A 
ATOM      5  O   UNL     1       6.194  -4.582  23.280  0.00  0.00    -0.444 OA
ATOM      6  C   UNL     1       5.130  -4.327  23.938  0.00  0.00    +0.220 C 
ATOM      7  C   UNL     1       5.242  -3.746  25.150  0.00  0.00    +0.220 C 
ATOM      8  O   UNL     1       5.465  -4.628  26.048  0.00  0.00    -0.444 OA
ATOM      9  C   UNL     1       6.419  -5.147  25.596  0.00  0.00    +0.180 A 
ATOM     10  C   UNL     1       7.465  -4.396  26.472  0.00  0.00    +0.040 A 
ATOM     11  C   UNL     1       8.765  -3.734  26.212  0.00  0.00    +0.000 A 
ENDBRANCH   1   2
BRANCH   1  17
ATOM     12  O   UNL     1      11.268   0.676  24.982  0.00  0.00    -0.273 OA
ATOM     13  C   UNL     1      10.517   0.919  24.057  0.00  0.00    +0.242 C 
ATOM     14  N   UNL     1       9.664  -0.076  23.624  0.00  0.00    -0.276 N 
ATOM     15  C   UNL     1       9.893  -0.572  22.278  0.00  0.00    +0.111 C 
ATOM     16  C   UNL     1       8.936  -1.695  21.955  0.00  0.00    +0.094 C 
ATOM     17  N   UNL     1       8.357  -2.226  23.163  0.00  0.00    -0.266 NA
ATOM     18  C   UNL     1       7.508  -1.212  23.716  0.00  0.00    +0.094 C 
ATOM     19  C   UNL     1       8.308  -0.009  24.146  0.00  0.00    +0.111 C 
BRANCH  13  20
ATOM     20  C   UNL     1       9.937   2.319  23.885  0.00  0.00    +0.180 C 
ATOM     21 CL   UNL     1      11.235   3.421  23.352  0.00  0.00    -0.103 Cl
ENDBRANCH  13  20
ENDBRANCH   1  17
TORSDOF 3
ENDMDL
MODEL 7
REMARK VINA RESULT:      -6.1      2.903      6.464
REMARK  Name = 
REMARK  3 active torsions:
REMARK  status: ('A' for Active; 'I' for Inactive)
REMARK    1  A    between atoms: C_2  and  C_3
REMARK    2  A    between atoms: N_8  and  C_9
REMARK    3  A    between atoms: C_9  and  C_10
REMARK                            x       y       z     vdW  Elec       q    Type
REMARK                         _______ _______ _______ _____ _____    ______ ____
ROOT
ATOM      1  C   UNL     1       7.790  -1.923  24.622  0.00  0.00    +0.099 C 
ENDROOT
BRANCH   1   2
ATOM      2  C   UNL     1       6.796  -2.969  25.053  0.00  0.00    -0.003 A 
ATOM      3  C   UNL     1       7.076  -4.366  24.675  0.00  0.00    +0.038 A 
ATOM      4  C   UNL     1       6.627  -5.425  23.707  0.00  0.00    +0.180 A 
ATOM      5  O   UNL     1       7.706  -5.433  23.004  0.00  0.00    -0.444 OA
ATOM      6  C   UNL     1       7.113  -5.575  21.882  0.00  0.00    +0.220 C 
ATOM      7  C   UNL     1       6.164  -4.682  21.534  0.00  0.00    +0.220 C 
ATOM      8  O   UNL     1       5.041  -5.000  22.053  0.00  0.00    -0.444 OA
ATOM      9  C   UNL     1       5.348  -5.062  23.187  0.00  0.00    +0.180 A 
ATOM     10  C   UNL     1       4.820  -3.655  23.595  0.00  0.00    +0.040 A 
ATOM     11  C   UNL     1       5.349  -2.535  24.409  0.00  0.00    +0.000 A 
ENDBRANCH   1   2
BRANCH   1  17
ATOM     12  O   UNL     1       8.283   1.877  24.958  0.00  0.00    -0.273 OA
ATOM     13  C   UNL     1       9.050   1.465  24.108  0.00  0.00    +0.242 C 
ATOM     14  N   UNL     1       8.978   0.134  23.748  0.00  0.00    -0.276 N 
ATOM     15  C   UNL     1      10.140  -0.677  24.068  0.00  0.00    +0.111 C 
ATOM     16  C   UNL     1       9.907  -2.118  23.679  0.00  0.00    +0.094 C 
ATOM     17  N   UNL     1       8.501  -2.364  23.485  0.00  0.00    -0.266 NA
ATOM     18  C   UNL     1       8.090  -1.633  22.322  0.00  0.00    +0.094 C 
ATOM     19  C   UNL     1       8.212  -0.148  22.544  0.00  0.00    +0.111 C 
BRANCH  13  20
ATOM     20  C   UNL     1       9.486   2.371  22.962  0.00  0.00    +0.180 C 
ATOM     21 CL   UNL     1      11.021   3.166  23.405  0.00  0.00    -0.103 Cl
ENDBRANCH  13  20
ENDBRANCH   1  17
TORSDOF 3
ENDMDL
MODEL 8
REMARK VINA RESULT:      -6.0      3.576      6.365
REMARK  Name = 
REMARK  3 active torsions:
REMARK  status: ('A' for Active; 'I' for Inactive)
REMARK    1  A    between atoms: C_2  and  C_3
REMARK    2  A    between atoms: N_8  and  C_9
REMARK    3  A    between atoms: C_9  and  C_10
REMARK                            x       y       z     vdW  Elec       q    Type
REMARK                         _______ _______ _______ _____ _____    ______ ____
ROOT
ATOM      1  C   UNL     1       7.756  -3.481  23.380  0.00  0.00    +0.099 C 
ENDROOT
BRANCH   1   2
ATOM      2  C   UNL     1       7.834  -4.823  24.061  0.00  0.00    -0.003 A 
ATOM      3  C   UNL     1       6.582  -5.384  24.597  0.00  0.00    +0.038 A 
ATOM      4  C   UNL     1       5.870  -5.611  25.901  0.00  0.00    +0.180 A 
ATOM      5  O   UNL     1       4.935  -4.750  25.699  0.00  0.00    -0.444 OA
ATOM      6  C   UNL     1       4.899  -4.330  26.904  0.00  0.00    +0.220 C 
ATOM      7  C   UNL     1       6.037  -3.874  27.465  0.00  0.00    +0.220 C 
ATOM      8  O   UNL     1       6.725  -4.845  27.930  0.00  0.00    -0.444 OA
ATOM      9  C   UNL     1       6.816  -5.514  26.967  0.00  0.00    +0.180 A 
ATOM     10  C   UNL     1       8.250  -5.059  26.564  0.00  0.00    +0.040 A 
ATOM     11  C   UNL     1       8.904  -4.661  25.296  0.00  0.00    +0.000 A 
ENDBRANCH   1   2
BRANCH   1  17
ATOM     12  O   UNL     1       9.976  -0.915  21.571  0.00  0.00    -0.273 OA
ATOM     13  C   UNL     1       8.834  -0.497  21.575  0.00  0.00    +0.242 C 
ATOM     14  N   UNL     1       7.875  -1.213  22.262  0.00  0.00    -0.276 N 
ATOM     15  C   UNL     1       6.822  -1.806  21.456  0.00  0.00    +0.111 C 
ATOM     16  C   UNL     1       5.879  -2.610  22.320  0.00  0.00    +0.094 C 
ATOM     17  N   UNL     1       6.488  -2.900  23.593  0.00  0.00    -0.266 NA
ATOM     18  C   UNL     1       6.617  -1.661  24.302  0.00  0.00    +0.094 C 
ATOM     19  C   UNL     1       7.573  -0.731  23.601  0.00  0.00    +0.111 C 
BRANCH  13  20
ATOM     20  C   UNL     1       8.564   1.004  21.563  0.00  0.00    +0.180 C 
ATOM     21 CL   UNL     1      10.069   1.866  21.982  0.00  0.00    -0.103 Cl
ENDBRANCH  13  20
ENDBRANCH   1  17
TORSDOF 3
ENDMDL
MODEL 9
REMARK VINA RESULT:      -5.9      1.742      2.662
REMARK  Name = 
REMARK  3 active torsions:
REMARK  status: ('A' for Active; 'I' for Inactive)
REMARK    1  A    between atoms: C_2  and  C_3
REMARK    2  A    between atoms: N_8  and  C_9
REMARK    3  A    between atoms: C_9  and  C_10
REMARK                            x       y       z     vdW  Elec       q    Type
REMARK                         _______ _______ _______ _____ _____    ______ ____
ROOT
ATOM      1  C   UNL     1       8.406  -1.413  25.084  0.00  0.00    +0.099 C 
ENDROOT
BRANCH   1   2
ATOM      2  C   UNL     1       8.813   0.007  25.380  0.00  0.00    -0.003 A 
ATOM      3  C   UNL     1       8.113   1.078  24.648  0.00  0.00    +0.038 A 
ATOM      4  C   UNL     1       8.323   2.052  23.524  0.00  0.00    +0.180 A 
ATOM      5  O   UNL     1       7.501   1.496  22.705  0.00  0.00    -0.444 OA
ATOM      6  C   UNL     1       8.222   1.684  21.668  0.00  0.00    +0.220 C 
ATOM      7  C   UNL     1       9.488   1.223  21.668  0.00  0.00    +0.220 C 
ATOM      8  O   UNL     1      10.268   2.060  22.238  0.00  0.00    -0.444 OA
ATOM      9  C   UNL     1       9.724   2.175  23.275  0.00  0.00    +0.180 A 
ATOM     10  C   UNL     1      10.644   1.202  24.071  0.00  0.00    +0.040 A 
ATOM     11  C   UNL     1      10.418   0.114  25.051  0.00  0.00    +0.000 A 
ENDBRANCH   1   2
BRANCH   1  17
ATOM     12  O   UNL     1       7.622  -3.695  22.089  0.00  0.00    -0.273 OA
ATOM     13  C   UNL     1       7.399  -4.315  23.111  0.00  0.00    +0.242 C 
ATOM     14  N   UNL     1       7.518  -3.656  24.318  0.00  0.00    -0.276 N 
ATOM     15  C   UNL     1       8.576  -4.122  25.198  0.00  0.00    +0.111 C 
ATOM     16  C   UNL     1       8.635  -3.280  26.451  0.00  0.00    +0.094 C 
ATOM     17  N   UNL     1       7.930  -2.039  26.256  0.00  0.00    -0.266 NA
ATOM     18  C   UNL     1       6.537  -2.349  26.128  0.00  0.00    +0.094 C 
ATOM     19  C   UNL     1       6.273  -3.162  24.887  0.00  0.00    +0.111 C 
BRANCH  13  20
ATOM     20  C   UNL     1       6.339  -5.410  23.131  0.00  0.00    +0.180 C 
ATOM     21 CL   UNL     1       6.001  -5.919  21.454  0.00  0.00    -0.103 Cl
ENDBRANCH  13  20
ENDBRANCH   1  17
TORSDOF 3
ENDMDL
