MODEL 1
REMARK VINA RESULT:      -7.2      0.000      0.000
REMARK  Name = 
REMARK  4 active torsions:
REMARK  status: ('A' for Active; 'I' for Inactive)
REMARK    1  A    between atoms: C_2  and  C_4
REMARK    2  A    between atoms: C_8  and  S_9
REMARK    3  A    between atoms: S_9  and  N_12
REMARK    4  A    between atoms: C_16  and  C_18
REMARK                            x       y       z     vdW  Elec       q    Type
REMARK                         _______ _______ _______ _____ _____    ______ ____
ROOT
ATOM      1  S   UNL     1       9.356  -1.999  23.373  0.00  0.00    +0.063 S 
ATOM      2  O   UNL     1      10.309  -3.075  23.773  0.00  0.00    -0.153 OA
ATOM      3  O   UNL     1       8.668  -2.392  22.136  0.00  0.00    -0.153 OA
ENDROOT
BRANCH   1   4
ATOM      4  N   UNL     1       8.300  -1.849  24.549  0.00  0.00    -0.152 NA
ATOM      5  C   UNL     1       8.509  -2.623  25.690  0.00  0.00    +0.117 C 
ATOM      6  C   UNL     1       7.457  -3.724  25.844  0.00  0.00    +0.113 C 
ATOM      7  N   UNL     1       6.860  -3.912  24.499  0.00  0.00    -0.276 N 
ATOM      8  C   UNL     1       7.669  -4.491  23.561  0.00  0.00    +0.242 C 
ATOM      9  O   UNL     1       8.546  -5.270  23.909  0.00  0.00    -0.273 OA
ATOM     10  C   UNL     1       6.098  -2.723  24.032  0.00  0.00    +0.113 C 
ATOM     11  C   UNL     1       7.006  -1.514  24.244  0.00  0.00    +0.117 C 
BRANCH   8  12
ATOM     12  C   UNL     1       6.995  -4.697  22.209  0.00  0.00    +0.180 C 
ATOM     13 CL   UNL     1       6.711  -6.450  21.988  0.00  0.00    -0.103 Cl
ENDBRANCH   8  12
ENDBRANCH   1   4
BRANCH   1  16
ATOM     14  C   UNL     1       9.450   1.787  22.061  0.00  0.00    +0.036 A 
ATOM     15  C   UNL     1       9.687   0.325  22.177  0.00  0.00    +0.023 A 
ATOM     16  C   UNL     1      10.276  -0.548  23.057  0.00  0.00    +0.122 A 
ATOM     17  C   UNL     1      10.573   0.080  24.480  0.00  0.00    +0.020 A 
ATOM     18  C   UNL     1      10.504   1.603  24.378  0.00  0.00    +0.001 A 
ATOM     19  C   UNL     1       9.713   2.538  23.489  0.00  0.00    +0.003 A 
BRANCH  14  21
ATOM     20  C   UNL     1       7.720   0.888  20.693  0.00  0.00    +0.077 C 
ATOM     21  C   UNL     1       8.222   1.987  21.700  0.00  0.00    +0.174 C 
ATOM     22  O   UNL     1       7.491   3.013  21.701  0.00  0.00    -0.291 OA
ENDBRANCH  14  21
ENDBRANCH   1  16
TORSDOF 4
ENDMDL
MODEL 2
REMARK VINA RESULT:      -6.9      1.975      2.660
REMARK  Name = 
REMARK  4 active torsions:
REMARK  status: ('A' for Active; 'I' for Inactive)
REMARK    1  A    between atoms: C_2  and  C_4
REMARK    2  A    between atoms: C_8  and  S_9
REMARK    3  A    between atoms: S_9  and  N_12
REMARK    4  A    between atoms: C_16  and  C_18
REMARK                            x       y       z     vdW  Elec       q    Type
REMARK                         _______ _______ _______ _____ _____    ______ ____
ROOT
ATOM      1  S   UNL     1       8.977  -2.492  23.992  0.00  0.00    +0.063 S 
ATOM      2  O   UNL     1       8.662  -1.729  25.235  0.00  0.00    -0.153 OA
ATOM      3  O   UNL     1       9.792  -3.665  24.333  0.00  0.00    -0.153 OA
ENDROOT
BRANCH   1   4
ATOM      4  N   UNL     1       7.593  -2.964  23.370  0.00  0.00    -0.152 NA
ATOM      5  C   UNL     1       6.455  -2.247  23.740  0.00  0.00    +0.117 C 
ATOM      6  C   UNL     1       5.520  -3.065  24.632  0.00  0.00    +0.113 C 
ATOM      7  N   UNL     1       6.346  -4.159  25.201  0.00  0.00    -0.276 N 
ATOM      8  C   UNL     1       7.281  -3.783  26.125  0.00  0.00    +0.242 C 
ATOM      9  O   UNL     1       7.090  -2.794  26.819  0.00  0.00    -0.273 OA
ATOM     10  C   UNL     1       6.823  -5.120  24.171  0.00  0.00    +0.113 C 
ATOM     11  C   UNL     1       7.426  -4.285  23.043  0.00  0.00    +0.117 C 
BRANCH   8  12
ATOM     12  C   UNL     1       8.075  -4.948  26.706  0.00  0.00    +0.180 C 
ATOM     13 CL   UNL     1       7.009  -5.846  27.827  0.00  0.00    -0.103 Cl
ENDBRANCH   8  12
ENDBRANCH   1   4
BRANCH   1  16
ATOM     14  C   UNL     1       9.068   0.151  20.981  0.00  0.00    +0.036 A 
ATOM     15  C   UNL     1       9.266  -1.081  21.786  0.00  0.00    +0.023 A 
ATOM     16  C   UNL     1       9.909  -1.457  22.939  0.00  0.00    +0.122 A 
ATOM     17  C   UNL     1      10.366  -0.239  23.842  0.00  0.00    +0.020 A 
ATOM     18  C   UNL     1      10.339   1.039  23.008  0.00  0.00    +0.001 A 
ATOM     19  C   UNL     1       9.497   1.480  21.831  0.00  0.00    +0.003 A 
BRANCH  14  21
ATOM     20  C   UNL     1       7.605   0.098  19.103  0.00  0.00    +0.077 C 
ATOM     21  C   UNL     1       7.818   0.245  20.654  0.00  0.00    +0.174 C 
ATOM     22  O   UNL     1       6.823   0.754  21.234  0.00  0.00    -0.291 OA
ENDBRANCH  14  21
ENDBRANCH   1  16
TORSDOF 4
ENDMDL
MODEL 3
REMARK VINA RESULT:      -6.7      1.836      2.195
REMARK  Name = 
REMARK  4 active torsions:
REMARK  status: ('A' for Active; 'I' for Inactive)
REMARK    1  A    between atoms: C_2  and  C_4
REMARK    2  A    between atoms: C_8  and  S_9
REMARK    3  A    between atoms: S_9  and  N_12
REMARK    4  A    between atoms: C_16  and  C_18
REMARK                            x       y       z     vdW  Elec       q    Type
REMARK                         _______ _______ _______ _____ _____    ______ ____
ROOT
ATOM      1  S   UNL     1       8.271  -2.739  23.625  0.00  0.00    +0.063 S 
ATOM      2  O   UNL     1       7.976  -3.983  22.855  0.00  0.00    -0.153 OA
ATOM      3  O   UNL     1       7.040  -1.950  23.767  0.00  0.00    -0.153 OA
ENDROOT
BRANCH   1   4
ATOM      4  N   UNL     1       8.787  -3.188  25.059  0.00  0.00    -0.152 NA
ATOM      5  C   UNL     1       9.227  -4.506  25.189  0.00  0.00    +0.117 C 
ATOM      6  C   UNL     1       8.284  -5.348  26.050  0.00  0.00    +0.113 C 
ATOM      7  N   UNL     1       6.984  -4.632  26.059  0.00  0.00    -0.276 N 
ATOM      8  C   UNL     1       6.292  -4.636  24.880  0.00  0.00    +0.242 C 
ATOM      9  O   UNL     1       6.423  -5.568  24.099  0.00  0.00    -0.273 OA
ATOM     10  C   UNL     1       7.053  -3.317  26.749  0.00  0.00    +0.113 C 
ATOM     11  C   UNL     1       8.265  -2.586  26.174  0.00  0.00    +0.117 C 
BRANCH   8  12
ATOM     12  C   UNL     1       4.947  -3.920  24.954  0.00  0.00    +0.180 C 
ATOM     13 CL   UNL     1       4.061  -4.239  23.433  0.00  0.00    -0.103 Cl
ENDBRANCH   8  12
ENDBRANCH   1   4
BRANCH   1  16
ATOM     14  C   UNL     1       9.000   0.125  20.918  0.00  0.00    +0.036 A 
ATOM     15  C   UNL     1       8.926  -1.196  21.593  0.00  0.00    +0.023 A 
ATOM     16  C   UNL     1       9.430  -1.799  22.718  0.00  0.00    +0.122 A 
ATOM     17  C   UNL     1      10.059  -0.786  23.760  0.00  0.00    +0.020 A 
ATOM     18  C   UNL     1      10.310   0.552  23.067  0.00  0.00    +0.001 A 
ATOM     19  C   UNL     1       9.624   1.258  21.918  0.00  0.00    +0.003 A 
BRANCH  14  21
ATOM     20  C   UNL     1       7.512   0.141  19.059  0.00  0.00    +0.077 C 
ATOM     21  C   UNL     1       7.807   0.486  20.565  0.00  0.00    +0.174 C 
ATOM     22  O   UNL     1       6.997   1.326  21.038  0.00  0.00    -0.291 OA
ENDBRANCH  14  21
ENDBRANCH   1  16
TORSDOF 4
ENDMDL
MODEL 4
REMARK VINA RESULT:      -6.6      2.433      3.114
REMARK  Name = 
REMARK  4 active torsions:
REMARK  status: ('A' for Active; 'I' for Inactive)
REMARK    1  A    between atoms: C_2  and  C_4
REMARK    2  A    between atoms: C_8  and  S_9
REMARK    3  A    between atoms: S_9  and  N_12
REMARK    4  A    between atoms: C_16  and  C_18
REMARK                            x       y       z     vdW  Elec       q    Type
REMARK                         _______ _______ _______ _____ _____    ______ ____
ROOT
ATOM      1  S   UNL     1       8.354  -2.479  24.186  0.00  0.00    +0.063 S 
ATOM      2  O   UNL     1       7.059  -1.982  23.635  0.00  0.00    -0.153 OA
ATOM      3  O   UNL     1       8.420  -2.178  25.622  0.00  0.00    -0.153 OA
ENDROOT
BRANCH   1   4
ATOM      4  N   UNL     1       8.382  -4.051  23.966  0.00  0.00    -0.152 NA
ATOM      5  C   UNL     1       7.419  -4.589  23.112  0.00  0.00    +0.117 C 
ATOM      6  C   UNL     1       6.384  -5.429  23.863  0.00  0.00    +0.113 C 
ATOM      7  N   UNL     1       6.460  -5.003  25.283  0.00  0.00    -0.276 N 
ATOM      8  C   UNL     1       5.988  -3.749  25.556  0.00  0.00    +0.242 C 
ATOM      9  O   UNL     1       5.104  -3.266  24.863  0.00  0.00    -0.273 OA
ATOM     10  C   UNL     1       7.759  -5.344  25.920  0.00  0.00    +0.113 C 
ATOM     11  C   UNL     1       8.852  -4.856  24.972  0.00  0.00    +0.117 C 
BRANCH   8  12
ATOM     12  C   UNL     1       6.053  -3.376  27.034  0.00  0.00    +0.180 C 
ATOM     13 CL   UNL     1       5.420  -1.713  27.217  0.00  0.00    -0.103 Cl
ENDBRANCH   8  12
ENDBRANCH   1   4
BRANCH   1  16
ATOM     14  C   UNL     1       9.529   0.067  21.321  0.00  0.00    +0.036 A 
ATOM     15  C   UNL     1       9.341  -1.169  22.124  0.00  0.00    +0.023 A 
ATOM     16  C   UNL     1       9.649  -1.628  23.381  0.00  0.00    +0.122 A 
ATOM     17  C   UNL     1      10.095  -0.490  24.387  0.00  0.00    +0.020 A 
ATOM     18  C   UNL     1      10.461   0.763  23.593  0.00  0.00    +0.001 A 
ATOM     19  C   UNL     1       9.977   1.319  22.272  0.00  0.00    +0.003 A 
BRANCH  14  21
ATOM     20  C   UNL     1       7.343   0.909  21.751  0.00  0.00    +0.077 C 
ATOM     21  C   UNL     1       8.412   0.362  20.735  0.00  0.00    +0.174 C 
ATOM     22  O   UNL     1       7.901  -0.005  19.645  0.00  0.00    -0.291 OA
ENDBRANCH  14  21
ENDBRANCH   1  16
TORSDOF 4
ENDMDL
MODEL 5
REMARK VINA RESULT:      -6.5      1.845      2.314
REMARK  Name = 
REMARK  4 active torsions:
REMARK  status: ('A' for Active; 'I' for Inactive)
REMARK    1  A    between atoms: C_2  and  C_4
REMARK    2  A    between atoms: C_8  and  S_9
REMARK    3  A    between atoms: S_9  and  N_12
REMARK    4  A    between atoms: C_16  and  C_18
REMARK                            x       y       z     vdW  Elec       q    Type
REMARK                         _______ _______ _______ _____ _____    ______ ____
ROOT
ATOM      1  S   UNL     1       8.172  -2.047  23.041  0.00  0.00    +0.063 S 
ATOM      2  O   UNL     1       9.421  -2.863  23.028  0.00  0.00    -0.153 OA
ATOM      3  O   UNL     1       7.128  -2.742  22.277  0.00  0.00    -0.153 OA
ENDROOT
BRANCH   1   4
ATOM      4  N   UNL     1       7.722  -1.908  24.558  0.00  0.00    -0.152 NA
ATOM      5  C   UNL     1       8.630  -2.327  25.530  0.00  0.00    +0.117 C 
ATOM      6  C   UNL     1       8.165  -3.594  26.250  0.00  0.00    +0.113 C 
ATOM      7  N   UNL     1       7.157  -4.225  25.363  0.00  0.00    -0.276 N 
ATOM      8  C   UNL     1       7.638  -4.776  24.208  0.00  0.00    +0.242 C 
ATOM      9  O   UNL     1       8.781  -5.209  24.169  0.00  0.00    -0.273 OA
ATOM     10  C   UNL     1       5.927  -3.403  25.209  0.00  0.00    +0.113 C 
ATOM     11  C   UNL     1       6.388  -1.988  24.867  0.00  0.00    +0.117 C 
BRANCH   8  12
ATOM     12  C   UNL     1       6.568  -5.445  23.352  0.00  0.00    +0.180 C 
ATOM     13 CL   UNL     1       7.350  -6.077  21.873  0.00  0.00    -0.103 Cl
ENDBRANCH   8  12
ENDBRANCH   1   4
BRANCH   1  16
ATOM     14  C   UNL     1       7.396   0.534  20.075  0.00  0.00    +0.036 A 
ATOM     15  C   UNL     1       8.090  -0.441  20.955  0.00  0.00    +0.023 A 
ATOM     16  C   UNL     1       8.509  -0.523  22.260  0.00  0.00    +0.122 A 
ATOM     17  C   UNL     1       7.881   0.583  23.204  0.00  0.00    +0.020 A 
ATOM     18  C   UNL     1       7.294   1.700  22.344  0.00  0.00    +0.001 A 
ATOM     19  C   UNL     1       6.692   1.718  20.956  0.00  0.00    +0.003 A 
BRANCH  14  21
ATOM     20  C   UNL     1       5.742   0.874  18.396  0.00  0.00    +0.077 C 
ATOM     21  C   UNL     1       6.483  -0.086  19.398  0.00  0.00    +0.174 C 
ATOM     22  O   UNL     1       5.848  -1.154  19.603  0.00  0.00    -0.291 OA
ENDBRANCH  14  21
ENDBRANCH   1  16
TORSDOF 4
ENDMDL
MODEL 6
REMARK VINA RESULT:      -6.4      1.715      2.172
REMARK  Name = 
REMARK  4 active torsions:
REMARK  status: ('A' for Active; 'I' for Inactive)
REMARK    1  A    between atoms: C_2  and  C_4
REMARK    2  A    between atoms: C_8  and  S_9
REMARK    3  A    between atoms: S_9  and  N_12
REMARK    4  A    between atoms: C_16  and  C_18
REMARK                            x       y       z     vdW  Elec       q    Type
REMARK                         _______ _______ _______ _____ _____    ______ ____
ROOT
ATOM      1  S   UNL     1       8.965  -2.133  24.523  0.00  0.00    +0.063 S 
ATOM      2  O   UNL     1       9.739  -0.975  25.058  0.00  0.00    -0.153 OA
ATOM      3  O   UNL     1       9.895  -3.196  24.119  0.00  0.00    -0.153 OA
ENDROOT
BRANCH   1   4
ATOM      4  N   UNL     1       8.033  -2.655  25.698  0.00  0.00    -0.152 NA
ATOM      5  C   UNL     1       8.521  -3.708  26.473  0.00  0.00    +0.117 C 
ATOM      6  C   UNL     1       7.746  -5.006  26.240  0.00  0.00    +0.113 C 
ATOM      7  N   UNL     1       7.060  -4.847  24.934  0.00  0.00    -0.276 N 
ATOM      8  C   UNL     1       7.867  -4.855  23.830  0.00  0.00    +0.242 C 
ATOM      9  O   UNL     1       8.919  -5.478  23.848  0.00  0.00    -0.273 OA
ATOM     10  C   UNL     1       6.021  -3.783  24.952  0.00  0.00    +0.113 C 
ATOM     11  C   UNL     1       6.673  -2.547  25.569  0.00  0.00    +0.117 C 
BRANCH   8  12
ATOM     12  C   UNL     1       7.109  -4.727  22.513  0.00  0.00    +0.180 C 
ATOM     13 CL   UNL     1       6.669  -6.370  21.960  0.00  0.00    -0.103 Cl
ENDBRANCH   8  12
ENDBRANCH   1   4
BRANCH   1  16
ATOM     14  C   UNL     1       7.352   0.877  22.425  0.00  0.00    +0.036 A 
ATOM     15  C   UNL     1       7.504  -0.360  23.233  0.00  0.00    +0.023 A 
ATOM     16  C   UNL     1       8.089  -1.596  23.111  0.00  0.00    +0.122 A 
ATOM     17  C   UNL     1       9.118  -1.702  21.912  0.00  0.00    +0.020 A 
ATOM     18  C   UNL     1       8.890  -0.533  20.955  0.00  0.00    +0.001 A 
ATOM     19  C   UNL     1       8.387   0.879  21.159  0.00  0.00    +0.003 A 
BRANCH  14  21
ATOM     20  C   UNL     1       7.263   3.256  22.445  0.00  0.00    +0.077 C 
ATOM     21  C   UNL     1       7.599   1.903  23.174  0.00  0.00    +0.174 C 
ATOM     22  O   UNL     1       8.344   2.065  24.177  0.00  0.00    -0.291 OA
ENDBRANCH  14  21
ENDBRANCH   1  16
TORSDOF 4
ENDMDL
MODEL 7
REMARK VINA RESULT:      -6.4      1.886      2.825
REMARK  Name = 
REMARK  4 active torsions:
REMARK  status: ('A' for Active; 'I' for Inactive)
REMARK    1  A    between atoms: C_2  and  C_4
REMARK    2  A    between atoms: C_8  and  S_9
REMARK    3  A    between atoms: S_9  and  N_12
REMARK    4  A    between atoms: C_16  and  C_18
REMARK                            x       y       z     vdW  Elec       q    Type
REMARK                         _______ _______ _______ _____ _____    ______ ____
ROOT
ATOM      1  S   UNL     1       7.165  -2.179  23.432  0.00  0.00    +0.063 S 
ATOM      2  O   UNL     1       7.579  -3.127  22.357  0.00  0.00    -0.153 OA
ATOM      3  O   UNL     1       5.825  -2.543  23.912  0.00  0.00    -0.153 OA
ENDROOT
BRANCH   1   4
ATOM      4  N   UNL     1       8.215  -2.327  24.614  0.00  0.00    -0.152 NA
ATOM      5  C   UNL     1       9.409  -2.987  24.323  0.00  0.00    +0.117 C 
ATOM      6  C   UNL     1       9.505  -4.345  25.021  0.00  0.00    +0.113 C 
ATOM      7  N   UNL     1       8.115  -4.722  25.380  0.00  0.00    -0.276 N 
ATOM      8  C   UNL     1       7.297  -5.053  24.336  0.00  0.00    +0.242 C 
ATOM      9  O   UNL     1       7.773  -5.535  23.317  0.00  0.00    -0.273 OA
ATOM     10  C   UNL     1       7.513  -3.816  26.394  0.00  0.00    +0.113 C 
ATOM     11  C   UNL     1       7.760  -2.390  25.906  0.00  0.00    +0.117 C 
BRANCH   8  12
ATOM     12  C   UNL     1       5.893  -5.470  24.762  0.00  0.00    +0.180 C 
ATOM     13 CL   UNL     1       5.065  -6.174  23.341  0.00  0.00    -0.103 Cl
ENDBRANCH   8  12
ENDBRANCH   1   4
BRANCH   1  16
ATOM     14  C   UNL     1       8.657   1.535  23.222  0.00  0.00    +0.036 A 
ATOM     15  C   UNL     1       7.743   0.391  23.472  0.00  0.00    +0.023 A 
ATOM     16  C   UNL     1       7.092  -0.576  22.746  0.00  0.00    +0.122 A 
ATOM     17  C   UNL     1       7.623  -0.727  21.262  0.00  0.00    +0.020 A 
ATOM     18  C   UNL     1       8.439   0.510  20.895  0.00  0.00    +0.001 A 
ATOM     19  C   UNL     1       9.280   1.466  21.713  0.00  0.00    +0.003 A 
BRANCH  14  21
ATOM     20  C   UNL     1      10.771   2.510  23.719  0.00  0.00    +0.077 C 
ATOM     21  C   UNL     1       9.625   1.495  24.081  0.00  0.00    +0.174 C 
ATOM     22  O   UNL     1       9.997   0.618  24.905  0.00  0.00    -0.291 OA
ENDBRANCH  14  21
ENDBRANCH   1  16
TORSDOF 4
ENDMDL
MODEL 8
REMARK VINA RESULT:      -6.2      2.974      6.171
REMARK  Name = 
REMARK  4 active torsions:
REMARK  status: ('A' for Active; 'I' for Inactive)
REMARK    1  A    between atoms: C_2  and  C_4
REMARK    2  A    between atoms: C_8  and  S_9
REMARK    3  A    between atoms: S_9  and  N_12
REMARK    4  A    between atoms: C_16  and  C_18
REMARK                            x       y       z     vdW  Elec       q    Type
REMARK                         _______ _______ _______ _____ _____    ______ ____
ROOT
ATOM      1  S   UNL     1       7.062  -2.001  23.676  0.00  0.00    +0.063 S 
ATOM      2  O   UNL     1       8.202  -2.864  23.248  0.00  0.00    -0.153 OA
ATOM      3  O   UNL     1       7.338  -1.456  25.011  0.00  0.00    -0.153 OA
ENDROOT
BRANCH   1   4
ATOM      4  N   UNL     1       6.955  -0.815  22.625  0.00  0.00    -0.152 NA
ATOM      5  C   UNL     1       7.601  -0.992  21.402  0.00  0.00    +0.117 C 
ATOM      6  C   UNL     1       8.812  -0.069  21.247  0.00  0.00    +0.113 C 
ATOM      7  N   UNL     1       9.184   0.354  22.620  0.00  0.00    -0.276 N 
ATOM      8  C   UNL     1       9.727  -0.614  23.418  0.00  0.00    +0.242 C 
ATOM      9  O   UNL     1      10.356  -1.536  22.916  0.00  0.00    -0.273 OA
ATOM     10  C   UNL     1       8.144   1.198  23.266  0.00  0.00    +0.113 C 
ATOM     11  C   UNL     1       6.814   0.470  23.082  0.00  0.00    +0.117 C 
BRANCH   8  12
ATOM     12  C   UNL     1      10.127  -0.118  24.803  0.00  0.00    +0.180 C 
ATOM     13 CL   UNL     1      11.580   0.912  24.629  0.00  0.00    -0.103 Cl
ENDBRANCH   8  12
ENDBRANCH   1   4
BRANCH   1  16
ATOM     14  C   UNL     1       5.055  -5.248  22.453  0.00  0.00    +0.036 A 
ATOM     15  C   UNL     1       5.443  -3.835  22.697  0.00  0.00    +0.023 A 
ATOM     16  C   UNL     1       5.631  -2.997  23.768  0.00  0.00    +0.122 A 
ATOM     17  C   UNL     1       5.728  -3.747  25.159  0.00  0.00    +0.020 A 
ATOM     18  C   UNL     1       5.183  -5.165  25.001  0.00  0.00    +0.001 A 
ATOM     19  C   UNL     1       5.138  -6.124  23.831  0.00  0.00    +0.003 A 
BRANCH  14  21
ATOM     20  C   UNL     1       7.264  -6.102  22.203  0.00  0.00    +0.077 C 
ATOM     21  C   UNL     1       5.861  -5.761  21.578  0.00  0.00    +0.174 C 
ATOM     22  O   UNL     1       5.887  -5.723  20.320  0.00  0.00    -0.291 OA
ENDBRANCH  14  21
ENDBRANCH   1  16
TORSDOF 4
ENDMDL
MODEL 9
REMARK VINA RESULT:      -6.2      2.416      3.262
REMARK  Name = 
REMARK  4 active torsions:
REMARK  status: ('A' for Active; 'I' for Inactive)
REMARK    1  A    between atoms: C_2  and  C_4
REMARK    2  A    between atoms: C_8  and  S_9
REMARK    3  A    between atoms: S_9  and  N_12
REMARK    4  A    between atoms: C_16  and  C_18
REMARK                            x       y       z     vdW  Elec       q    Type
REMARK                         _______ _______ _______ _____ _____    ______ ____
ROOT
ATOM      1  S   UNL     1       7.026  -2.684  22.416  0.00  0.00    +0.063 S 
ATOM      2  O   UNL     1       5.800  -2.819  21.577  0.00  0.00    -0.153 OA
ATOM      3  O   UNL     1       6.676  -2.045  23.691  0.00  0.00    -0.153 OA
ENDROOT
BRANCH   1   4
ATOM      4  N   UNL     1       7.571  -4.152  22.685  0.00  0.00    -0.152 NA
ATOM      5  C   UNL     1       7.068  -5.173  21.879  0.00  0.00    +0.117 C 
ATOM      6  C   UNL     1       6.166  -6.133  22.656  0.00  0.00    +0.113 C 
ATOM      7  N   UNL     1       5.738  -5.401  23.873  0.00  0.00    -0.276 N 
ATOM      8  C   UNL     1       4.864  -4.368  23.674  0.00  0.00    +0.242 C 
ATOM      9  O   UNL     1       4.091  -4.397  22.726  0.00  0.00    -0.273 OA
ATOM     10  C   UNL     1       6.865  -5.108  24.798  0.00  0.00    +0.113 C 
ATOM     11  C   UNL     1       7.975  -4.491  23.951  0.00  0.00    +0.117 C 
BRANCH   8  12
ATOM     12  C   UNL     1       4.426  -3.675  24.960  0.00  0.00    +0.180 C 
ATOM     13 CL   UNL     1       3.341  -4.784  25.850  0.00  0.00    -0.103 Cl
ENDBRANCH   8  12
ENDBRANCH   1   4
BRANCH   1  16
ATOM     14  C   UNL     1       7.791   0.810  20.608  0.00  0.00    +0.036 A 
ATOM     15  C   UNL     1       7.576  -0.640  20.848  0.00  0.00    +0.023 A 
ATOM     16  C   UNL     1       8.154  -1.654  21.570  0.00  0.00    +0.122 A 
ATOM     17  C   UNL     1       9.175  -1.153  22.672  0.00  0.00    +0.020 A 
ATOM     18  C   UNL     1       9.560   0.294  22.374  0.00  0.00    +0.001 A 
ATOM     19  C   UNL     1       8.824   1.437  21.708  0.00  0.00    +0.003 A 
BRANCH  14  21
ATOM     20  C   UNL     1       5.746   1.164  19.441  0.00  0.00    +0.077 C 
ATOM     21  C   UNL     1       6.655   1.425  20.698  0.00  0.00    +0.174 C 
ATOM     22  O   UNL     1       6.276   2.419  21.372  0.00  0.00    -0.291 OA
ENDBRANCH  14  21
ENDBRANCH   1  16
TORSDOF 4
ENDMDL
