MODEL 1
REMARK VINA RESULT:      -6.9      0.000      0.000
REMARK  Name = 
REMARK  5 active torsions:
REMARK  status: ('A' for Active; 'I' for Inactive)
REMARK    1  A    between atoms: O_2  and  C_3
REMARK    2  A    between atoms: C_6  and  S_7
REMARK    3  A    between atoms: S_7  and  N_10
REMARK    4  A    between atoms: C_14  and  C_16
REMARK    5  A    between atoms: C_21  and  O_22
REMARK                            x       y       z     vdW  Elec       q    Type
REMARK                         _______ _______ _______ _____ _____    ______ ____
ROOT
ATOM      1  S   UNL     1       9.446  -2.193  23.607  0.00  0.00    +0.063 S 
ATOM      2  O   UNL     1      10.547  -2.311  22.678  0.00  0.00    -0.153 OA
ATOM      3  O   UNL     1       9.765  -1.480  24.828  0.00  0.00    -0.153 OA
ENDROOT
BRANCH   1   4
ATOM      4  N   UNL     1       8.940  -3.691  24.004  0.00  0.00    -0.152 NA
ATOM      5  C   UNL     1       7.640  -3.998  23.733  0.00  0.00    +0.117 C 
ATOM      6  C   UNL     1       6.811  -4.769  24.683  0.00  0.00    +0.113 C 
ATOM      7  N   UNL     1       7.418  -5.047  25.951  0.00  0.00    -0.276 N 
ATOM      8  C   UNL     1       6.658  -5.581  26.944  0.00  0.00    +0.242 C 
ATOM      9  O   UNL     1       6.910  -5.386  28.111  0.00  0.00    -0.273 OA
ATOM     10  C   UNL     1       8.715  -4.486  26.293  0.00  0.00    +0.113 C 
ATOM     11  C   UNL     1       9.557  -4.290  25.065  0.00  0.00    +0.117 C 
BRANCH   8  12
ATOM     12  C   UNL     1       5.437  -6.356  26.510  0.00  0.00    +0.180 C 
ATOM     13 CL   UNL     1       3.962  -5.447  26.935  0.00  0.00    -0.103 Cl
ENDBRANCH   8  12
ENDBRANCH   1   4
BRANCH   1  17
ATOM     14  C   UNL     1       9.001   1.677  22.029  0.00  0.00    +0.172 A 
ATOM     15  C   UNL     1       8.544   0.612  21.118  0.00  0.00    +0.174 A 
ATOM     16  C   UNL     1       8.521  -0.951  21.356  0.00  0.00    +0.060 A 
ATOM     17  C   UNL     1       8.120  -1.259  22.810  0.00  0.00    +0.125 A 
ATOM     18  C   UNL     1       7.993  -0.039  23.620  0.00  0.00    +0.023 A 
ATOM     19  C   UNL     1       8.583   1.340  23.622  0.00  0.00    +0.041 A 
BRANCH  14  21
ATOM     20  C   UNL     1      10.631   2.823  23.307  0.00  0.00    +0.253 C 
ATOM     21  O   UNL     1      10.333   2.119  22.109  0.00  0.00    -0.468 OA
ENDBRANCH  14  21
BRANCH  15  22
ATOM     22  O   UNL     1       7.552   0.880  20.146  0.00  0.00    -0.468 OA
ATOM     23  C   UNL     1       7.552   0.049  19.021  0.00  0.00    +0.253 C 
ENDBRANCH  15  22
ENDBRANCH   1  17
TORSDOF 5
ENDMDL
MODEL 2
REMARK VINA RESULT:      -6.7      3.353      7.008
REMARK  Name = 
REMARK  5 active torsions:
REMARK  status: ('A' for Active; 'I' for Inactive)
REMARK    1  A    between atoms: O_2  and  C_3
REMARK    2  A    between atoms: C_6  and  S_7
REMARK    3  A    between atoms: S_7  and  N_10
REMARK    4  A    between atoms: C_14  and  C_16
REMARK    5  A    between atoms: C_21  and  O_22
REMARK                            x       y       z     vdW  Elec       q    Type
REMARK                         _______ _______ _______ _____ _____    ______ ____
ROOT
ATOM      1  S   UNL     1       8.744  -1.132  24.425  0.00  0.00    +0.063 S 
ATOM      2  O   UNL     1       7.580  -1.279  25.269  0.00  0.00    -0.153 OA
ATOM      3  O   UNL     1       9.959  -0.782  25.136  0.00  0.00    -0.153 OA
ENDROOT
BRANCH   1   4
ATOM      4  N   UNL     1       8.442   0.027  23.321  0.00  0.00    -0.152 NA
ATOM      5  C   UNL     1       7.136   0.282  23.030  0.00  0.00    +0.117 C 
ATOM      6  C   UNL     1       6.683   0.526  21.645  0.00  0.00    +0.113 C 
ATOM      7  N   UNL     1       7.674   0.343  20.627  0.00  0.00    -0.276 N 
ATOM      8  C   UNL     1       7.293   0.362  19.323  0.00  0.00    +0.242 C 
ATOM      9  O   UNL     1       7.901  -0.250  18.474  0.00  0.00    -0.273 OA
ATOM     10  C   UNL     1       8.994  -0.171  20.958  0.00  0.00    +0.113 C 
ATOM     11  C   UNL     1       9.388   0.220  22.354  0.00  0.00    +0.117 C 
BRANCH   8  12
ATOM     12  C   UNL     1       6.023   1.116  19.006  0.00  0.00    +0.180 C 
ATOM     13 CL   UNL     1       5.987   1.536  17.272  0.00  0.00    -0.103 Cl
ENDBRANCH   8  12
ENDBRANCH   1   4
BRANCH   1  17
ATOM     14  C   UNL     1       7.647  -5.138  25.070  0.00  0.00    +0.172 A 
ATOM     15  C   UNL     1       7.442  -4.686  23.683  0.00  0.00    +0.174 A 
ATOM     16  C   UNL     1       7.757  -3.274  23.045  0.00  0.00    +0.060 A 
ATOM     17  C   UNL     1       9.072  -2.716  23.618  0.00  0.00    +0.125 A 
ATOM     18  C   UNL     1       9.616  -3.567  24.687  0.00  0.00    +0.023 A 
ATOM     19  C   UNL     1       9.073  -4.519  25.711  0.00  0.00    +0.041 A 
BRANCH  14  21
ATOM     20  C   UNL     1       5.736  -6.001  26.170  0.00  0.00    +0.253 C 
ATOM     21  O   UNL     1       6.704  -4.962  26.097  0.00  0.00    -0.468 OA
ENDBRANCH  14  21
BRANCH  15  22
ATOM     22  O   UNL     1       7.465  -5.616  22.617  0.00  0.00    -0.468 OA
ATOM     23  C   UNL     1       6.690  -5.293  21.500  0.00  0.00    +0.253 C 
ENDBRANCH  15  22
ENDBRANCH   1  17
TORSDOF 5
ENDMDL
MODEL 3
REMARK VINA RESULT:      -6.6      2.608      3.666
REMARK  Name = 
REMARK  5 active torsions:
REMARK  status: ('A' for Active; 'I' for Inactive)
REMARK    1  A    between atoms: O_2  and  C_3
REMARK    2  A    between atoms: C_6  and  S_7
REMARK    3  A    between atoms: S_7  and  N_10
REMARK    4  A    between atoms: C_14  and  C_16
REMARK    5  A    between atoms: C_21  and  O_22
REMARK                            x       y       z     vdW  Elec       q    Type
REMARK                         _______ _______ _______ _____ _____    ______ ____
ROOT
ATOM      1  S   UNL     1       9.202   0.460  24.915  0.00  0.00    +0.063 S 
ATOM      2  O   UNL     1      10.610   0.406  25.239  0.00  0.00    -0.153 OA
ATOM      3  O   UNL     1       8.319   0.332  26.058  0.00  0.00    -0.153 OA
ENDROOT
BRANCH   1   4
ATOM      4  N   UNL     1       8.864  -0.741  23.867  0.00  0.00    -0.152 NA
ATOM      5  C   UNL     1       7.585  -1.211  23.854  0.00  0.00    +0.117 C 
ATOM      6  C   UNL     1       7.290  -2.655  23.743  0.00  0.00    +0.113 C 
ATOM      7  N   UNL     1       8.427  -3.525  23.790  0.00  0.00    -0.276 N 
ATOM      8  C   UNL     1       8.229  -4.866  23.887  0.00  0.00    +0.242 C 
ATOM      9  O   UNL     1       9.039  -5.592  24.416  0.00  0.00    -0.273 OA
ATOM     10  C   UNL     1       9.756  -2.998  24.056  0.00  0.00    +0.113 C 
ATOM     11  C   UNL     1       9.887  -1.590  23.550  0.00  0.00    +0.117 C 
BRANCH   8  12
ATOM     12  C   UNL     1       6.906  -5.386  23.376  0.00  0.00    +0.180 C 
ATOM     13 CL   UNL     1       7.053  -5.818  21.650  0.00  0.00    -0.103 Cl
ENDBRANCH   8  12
ENDBRANCH   1   4
BRANCH   1  17
ATOM     14  C   UNL     1       7.413   1.835  21.369  0.00  0.00    +0.172 A 
ATOM     15  C   UNL     1       6.887   2.481  22.584  0.00  0.00    +0.174 A 
ATOM     16  C   UNL     1       7.319   2.260  24.089  0.00  0.00    +0.060 A 
ATOM     17  C   UNL     1       8.844   2.072  24.180  0.00  0.00    +0.125 A 
ATOM     18  C   UNL     1       9.476   2.018  22.853  0.00  0.00    +0.023 A 
ATOM     19  C   UNL     1       9.077   1.609  21.467  0.00  0.00    +0.041 A 
BRANCH  14  21
ATOM     20  C   UNL     1       7.472   0.271  19.592  0.00  0.00    +0.253 C 
ATOM     21  O   UNL     1       6.931   0.617  20.860  0.00  0.00    -0.468 OA
ENDBRANCH  14  21
BRANCH  15  22
ATOM     22  O   UNL     1       6.331   3.780  22.519  0.00  0.00    -0.468 OA
ATOM     23  C   UNL     1       7.219   4.817  22.217  0.00  0.00    +0.253 C 
ENDBRANCH  15  22
ENDBRANCH   1  17
TORSDOF 5
ENDMDL
MODEL 4
REMARK VINA RESULT:      -6.5      3.150      7.415
REMARK  Name = 
REMARK  5 active torsions:
REMARK  status: ('A' for Active; 'I' for Inactive)
REMARK    1  A    between atoms: O_2  and  C_3
REMARK    2  A    between atoms: C_6  and  S_7
REMARK    3  A    between atoms: S_7  and  N_10
REMARK    4  A    between atoms: C_14  and  C_16
REMARK    5  A    between atoms: C_21  and  O_22
REMARK                            x       y       z     vdW  Elec       q    Type
REMARK                         _______ _______ _______ _____ _____    ______ ____
ROOT
ATOM      1  S   UNL     1       8.725  -3.162  23.882  0.00  0.00    +0.063 S 
ATOM      2  O   UNL     1      10.146  -2.906  23.801  0.00  0.00    -0.153 OA
ATOM      3  O   UNL     1       8.295  -4.373  23.212  0.00  0.00    -0.153 OA
ENDROOT
BRANCH   1   4
ATOM      4  N   UNL     1       7.932  -1.899  23.224  0.00  0.00    -0.152 NA
ATOM      5  C   UNL     1       6.736  -2.162  22.627  0.00  0.00    +0.117 C 
ATOM      6  C   UNL     1       6.349  -1.526  21.350  0.00  0.00    +0.113 C 
ATOM      7  N   UNL     1       7.363  -0.731  20.723  0.00  0.00    -0.276 N 
ATOM      8  C   UNL     1       7.153  -0.271  19.461  0.00  0.00    +0.242 C 
ATOM      9  O   UNL     1       8.072  -0.054  18.703  0.00  0.00    -0.273 OA
ATOM     10  C   UNL     1       8.710  -0.678  21.267  0.00  0.00    +0.113 C 
ATOM     11  C   UNL     1       8.694  -0.866  22.758  0.00  0.00    +0.117 C 
BRANCH   8  12
ATOM     12  C   UNL     1       5.713  -0.127  19.030  0.00  0.00    +0.180 C 
ATOM     13 CL   UNL     1       5.535   1.311  17.988  0.00  0.00    -0.103 Cl
ENDBRANCH   8  12
ENDBRANCH   1   4
BRANCH   1  17
ATOM     14  C   UNL     1       5.867  -5.369  26.033  0.00  0.00    +0.172 A 
ATOM     15  C   UNL     1       7.236  -5.500  26.563  0.00  0.00    +0.174 A 
ATOM     16  C   UNL     1       8.565  -4.811  26.054  0.00  0.00    +0.060 A 
ATOM     17  C   UNL     1       8.278  -3.363  25.622  0.00  0.00    +0.125 A 
ATOM     18  C   UNL     1       6.843  -3.043  25.671  0.00  0.00    +0.023 A 
ATOM     19  C   UNL     1       5.551  -3.792  25.541  0.00  0.00    +0.041 A 
BRANCH  14  21
ATOM     20  C   UNL     1       5.095  -5.442  23.796  0.00  0.00    +0.253 C 
ATOM     21  O   UNL     1       5.351  -6.163  24.994  0.00  0.00    -0.468 OA
ENDBRANCH  14  21
BRANCH  15  22
ATOM     22  O   UNL     1       7.447  -5.810  27.928  0.00  0.00    -0.468 OA
ATOM     23  C   UNL     1       6.314  -6.185  28.656  0.00  0.00    +0.253 C 
ENDBRANCH  15  22
ENDBRANCH   1  17
TORSDOF 5
ENDMDL
MODEL 5
REMARK VINA RESULT:      -6.3      3.207      7.657
REMARK  Name = 
REMARK  5 active torsions:
REMARK  status: ('A' for Active; 'I' for Inactive)
REMARK    1  A    between atoms: O_2  and  C_3
REMARK    2  A    between atoms: C_6  and  S_7
REMARK    3  A    between atoms: S_7  and  N_10
REMARK    4  A    between atoms: C_14  and  C_16
REMARK    5  A    between atoms: C_21  and  O_22
REMARK                            x       y       z     vdW  Elec       q    Type
REMARK                         _______ _______ _______ _____ _____    ______ ____
ROOT
ATOM      1  S   UNL     1       8.263  -4.716  24.345  0.00  0.00    +0.063 S 
ATOM      2  O   UNL     1       9.390  -5.576  24.625  0.00  0.00    -0.153 OA
ATOM      3  O   UNL     1       7.187  -5.358  23.615  0.00  0.00    -0.153 OA
ENDROOT
BRANCH   1   4
ATOM      4  N   UNL     1       8.786  -3.442  23.473  0.00  0.00    -0.152 NA
ATOM      5  C   UNL     1       9.676  -2.603  24.074  0.00  0.00    +0.117 C 
ATOM      6  C   UNL     1       9.582  -1.136  23.924  0.00  0.00    +0.113 C 
ATOM      7  N   UNL     1       8.426  -0.657  23.228  0.00  0.00    -0.276 N 
ATOM      8  C   UNL     1       8.168   0.678  23.214  0.00  0.00    +0.242 C 
ATOM      9  O   UNL     1       7.042   1.106  23.115  0.00  0.00    -0.273 OA
ATOM     10  C   UNL     1       7.372  -1.572  22.819  0.00  0.00    +0.113 C 
ATOM     11  C   UNL     1       7.927  -2.939  22.538  0.00  0.00    +0.117 C 
BRANCH   8  12
ATOM     12  C   UNL     1       9.354   1.591  23.416  0.00  0.00    +0.180 C 
ATOM     13 CL   UNL     1      10.162   1.886  21.852  0.00  0.00    -0.103 Cl
ENDBRANCH   8  12
ENDBRANCH   1   4
BRANCH   1  17
ATOM     14  C   UNL     1       5.121  -5.969  26.839  0.00  0.00    +0.172 A 
ATOM     15  C   UNL     1       6.391  -5.753  27.554  0.00  0.00    +0.174 A 
ATOM     16  C   UNL     1       7.779  -5.259  26.978  0.00  0.00    +0.060 A 
ATOM     17  C   UNL     1       7.553  -4.170  25.914  0.00  0.00    +0.125 A 
ATOM     18  C   UNL     1       6.126  -3.969  25.621  0.00  0.00    +0.023 A 
ATOM     19  C   UNL     1       4.874  -4.794  25.662  0.00  0.00    +0.041 A 
BRANCH  14  21
ATOM     20  C   UNL     1       4.188  -6.993  24.919  0.00  0.00    +0.253 C 
ATOM     21  O   UNL     1       4.778  -7.173  26.200  0.00  0.00    -0.468 OA
ENDBRANCH  14  21
BRANCH  15  22
ATOM     22  O   UNL     1       6.391  -5.419  28.928  0.00  0.00    -0.468 OA
ATOM     23  C   UNL     1       5.882  -6.390  29.797  0.00  0.00    +0.253 C 
ENDBRANCH  15  22
ENDBRANCH   1  17
TORSDOF 5
ENDMDL
MODEL 6
REMARK VINA RESULT:      -6.3      3.759      7.328
REMARK  Name = 
REMARK  5 active torsions:
REMARK  status: ('A' for Active; 'I' for Inactive)
REMARK    1  A    between atoms: O_2  and  C_3
REMARK    2  A    between atoms: C_6  and  S_7
REMARK    3  A    between atoms: S_7  and  N_10
REMARK    4  A    between atoms: C_14  and  C_16
REMARK    5  A    between atoms: C_21  and  O_22
REMARK                            x       y       z     vdW  Elec       q    Type
REMARK                         _______ _______ _______ _____ _____    ______ ____
ROOT
ATOM      1  S   UNL     1       9.594  -1.208  22.510  0.00  0.00    +0.063 S 
ATOM      2  O   UNL     1      10.812  -1.971  22.361  0.00  0.00    -0.153 OA
ATOM      3  O   UNL     1       8.711  -1.258  21.361  0.00  0.00    -0.153 OA
ENDROOT
BRANCH   1   4
ATOM      4  N   UNL     1       9.986   0.348  22.789  0.00  0.00    -0.152 NA
ATOM      5  C   UNL     1       9.981   0.767  24.086  0.00  0.00    +0.117 C 
ATOM      6  C   UNL     1       9.440   2.087  24.473  0.00  0.00    +0.113 C 
ATOM      7  N   UNL     1       8.805   2.827  23.425  0.00  0.00    -0.276 N 
ATOM      8  C   UNL     1       8.118   3.958  23.738  0.00  0.00    +0.242 C 
ATOM      9  O   UNL     1       7.186   4.341  23.068  0.00  0.00    -0.273 OA
ATOM     10  C   UNL     1       8.611   2.238  22.110  0.00  0.00    +0.113 C 
ATOM     11  C   UNL     1       9.695   1.245  21.801  0.00  0.00    +0.117 C 
BRANCH   8  12
ATOM     12  C   UNL     1       8.527   4.659  25.012  0.00  0.00    +0.180 C 
ATOM     13 CL   UNL     1       9.884   5.770  24.681  0.00  0.00    -0.103 Cl
ENDBRANCH   8  12
ENDBRANCH   1   4
BRANCH   1  17
ATOM     14  C   UNL     1       7.207  -4.606  23.164  0.00  0.00    +0.172 A 
ATOM     15  C   UNL     1       8.230  -4.394  24.203  0.00  0.00    +0.174 A 
ATOM     16  C   UNL     1       9.288  -3.226  24.327  0.00  0.00    +0.060 A 
ATOM     17  C   UNL     1       8.656  -1.891  23.896  0.00  0.00    +0.125 A 
ATOM     18  C   UNL     1       7.295  -2.067  23.367  0.00  0.00    +0.023 A 
ATOM     19  C   UNL     1       6.523  -3.150  22.674  0.00  0.00    +0.041 A 
BRANCH  14  21
ATOM     20  C   UNL     1       6.261  -5.602  21.236  0.00  0.00    +0.253 C 
ATOM     21  O   UNL     1       7.443  -5.295  21.963  0.00  0.00    -0.468 OA
ENDBRANCH  14  21
BRANCH  15  22
ATOM     22  O   UNL     1       8.030  -4.889  25.514  0.00  0.00    -0.468 OA
ATOM     23  C   UNL     1       6.754  -5.383  25.797  0.00  0.00    +0.253 C 
ENDBRANCH  15  22
ENDBRANCH   1  17
TORSDOF 5
ENDMDL
MODEL 7
REMARK VINA RESULT:      -6.2      1.703      2.514
REMARK  Name = 
REMARK  5 active torsions:
REMARK  status: ('A' for Active; 'I' for Inactive)
REMARK    1  A    between atoms: O_2  and  C_3
REMARK    2  A    between atoms: C_6  and  S_7
REMARK    3  A    between atoms: S_7  and  N_10
REMARK    4  A    between atoms: C_14  and  C_16
REMARK    5  A    between atoms: C_21  and  O_22
REMARK                            x       y       z     vdW  Elec       q    Type
REMARK                         _______ _______ _______ _____ _____    ______ ____
ROOT
ATOM      1  S   UNL     1       8.699  -2.883  23.718  0.00  0.00    +0.063 S 
ATOM      2  O   UNL     1       8.070  -2.702  22.429  0.00  0.00    -0.153 OA
ATOM      3  O   UNL     1      10.148  -2.837  23.690  0.00  0.00    -0.153 OA
ENDROOT
BRANCH   1   4
ATOM      4  N   UNL     1       8.242  -4.327  24.320  0.00  0.00    -0.152 NA
ATOM      5  C   UNL     1       6.928  -4.662  24.198  0.00  0.00    +0.117 C 
ATOM      6  C   UNL     1       6.190  -5.322  25.296  0.00  0.00    +0.113 C 
ATOM      7  N   UNL     1       6.906  -5.458  26.529  0.00  0.00    -0.276 N 
ATOM      8  C   UNL     1       6.239  -5.878  27.637  0.00  0.00    +0.242 C 
ATOM      9  O   UNL     1       6.589  -5.554  28.749  0.00  0.00    -0.273 OA
ATOM     10  C   UNL     1       8.222  -4.863  26.694  0.00  0.00    +0.113 C 
ATOM     11  C   UNL     1       8.954  -4.806  25.384  0.00  0.00    +0.117 C 
BRANCH   8  12
ATOM     12  C   UNL     1       4.992  -6.696  27.399  0.00  0.00    +0.180 C 
ATOM     13 CL   UNL     1       4.082  -6.867  28.925  0.00  0.00    -0.103 Cl
ENDBRANCH   8  12
ENDBRANCH   1   4
BRANCH   1  17
ATOM     14  C   UNL     1       9.348   1.264  23.932  0.00  0.00    +0.172 A 
ATOM     15  C   UNL     1       7.928   0.883  24.025  0.00  0.00    +0.174 A 
ATOM     16  C   UNL     1       7.288  -0.563  24.014  0.00  0.00    +0.060 A 
ATOM     17  C   UNL     1       8.174  -1.540  24.806  0.00  0.00    +0.125 A 
ATOM     18  C   UNL     1       9.429  -0.915  25.251  0.00  0.00    +0.023 A 
ATOM     19  C   UNL     1      10.326   0.191  24.781  0.00  0.00    +0.041 A 
BRANCH  14  21
ATOM     20  C   UNL     1       9.542   0.652  21.653  0.00  0.00    +0.253 C 
ATOM     21  O   UNL     1      10.027   1.460  22.717  0.00  0.00    -0.468 OA
ENDBRANCH  14  21
BRANCH  15  22
ATOM     22  O   UNL     1       7.007   1.719  24.699  0.00  0.00    -0.468 OA
ATOM     23  C   UNL     1       7.335   2.063  26.014  0.00  0.00    +0.253 C 
ENDBRANCH  15  22
ENDBRANCH   1  17
TORSDOF 5
ENDMDL
MODEL 8
REMARK VINA RESULT:      -6.2      1.821      3.118
REMARK  Name = 
REMARK  5 active torsions:
REMARK  status: ('A' for Active; 'I' for Inactive)
REMARK    1  A    between atoms: O_2  and  C_3
REMARK    2  A    between atoms: C_6  and  S_7
REMARK    3  A    between atoms: S_7  and  N_10
REMARK    4  A    between atoms: C_14  and  C_16
REMARK    5  A    between atoms: C_21  and  O_22
REMARK                            x       y       z     vdW  Elec       q    Type
REMARK                         _______ _______ _______ _____ _____    ______ ____
ROOT
ATOM      1  S   UNL     1       8.824  -3.411  24.297  0.00  0.00    +0.063 S 
ATOM      2  O   UNL     1       8.187  -3.561  23.008  0.00  0.00    -0.153 OA
ATOM      3  O   UNL     1       9.883  -4.366  24.557  0.00  0.00    -0.153 OA
ENDROOT
BRANCH   1   4
ATOM      4  N   UNL     1       7.691  -3.570  25.457  0.00  0.00    -0.152 NA
ATOM      5  C   UNL     1       8.056  -4.229  26.593  0.00  0.00    +0.117 C 
ATOM      6  C   UNL     1       7.150  -5.190  27.257  0.00  0.00    +0.113 C 
ATOM      7  N   UNL     1       5.934  -5.480  26.558  0.00  0.00    -0.276 N 
ATOM      8  C   UNL     1       5.141  -6.490  27.004  0.00  0.00    +0.242 C 
ATOM      9  O   UNL     1       4.423  -7.111  26.255  0.00  0.00    -0.273 OA
ATOM     10  C   UNL     1       5.696  -4.945  25.227  0.00  0.00    +0.113 C 
ATOM     11  C   UNL     1       6.390  -3.625  25.047  0.00  0.00    +0.117 C 
BRANCH   8  12
ATOM     12  C   UNL     1       5.270  -6.848  28.466  0.00  0.00    +0.180 C 
ATOM     13 CL   UNL     1       4.231  -5.776  29.444  0.00  0.00    -0.103 Cl
ENDBRANCH   8  12
ENDBRANCH   1   4
BRANCH   1  17
ATOM     14  C   UNL     1       8.582   0.145  22.068  0.00  0.00    +0.172 A 
ATOM     15  C   UNL     1       8.447   0.349  23.521  0.00  0.00    +0.174 A 
ATOM     16  C   UNL     1       8.512  -0.724  24.682  0.00  0.00    +0.060 A 
ATOM     17  C   UNL     1       9.591  -1.776  24.370  0.00  0.00    +0.125 A 
ATOM     18  C   UNL     1      10.181  -1.587  23.036  0.00  0.00    +0.023 A 
ATOM     19  C   UNL     1       9.747  -1.016  21.719  0.00  0.00    +0.041 A 
BRANCH  14  21
ATOM     20  C   UNL     1       7.707   0.215  19.870  0.00  0.00    +0.253 C 
ATOM     21  O   UNL     1       7.509  -0.179  21.221  0.00  0.00    -0.468 OA
ENDBRANCH  14  21
BRANCH  15  22
ATOM     22  O   UNL     1       8.805   1.587  24.106  0.00  0.00    -0.468 OA
ATOM     23  C   UNL     1      10.152   1.949  24.007  0.00  0.00    +0.253 C 
ENDBRANCH  15  22
ENDBRANCH   1  17
TORSDOF 5
ENDMDL
MODEL 9
REMARK VINA RESULT:      -6.2      2.408      3.376
REMARK  Name = 
REMARK  5 active torsions:
REMARK  status: ('A' for Active; 'I' for Inactive)
REMARK    1  A    between atoms: O_2  and  C_3
REMARK    2  A    between atoms: C_6  and  S_7
REMARK    3  A    between atoms: S_7  and  N_10
REMARK    4  A    between atoms: C_14  and  C_16
REMARK    5  A    between atoms: C_21  and  O_22
REMARK                            x       y       z     vdW  Elec       q    Type
REMARK                         _______ _______ _______ _____ _____    ______ ____
ROOT
ATOM      1  S   UNL     1       8.949  -1.598  24.411  0.00  0.00    +0.063 S 
ATOM      2  O   UNL     1      10.031  -2.318  23.779  0.00  0.00    -0.153 OA
ATOM      3  O   UNL     1       8.828  -1.829  25.837  0.00  0.00    -0.153 OA
ENDROOT
BRANCH   1   4
ATOM      4  N   UNL     1       7.549  -2.034  23.699  0.00  0.00    -0.152 NA
ATOM      5  C   UNL     1       6.559  -2.499  24.511  0.00  0.00    +0.117 C 
ATOM      6  C   UNL     1       5.720  -3.655  24.128  0.00  0.00    +0.113 C 
ATOM      7  N   UNL     1       6.106  -4.328  22.924  0.00  0.00    -0.276 N 
ATOM      8  C   UNL     1       5.508  -5.507  22.606  0.00  0.00    +0.242 C 
ATOM      9  O   UNL     1       6.074  -6.349  21.948  0.00  0.00    -0.273 OA
ATOM     10  C   UNL     1       7.320  -3.952  22.217  0.00  0.00    +0.113 C 
ATOM     11  C   UNL     1       7.627  -2.495  22.415  0.00  0.00    +0.117 C 
BRANCH   8  12
ATOM     12  C   UNL     1       4.135  -5.740  23.190  0.00  0.00    +0.180 C 
ATOM     13 CL   UNL     1       4.215  -7.029  24.422  0.00  0.00    -0.103 Cl
ENDBRANCH   8  12
ENDBRANCH   1   4
BRANCH   1  17
ATOM     14  C   UNL     1       8.008   1.318  21.534  0.00  0.00    +0.172 A 
ATOM     15  C   UNL     1       7.675   1.719  22.912  0.00  0.00    +0.174 A 
ATOM     16  C   UNL     1       7.901   0.920  24.258  0.00  0.00    +0.060 A 
ATOM     17  C   UNL     1       9.245   0.173  24.210  0.00  0.00    +0.125 A 
ATOM     18  C   UNL     1       9.899   0.290  22.898  0.00  0.00    +0.023 A 
ATOM     19  C   UNL     1       9.468   0.486  21.475  0.00  0.00    +0.041 A 
BRANCH  14  21
ATOM     20  C   UNL     1       7.786   0.045  19.550  0.00  0.00    +0.253 C 
ATOM     21  O   UNL     1       7.151   0.569  20.709  0.00  0.00    -0.468 OA
ENDBRANCH  14  21
BRANCH  15  22
ATOM     22  O   UNL     1       7.630   3.088  23.267  0.00  0.00    -0.468 OA
ATOM     23  C   UNL     1       7.088   3.954  22.313  0.00  0.00    +0.253 C 
ENDBRANCH  15  22
ENDBRANCH   1  17
TORSDOF 5
ENDMDL
