MODEL 1
REMARK VINA RESULT:      -6.7      0.000      0.000
REMARK  Name = 
REMARK  5 active torsions:
REMARK  status: ('A' for Active; 'I' for Inactive)
REMARK    1  A    between atoms: O_2  and  C_3
REMARK    2  A    between atoms: C_6  and  O_7
REMARK    3  A    between atoms: C_9  and  S_10
REMARK    4  A    between atoms: S_10  and  N_13
REMARK    5  A    between atoms: C_17  and  C_19
REMARK                            x       y       z     vdW  Elec       q    Type
REMARK                         _______ _______ _______ _____ _____    ______ ____
ROOT
ATOM      1  S   UNL     1       9.703  -1.378  23.358  0.00  0.00    +0.066 S 
ATOM      2  O   UNL     1      10.532  -2.443  22.834  0.00  0.00    -0.153 OA
ATOM      3  O   UNL     1      10.120  -0.805  24.584  0.00  0.00    -0.153 OA
ENDROOT
BRANCH   1   4
ATOM      4  N   UNL     1       8.171  -1.936  23.470  0.00  0.00    -0.152 NA
ATOM      5  C   UNL     1       8.038  -3.250  22.995  0.00  0.00    +0.117 C 
ATOM      6  C   UNL     1       6.883  -4.007  23.642  0.00  0.00    +0.113 C 
ATOM      7  N   UNL     1       7.147  -4.089  25.076  0.00  0.00    -0.276 N 
ATOM      8  C   UNL     1       6.953  -5.224  25.751  0.00  0.00    +0.242 C 
ATOM      9  O   UNL     1       7.870  -5.773  26.343  0.00  0.00    -0.273 OA
ATOM     10  C   UNL     1       7.965  -3.011  25.642  0.00  0.00    +0.113 C 
ATOM     11  C   UNL     1       7.676  -1.768  24.786  0.00  0.00    +0.117 C 
BRANCH   8  12
ATOM     12  C   UNL     1       5.512  -5.546  26.114  0.00  0.00    +0.180 C 
ATOM     13 CL   UNL     1       4.858  -6.727  24.949  0.00  0.00    -0.103 Cl
ENDBRANCH   8  12
ENDBRANCH   1   4
BRANCH   1  16
ATOM     14  C   UNL     1       9.693   2.541  23.008  0.00  0.00    +0.140 A 
ATOM     15  C   UNL     1      10.186   1.140  22.833  0.00  0.00    +0.060 A 
ATOM     16  C   UNL     1       9.726  -0.035  22.146  0.00  0.00    +0.159 A 
ATOM     17  C   UNL     1       8.436   0.063  21.422  0.00  0.00    +0.157 A 
ATOM     18  C   UNL     1       7.825   1.517  21.607  0.00  0.00    +0.041 A 
ATOM     19  C   UNL     1       8.264   2.764  22.226  0.00  0.00    +0.040 A 
BRANCH  14  21
ATOM     20  C   UNL     1       8.644   3.971  24.556  0.00  0.00    +0.252 C 
ATOM     21  O   UNL     1       9.510   2.809  24.270  0.00  0.00    -0.471 OA
ENDBRANCH  14  21
BRANCH  17  22
ATOM     22  O   UNL     1       8.397  -0.186  19.969  0.00  0.00    -0.470 OA
ATOM     23  C   UNL     1       7.390   0.223  19.194  0.00  0.00    +0.253 C 
ENDBRANCH  17  22
ENDBRANCH   1  16
TORSDOF 5
ENDMDL
MODEL 2
REMARK VINA RESULT:      -6.7      2.389      3.798
REMARK  Name = 
REMARK  5 active torsions:
REMARK  status: ('A' for Active; 'I' for Inactive)
REMARK    1  A    between atoms: O_2  and  C_3
REMARK    2  A    between atoms: C_6  and  O_7
REMARK    3  A    between atoms: C_9  and  S_10
REMARK    4  A    between atoms: S_10  and  N_13
REMARK    5  A    between atoms: C_17  and  C_19
REMARK                            x       y       z     vdW  Elec       q    Type
REMARK                         _______ _______ _______ _____ _____    ______ ____
ROOT
ATOM      1  S   UNL     1       8.650  -2.950  24.208  0.00  0.00    +0.066 S 
ATOM      2  O   UNL     1       7.659  -3.655  23.423  0.00  0.00    -0.153 OA
ATOM      3  O   UNL     1       9.982  -3.417  24.101  0.00  0.00    -0.153 OA
ENDROOT
BRANCH   1   4
ATOM      4  N   UNL     1       8.158  -2.951  25.766  0.00  0.00    -0.152 NA
ATOM      5  C   UNL     1       6.760  -2.938  25.892  0.00  0.00    +0.117 C 
ATOM      6  C   UNL     1       6.268  -3.574  27.189  0.00  0.00    +0.113 C 
ATOM      7  N   UNL     1       6.691  -4.971  27.193  0.00  0.00    -0.276 N 
ATOM      8  C   UNL     1       5.860  -5.944  27.575  0.00  0.00    +0.242 C 
ATOM      9  O   UNL     1       5.556  -6.851  26.814  0.00  0.00    -0.273 OA
ATOM     10  C   UNL     1       7.903  -5.279  26.426  0.00  0.00    +0.113 C 
ATOM     11  C   UNL     1       8.769  -4.012  26.478  0.00  0.00    +0.117 C 
BRANCH   8  12
ATOM     12  C   UNL     1       5.677  -6.113  29.074  0.00  0.00    +0.180 C 
ATOM     13 CL   UNL     1       4.117  -5.401  29.564  0.00  0.00    -0.103 Cl
ENDBRANCH   8  12
ENDBRANCH   1   4
BRANCH   1  16
ATOM     14  C   UNL     1       7.127  -0.527  21.508  0.00  0.00    +0.140 A 
ATOM     15  C   UNL     1       7.466  -1.035  22.873  0.00  0.00    +0.060 A 
ATOM     16  C   UNL     1       8.673  -1.236  23.627  0.00  0.00    +0.159 A 
ATOM     17  C   UNL     1       9.954  -0.909  22.956  0.00  0.00    +0.157 A 
ATOM     18  C   UNL     1       9.674  -0.408  21.476  0.00  0.00    +0.041 A 
ATOM     19  C   UNL     1       8.486  -0.117  20.678  0.00  0.00    +0.040 A 
BRANCH  14  21
ATOM     20  C   UNL     1       5.882  -0.972  19.561  0.00  0.00    +0.252 C 
ATOM     21  O   UNL     1       6.493  -1.435  20.823  0.00  0.00    -0.471 OA
ENDBRANCH  14  21
BRANCH  17  22
ATOM     22  O   UNL     1      10.842   0.111  23.544  0.00  0.00    -0.470 OA
ATOM     23  C   UNL     1      10.702   0.555  24.794  0.00  0.00    +0.253 C 
ENDBRANCH  17  22
ENDBRANCH   1  16
TORSDOF 5
ENDMDL
MODEL 3
REMARK VINA RESULT:      -6.2      3.272      7.021
REMARK  Name = 
REMARK  5 active torsions:
REMARK  status: ('A' for Active; 'I' for Inactive)
REMARK    1  A    between atoms: O_2  and  C_3
REMARK    2  A    between atoms: C_6  and  O_7
REMARK    3  A    between atoms: C_9  and  S_10
REMARK    4  A    between atoms: S_10  and  N_13
REMARK    5  A    between atoms: C_17  and  C_19
REMARK                            x       y       z     vdW  Elec       q    Type
REMARK                         _______ _______ _______ _____ _____    ______ ____
ROOT
ATOM      1  S   UNL     1       8.157  -4.133  25.014  0.00  0.00    +0.066 S 
ATOM      2  O   UNL     1       8.687  -3.811  26.323  0.00  0.00    -0.153 OA
ATOM      3  O   UNL     1       8.962  -4.967  24.201  0.00  0.00    -0.153 OA
ENDROOT
BRANCH   1   4
ATOM      4  N   UNL     1       7.813  -2.732  24.247  0.00  0.00    -0.152 NA
ATOM      5  C   UNL     1       7.678  -1.651  25.132  0.00  0.00    +0.117 C 
ATOM      6  C   UNL     1       8.005  -0.306  24.489  0.00  0.00    +0.113 C 
ATOM      7  N   UNL     1       9.399  -0.342  24.056  0.00  0.00    -0.276 N 
ATOM      8  C   UNL     1      10.216   0.692  24.268  0.00  0.00    +0.242 C 
ATOM      9  O   UNL     1      11.234   0.569  24.934  0.00  0.00    -0.273 OA
ATOM     10  C   UNL     1       9.938  -1.667  23.730  0.00  0.00    +0.113 C 
ATOM     11  C   UNL     1       8.748  -2.490  23.212  0.00  0.00    +0.117 C 
BRANCH   8  12
ATOM     12  C   UNL     1      10.068   1.865  23.312  0.00  0.00    +0.180 C 
ATOM     13 CL   UNL     1       9.750   1.251  21.668  0.00  0.00    -0.103 Cl
ENDBRANCH   8  12
ENDBRANCH   1   4
BRANCH   1  16
ATOM     14  C   UNL     1       4.791  -5.156  23.254  0.00  0.00    +0.140 A 
ATOM     15  C   UNL     1       6.090  -5.350  23.969  0.00  0.00    +0.060 A 
ATOM     16  C   UNL     1       6.608  -5.031  25.270  0.00  0.00    +0.159 A 
ATOM     17  C   UNL     1       5.708  -4.304  26.198  0.00  0.00    +0.157 A 
ATOM     18  C   UNL     1       4.319  -4.017  25.485  0.00  0.00    +0.041 A 
ATOM     19  C   UNL     1       3.708  -4.367  24.206  0.00  0.00    +0.040 A 
BRANCH  14  21
ATOM     20  C   UNL     1       6.253  -4.653  21.480  0.00  0.00    +0.252 C 
ATOM     21  O   UNL     1       4.963  -4.454  22.169  0.00  0.00    -0.471 OA
ENDBRANCH  14  21
BRANCH  17  22
ATOM     22  O   UNL     1       5.354  -4.913  27.494  0.00  0.00    -0.470 OA
ATOM     23  C   UNL     1       6.162  -5.758  28.138  0.00  0.00    +0.253 C 
ENDBRANCH  17  22
ENDBRANCH   1  16
TORSDOF 5
ENDMDL
MODEL 4
REMARK VINA RESULT:      -6.2      3.235      7.630
REMARK  Name = 
REMARK  5 active torsions:
REMARK  status: ('A' for Active; 'I' for Inactive)
REMARK    1  A    between atoms: O_2  and  C_3
REMARK    2  A    between atoms: C_6  and  O_7
REMARK    3  A    between atoms: C_9  and  S_10
REMARK    4  A    between atoms: S_10  and  N_13
REMARK    5  A    between atoms: C_17  and  C_19
REMARK                            x       y       z     vdW  Elec       q    Type
REMARK                         _______ _______ _______ _____ _____    ______ ____
ROOT
ATOM      1  S   UNL     1       6.117  -3.633  23.535  0.00  0.00    +0.066 S 
ATOM      2  O   UNL     1       6.016  -3.788  22.099  0.00  0.00    -0.153 OA
ATOM      3  O   UNL     1       4.985  -3.090  24.188  0.00  0.00    -0.153 OA
ENDROOT
BRANCH   1   4
ATOM      4  N   UNL     1       7.453  -2.747  23.856  0.00  0.00    -0.152 NA
ATOM      5  C   UNL     1       8.430  -2.860  22.855  0.00  0.00    +0.117 C 
ATOM      6  C   UNL     1       9.337  -1.637  22.762  0.00  0.00    +0.113 C 
ATOM      7  N   UNL     1       8.505  -0.485  22.426  0.00  0.00    -0.276 N 
ATOM      8  C   UNL     1       8.890   0.402  21.507  0.00  0.00    +0.242 C 
ATOM      9  O   UNL     1       8.217   0.611  20.508  0.00  0.00    -0.273 OA
ATOM     10  C   UNL     1       7.105  -0.555  22.859  0.00  0.00    +0.113 C 
ATOM     11  C   UNL     1       7.101  -1.405  24.139  0.00  0.00    +0.117 C 
BRANCH   8  12
ATOM     12  C   UNL     1       9.922   1.423  21.958  0.00  0.00    +0.180 C 
ATOM     13 CL   UNL     1       9.585   1.902  23.642  0.00  0.00    -0.103 Cl
ENDBRANCH   8  12
ENDBRANCH   1   4
BRANCH   1  16
ATOM     14  C   UNL     1       4.197  -6.887  24.632  0.00  0.00    +0.140 A 
ATOM     15  C   UNL     1       5.194  -6.056  23.889  0.00  0.00    +0.060 A 
ATOM     16  C   UNL     1       6.355  -5.284  24.236  0.00  0.00    +0.159 A 
ATOM     17  C   UNL     1       6.719  -5.215  25.672  0.00  0.00    +0.157 A 
ATOM     18  C   UNL     1       5.669  -6.038  26.533  0.00  0.00    +0.041 A 
ATOM     19  C   UNL     1       4.520  -6.891  26.244  0.00  0.00    +0.040 A 
BRANCH  14  21
ATOM     20  C   UNL     1       2.732  -5.786  23.154  0.00  0.00    +0.252 C 
ATOM     21  O   UNL     1       2.992  -6.421  24.462  0.00  0.00    -0.471 OA
ENDBRANCH  14  21
BRANCH  17  22
ATOM     22  O   UNL     1       8.040  -5.702  26.110  0.00  0.00    -0.470 OA
ATOM     23  C   UNL     1       9.177  -5.337  25.516  0.00  0.00    +0.253 C 
ENDBRANCH  17  22
ENDBRANCH   1  16
TORSDOF 5
ENDMDL
MODEL 5
REMARK VINA RESULT:      -6.2      3.096      6.912
REMARK  Name = 
REMARK  5 active torsions:
REMARK  status: ('A' for Active; 'I' for Inactive)
REMARK    1  A    between atoms: O_2  and  C_3
REMARK    2  A    between atoms: C_6  and  O_7
REMARK    3  A    between atoms: C_9  and  S_10
REMARK    4  A    between atoms: S_10  and  N_13
REMARK    5  A    between atoms: C_17  and  C_19
REMARK                            x       y       z     vdW  Elec       q    Type
REMARK                         _______ _______ _______ _____ _____    ______ ____
ROOT
ATOM      1  S   UNL     1       8.903  -3.685  24.724  0.00  0.00    +0.066 S 
ATOM      2  O   UNL     1       8.612  -3.080  26.006  0.00  0.00    -0.153 OA
ATOM      3  O   UNL     1      10.231  -4.135  24.531  0.00  0.00    -0.153 OA
ENDROOT
BRANCH   1   4
ATOM      4  N   UNL     1       8.472  -2.628  23.554  0.00  0.00    -0.152 NA
ATOM      5  C   UNL     1       7.557  -1.664  24.007  0.00  0.00    +0.117 C 
ATOM      6  C   UNL     1       7.631  -0.356  23.226  0.00  0.00    +0.113 C 
ATOM      7  N   UNL     1       8.969   0.199  23.405  0.00  0.00    -0.276 N 
ATOM      8  C   UNL     1       9.153   1.498  23.652  0.00  0.00    +0.242 C 
ATOM      9  O   UNL     1       9.708   1.876  24.673  0.00  0.00    -0.273 OA
ATOM     10  C   UNL     1      10.039  -0.771  23.666  0.00  0.00    +0.113 C 
ATOM     11  C   UNL     1       9.621  -2.063  22.949  0.00  0.00    +0.117 C 
BRANCH   8  12
ATOM     12  C   UNL     1       9.052   2.425  22.451  0.00  0.00    +0.180 C 
ATOM     13 CL   UNL     1       7.476   3.258  22.476  0.00  0.00    -0.103 Cl
ENDBRANCH   8  12
ENDBRANCH   1   4
BRANCH   1  16
ATOM     14  C   UNL     1       6.479  -5.575  22.268  0.00  0.00    +0.140 A 
ATOM     15  C   UNL     1       7.657  -5.382  23.169  0.00  0.00    +0.060 A 
ATOM     16  C   UNL     1       7.852  -5.151  24.573  0.00  0.00    +0.159 A 
ATOM     17  C   UNL     1       6.638  -5.036  25.417  0.00  0.00    +0.157 A 
ATOM     18  C   UNL     1       5.340  -5.181  24.515  0.00  0.00    +0.041 A 
ATOM     19  C   UNL     1       5.071  -5.481  23.111  0.00  0.00    +0.040 A 
BRANCH  14  21
ATOM     20  C   UNL     1       5.648  -3.464  21.642  0.00  0.00    +0.252 C 
ATOM     21  O   UNL     1       6.456  -4.662  21.339  0.00  0.00    -0.471 OA
ENDBRANCH  14  21
BRANCH  17  22
ATOM     22  O   UNL     1       6.437  -5.979  26.533  0.00  0.00    -0.470 OA
ATOM     23  C   UNL     1       6.703  -5.663  27.802  0.00  0.00    +0.253 C 
ENDBRANCH  17  22
ENDBRANCH   1  16
TORSDOF 5
ENDMDL
MODEL 6
REMARK VINA RESULT:      -6.0      3.182      6.637
REMARK  Name = 
REMARK  5 active torsions:
REMARK  status: ('A' for Active; 'I' for Inactive)
REMARK    1  A    between atoms: O_2  and  C_3
REMARK    2  A    between atoms: C_6  and  O_7
REMARK    3  A    between atoms: C_9  and  S_10
REMARK    4  A    between atoms: S_10  and  N_13
REMARK    5  A    between atoms: C_17  and  C_19
REMARK                            x       y       z     vdW  Elec       q    Type
REMARK                         _______ _______ _______ _____ _____    ______ ____
ROOT
ATOM      1  S   UNL     1       8.584  -4.048  24.514  0.00  0.00    +0.066 S 
ATOM      2  O   UNL     1       8.881  -3.521  25.829  0.00  0.00    -0.153 OA
ATOM      3  O   UNL     1       9.023  -5.368  24.253  0.00  0.00    -0.153 OA
ENDROOT
BRANCH   1   4
ATOM      4  N   UNL     1       9.182  -3.007  23.404  0.00  0.00    -0.152 NA
ATOM      5  C   UNL     1       8.260  -2.712  22.388  0.00  0.00    +0.117 C 
ATOM      6  C   UNL     1       8.487  -1.344  21.751  0.00  0.00    +0.113 C 
ATOM      7  N   UNL     1       8.325  -0.333  22.791  0.00  0.00    -0.276 N 
ATOM      8  C   UNL     1       7.636   0.788  22.564  0.00  0.00    +0.242 C 
ATOM      9  O   UNL     1       6.649   1.069  23.228  0.00  0.00    -0.273 OA
ATOM     10  C   UNL     1       8.622  -0.765  24.162  0.00  0.00    +0.113 C 
ATOM     11  C   UNL     1       9.700  -1.851  24.037  0.00  0.00    +0.117 C 
BRANCH   8  12
ATOM     12  C   UNL     1       8.364   1.871  21.784  0.00  0.00    +0.180 C 
ATOM     13 CL   UNL     1      10.120   1.712  22.049  0.00  0.00    -0.103 Cl
ENDBRANCH   8  12
ENDBRANCH   1   4
BRANCH   1  16
ATOM     14  C   UNL     1       5.234  -4.094  26.576  0.00  0.00    +0.140 A 
ATOM     15  C   UNL     1       6.239  -3.600  25.585  0.00  0.00    +0.060 A 
ATOM     16  C   UNL     1       6.783  -4.077  24.344  0.00  0.00    +0.159 A 
ATOM     17  C   UNL     1       6.306  -5.394  23.857  0.00  0.00    +0.157 A 
ATOM     18  C   UNL     1       5.268  -6.007  24.890  0.00  0.00    +0.041 A 
ATOM     19  C   UNL     1       4.626  -5.552  26.120  0.00  0.00    +0.040 A 
BRANCH  14  21
ATOM     20  C   UNL     1       4.832  -4.340  28.882  0.00  0.00    +0.252 C 
ATOM     21  O   UNL     1       5.777  -4.232  27.752  0.00  0.00    -0.471 OA
ENDBRANCH  14  21
BRANCH  17  22
ATOM     22  O   UNL     1       5.640  -5.486  22.545  0.00  0.00    -0.470 OA
ATOM     23  C   UNL     1       6.309  -5.699  21.409  0.00  0.00    +0.253 C 
ENDBRANCH  17  22
ENDBRANCH   1  16
TORSDOF 5
ENDMDL
MODEL 7
REMARK VINA RESULT:      -5.9      3.385      7.308
REMARK  Name = 
REMARK  5 active torsions:
REMARK  status: ('A' for Active; 'I' for Inactive)
REMARK    1  A    between atoms: O_2  and  C_3
REMARK    2  A    between atoms: C_6  and  O_7
REMARK    3  A    between atoms: C_9  and  S_10
REMARK    4  A    between atoms: S_10  and  N_13
REMARK    5  A    between atoms: C_17  and  C_19
REMARK                            x       y       z     vdW  Elec       q    Type
REMARK                         _______ _______ _______ _____ _____    ______ ____
ROOT
ATOM      1  S   UNL     1       7.376  -3.956  23.999  0.00  0.00    +0.066 S 
ATOM      2  O   UNL     1       8.199  -3.886  25.188  0.00  0.00    -0.153 OA
ATOM      3  O   UNL     1       7.728  -4.947  23.051  0.00  0.00    -0.153 OA
ENDROOT
BRANCH   1   4
ATOM      4  N   UNL     1       7.354  -2.474  23.309  0.00  0.00    -0.152 NA
ATOM      5  C   UNL     1       7.153  -1.446  24.244  0.00  0.00    +0.117 C 
ATOM      6  C   UNL     1       7.751  -0.113  23.805  0.00  0.00    +0.113 C 
ATOM      7  N   UNL     1       9.193  -0.292  23.663  0.00  0.00    -0.276 N 
ATOM      8  C   UNL     1      10.053   0.616  24.129  0.00  0.00    +0.242 C 
ATOM      9  O   UNL     1      10.888   0.323  24.972  0.00  0.00    -0.273 OA
ATOM     10  C   UNL     1       9.643  -1.649  23.332  0.00  0.00    +0.113 C 
ATOM     11  C   UNL     1       8.509  -2.282  22.512  0.00  0.00    +0.117 C 
BRANCH   8  12
ATOM     12  C   UNL     1      10.238   1.859  23.274  0.00  0.00    +0.180 C 
ATOM     13 CL   UNL     1       9.491   3.257  24.091  0.00  0.00    -0.103 Cl
ENDBRANCH   8  12
ENDBRANCH   1   4
BRANCH   1  16
ATOM     14  C   UNL     1       5.321  -5.717  26.854  0.00  0.00    +0.140 A 
ATOM     15  C   UNL     1       5.756  -4.611  25.947  0.00  0.00    +0.060 A 
ATOM     16  C   UNL     1       5.694  -4.352  24.536  0.00  0.00    +0.159 A 
ATOM     17  C   UNL     1       5.085  -5.399  23.680  0.00  0.00    +0.157 A 
ATOM     18  C   UNL     1       4.643  -6.634  24.574  0.00  0.00    +0.041 A 
ATOM     19  C   UNL     1       4.614  -6.933  26.003  0.00  0.00    +0.040 A 
BRANCH  14  21
ATOM     20  C   UNL     1       6.126  -6.465  28.936  0.00  0.00    +0.252 C 
ATOM     21  O   UNL     1       6.341  -6.213  27.497  0.00  0.00    -0.471 OA
ENDBRANCH  14  21
BRANCH  17  22
ATOM     22  O   UNL     1       3.901  -5.073  22.864  0.00  0.00    -0.470 OA
ATOM     23  C   UNL     1       2.654  -5.321  23.271  0.00  0.00    +0.253 C 
ENDBRANCH  17  22
ENDBRANCH   1  16
TORSDOF 5
ENDMDL
MODEL 8
REMARK VINA RESULT:      -5.9      1.521      3.084
REMARK  Name = 
REMARK  5 active torsions:
REMARK  status: ('A' for Active; 'I' for Inactive)
REMARK    1  A    between atoms: O_2  and  C_3
REMARK    2  A    between atoms: C_6  and  O_7
REMARK    3  A    between atoms: C_9  and  S_10
REMARK    4  A    between atoms: S_10  and  N_13
REMARK    5  A    between atoms: C_17  and  C_19
REMARK                            x       y       z     vdW  Elec       q    Type
REMARK                         _______ _______ _______ _____ _____    ______ ____
ROOT
ATOM      1  S   UNL     1       8.663  -2.190  23.245  0.00  0.00    +0.066 S 
ATOM      2  O   UNL     1       9.225  -2.278  21.914  0.00  0.00    -0.153 OA
ATOM      3  O   UNL     1       9.577  -2.308  24.320  0.00  0.00    -0.153 OA
ENDROOT
BRANCH   1   4
ATOM      4  N   UNL     1       7.474  -3.304  23.369  0.00  0.00    -0.152 NA
ATOM      5  C   UNL     1       7.962  -4.584  23.677  0.00  0.00    +0.117 C 
ATOM      6  C   UNL     1       6.947  -5.450  24.416  0.00  0.00    +0.113 C 
ATOM      7  N   UNL     1       6.630  -4.792  25.680  0.00  0.00    -0.276 N 
ATOM      8  C   UNL     1       6.551  -5.483  26.819  0.00  0.00    +0.242 C 
ATOM      9  O   UNL     1       7.279  -5.226  27.767  0.00  0.00    -0.273 OA
ATOM     10  C   UNL     1       6.770  -3.332  25.698  0.00  0.00    +0.113 C 
ATOM     11  C   UNL     1       6.471  -2.862  24.266  0.00  0.00    +0.117 C 
BRANCH   8  12
ATOM     12  C   UNL     1       5.266  -6.267  27.036  0.00  0.00    +0.180 C 
ATOM     13 CL   UNL     1       3.881  -5.301  26.463  0.00  0.00    -0.103 Cl
ENDBRANCH   8  12
ENDBRANCH   1   4
BRANCH   1  16
ATOM     14  C   UNL     1       7.578   0.980  21.183  0.00  0.00    +0.140 A 
ATOM     15  C   UNL     1       7.423  -0.189  22.103  0.00  0.00    +0.060 A 
ATOM     16  C   UNL     1       7.916  -0.549  23.403  0.00  0.00    +0.159 A 
ATOM     17  C   UNL     1       8.838   0.404  24.067  0.00  0.00    +0.157 A 
ATOM     18  C   UNL     1       9.091   1.654  23.121  0.00  0.00    +0.041 A 
ATOM     19  C   UNL     1       8.576   2.113  21.834  0.00  0.00    +0.040 A 
BRANCH  14  21
ATOM     20  C   UNL     1       7.102   0.291  18.983  0.00  0.00    +0.252 C 
ATOM     21  O   UNL     1       8.083   0.604  20.042  0.00  0.00    -0.471 OA
ENDBRANCH  14  21
BRANCH  17  22
ATOM     22  O   UNL     1       8.470   0.980  25.373  0.00  0.00    -0.470 OA
ATOM     23  C   UNL     1       7.540   0.440  26.163  0.00  0.00    +0.253 C 
ENDBRANCH  17  22
ENDBRANCH   1  16
TORSDOF 5
ENDMDL
MODEL 9
REMARK VINA RESULT:      -5.9      3.455      7.211
REMARK  Name = 
REMARK  5 active torsions:
REMARK  status: ('A' for Active; 'I' for Inactive)
REMARK    1  A    between atoms: O_2  and  C_3
REMARK    2  A    between atoms: C_6  and  O_7
REMARK    3  A    between atoms: C_9  and  S_10
REMARK    4  A    between atoms: S_10  and  N_13
REMARK    5  A    between atoms: C_17  and  C_19
REMARK                            x       y       z     vdW  Elec       q    Type
REMARK                         _______ _______ _______ _____ _____    ______ ____
ROOT
ATOM      1  S   UNL     1       7.614  -2.917  25.434  0.00  0.00    +0.066 S 
ATOM      2  O   UNL     1       6.283  -2.376  25.609  0.00  0.00    -0.153 OA
ATOM      3  O   UNL     1       8.485  -2.807  26.544  0.00  0.00    -0.153 OA
ENDROOT
BRANCH   1   4
ATOM      4  N   UNL     1       8.272  -2.225  24.107  0.00  0.00    -0.152 NA
ATOM      5  C   UNL     1       7.480  -1.190  23.588  0.00  0.00    +0.117 C 
ATOM      6  C   UNL     1       8.286  -0.141  22.828  0.00  0.00    +0.113 C 
ATOM      7  N   UNL     1       9.230   0.464  23.763  0.00  0.00    -0.276 N 
ATOM      8  C   UNL     1       9.426   1.784  23.791  0.00  0.00    +0.242 C 
ATOM      9  O   UNL     1       9.210   2.434  24.803  0.00  0.00    -0.273 OA
ATOM     10  C   UNL     1       9.655  -0.381  24.885  0.00  0.00    +0.113 C 
ATOM     11  C   UNL     1       9.606  -1.826  24.367  0.00  0.00    +0.117 C 
BRANCH   8  12
ATOM     12  C   UNL     1      10.321   2.348  22.700  0.00  0.00    +0.180 C 
ATOM     13 CL   UNL     1      11.319   3.663  23.374  0.00  0.00    -0.103 Cl
ENDBRANCH   8  12
ENDBRANCH   1   4
BRANCH   1  16
ATOM     14  C   UNL     1       7.095  -5.554  22.560  0.00  0.00    +0.140 A 
ATOM     15  C   UNL     1       7.758  -4.897  23.729  0.00  0.00    +0.060 A 
ATOM     16  C   UNL     1       7.434  -4.689  25.113  0.00  0.00    +0.159 A 
ATOM     17  C   UNL     1       6.122  -5.194  25.586  0.00  0.00    +0.157 A 
ATOM     18  C   UNL     1       5.336  -5.863  24.380  0.00  0.00    +0.041 A 
ATOM     19  C   UNL     1       5.629  -6.167  22.982  0.00  0.00    +0.040 A 
BRANCH  14  21
ATOM     20  C   UNL     1       5.860  -3.689  21.827  0.00  0.00    +0.252 C 
ATOM     21  O   UNL     1       6.913  -4.698  21.594  0.00  0.00    -0.471 OA
ENDBRANCH  14  21
BRANCH  17  22
ATOM     22  O   UNL     1       6.077  -6.191  26.672  0.00  0.00    -0.470 OA
ATOM     23  C   UNL     1       4.946  -6.784  27.060  0.00  0.00    +0.253 C 
ENDBRANCH  17  22
ENDBRANCH   1  16
TORSDOF 5
ENDMDL
