MODEL 1
REMARK VINA RESULT:      -6.9      0.000      0.000
REMARK  Name = 
REMARK  4 active torsions:
REMARK  status: ('A' for Active; 'I' for Inactive)
REMARK    1  A    between atoms: C_2  and  C_3
REMARK    2  A    between atoms: N_8  and  S_9
REMARK    3  A    between atoms: S_9  and  C_12
REMARK    4  A    between atoms: C_15  and  N_16
REMARK                            x       y       z     vdW  Elec       q    Type
REMARK                         _______ _______ _______ _____ _____    ______ ____
ROOT
ATOM      1  S   UNL     1       8.649  -1.520  24.446  0.00  0.00    +0.063 S 
ATOM      2  O   UNL     1       7.397  -0.954  24.082  0.00  0.00    -0.153 OA
ATOM      3  O   UNL     1       8.931  -1.543  25.876  0.00  0.00    -0.153 OA
ENDROOT
BRANCH   1   9
ATOM      4  O   UNL     1       7.071   1.333  22.132  0.00  0.00    -0.273 OA
ATOM      5  C   UNL     1       7.669   0.747  21.248  0.00  0.00    +0.242 C 
ATOM      6  N   UNL     1       8.984   0.424  21.416  0.00  0.00    -0.276 N 
ATOM      7  C   UNL     1       9.775   1.264  22.323  0.00  0.00    +0.113 C 
ATOM      8  C   UNL     1       9.748   0.629  23.697  0.00  0.00    +0.117 C 
ATOM      9  N   UNL     1       9.872  -0.755  23.704  0.00  0.00    -0.152 NA
ATOM     10  C   UNL     1      10.241  -1.357  22.497  0.00  0.00    +0.117 C 
ATOM     11  C   UNL     1       9.338  -0.993  21.339  0.00  0.00    +0.113 C 
BRANCH   5  12
ATOM     12  C   UNL     1       6.932  -0.108  20.236  0.00  0.00    +0.180 C 
ATOM     13 CL   UNL     1       7.347   0.403  18.582  0.00  0.00    -0.103 Cl
ENDBRANCH   5  12
ENDBRANCH   1   9
BRANCH   1  14
ATOM     14  C   UNL     1       8.690  -3.229  23.894  0.00  0.00    +0.123 A 
ATOM     15  C   UNL     1       9.470  -3.985  24.871  0.00  0.00    +0.026 A 
ATOM     16  C   UNL     1       9.270  -5.074  25.907  0.00  0.00    +0.077 A 
ATOM     17  C   UNL     1       7.799  -5.303  25.849  0.00  0.00    +0.290 A 
ATOM     18  C   UNL     1       6.946  -4.865  24.755  0.00  0.00    +0.077 A 
ATOM     19  C   UNL     1       7.105  -3.590  24.034  0.00  0.00    +0.026 A 
BRANCH  17  20
ATOM     20  N   UNL     1       7.298  -5.015  26.867  0.00  0.00    +0.081 N 
ATOM     21  O   UNL     1       6.583  -4.027  27.471  0.00  0.00    -0.576 OA
ATOM     22  O   UNL     1       7.447  -5.866  27.734  0.00  0.00    +0.041 OA
ENDBRANCH  17  20
ENDBRANCH   1  14
TORSDOF 4
ENDMDL
MODEL 2
REMARK VINA RESULT:      -6.7      2.906      6.418
REMARK  Name = 
REMARK  4 active torsions:
REMARK  status: ('A' for Active; 'I' for Inactive)
REMARK    1  A    between atoms: C_2  and  C_3
REMARK    2  A    between atoms: N_8  and  S_9
REMARK    3  A    between atoms: S_9  and  C_12
REMARK    4  A    between atoms: C_15  and  N_16
REMARK                            x       y       z     vdW  Elec       q    Type
REMARK                         _______ _______ _______ _____ _____    ______ ____
ROOT
ATOM      1  S   UNL     1       9.346  -2.005  23.578  0.00  0.00    +0.063 S 
ATOM      2  O   UNL     1      10.167  -3.137  23.830  0.00  0.00    -0.153 OA
ATOM      3  O   UNL     1       9.163  -1.102  24.707  0.00  0.00    -0.153 OA
ENDROOT
BRANCH   1   9
ATOM      4  O   UNL     1       7.067  -2.718  26.785  0.00  0.00    -0.273 OA
ATOM      5  C   UNL     1       6.946  -3.817  26.278  0.00  0.00    +0.242 C 
ATOM      6  N   UNL     1       6.610  -3.924  24.960  0.00  0.00    -0.276 N 
ATOM      7  C   UNL     1       5.847  -2.820  24.366  0.00  0.00    +0.113 C 
ATOM      8  C   UNL     1       6.827  -1.855  23.734  0.00  0.00    +0.117 C 
ATOM      9  N   UNL     1       7.879  -2.455  23.051  0.00  0.00    -0.152 NA
ATOM     10  C   UNL     1       7.776  -3.830  22.826  0.00  0.00    +0.117 C 
ATOM     11  C   UNL     1       7.545  -4.634  24.087  0.00  0.00    +0.113 C 
BRANCH   5  12
ATOM     12  C   UNL     1       7.660  -5.028  26.848  0.00  0.00    +0.180 C 
ATOM     13 CL   UNL     1       6.640  -5.822  28.072  0.00  0.00    -0.103 Cl
ENDBRANCH   5  12
ENDBRANCH   1   9
BRANCH   1  14
ATOM     14  C   UNL     1      10.095  -1.032  22.267  0.00  0.00    +0.123 A 
ATOM     15  C   UNL     1       9.053  -0.750  21.282  0.00  0.00    +0.026 A 
ATOM     16  C   UNL     1       8.275   0.433  20.739  0.00  0.00    +0.077 A 
ATOM     17  C   UNL     1       8.773   1.556  21.580  0.00  0.00    +0.290 A 
ATOM     18  C   UNL     1       9.990   1.505  22.376  0.00  0.00    +0.077 A 
ATOM     19  C   UNL     1      10.455   0.316  23.111  0.00  0.00    +0.026 A 
BRANCH  17  20
ATOM     20  N   UNL     1       7.906   1.997  22.232  0.00  0.00    +0.081 N 
ATOM     21  O   UNL     1       7.038   1.670  23.229  0.00  0.00    -0.576 OA
ATOM     22  O   UNL     1       7.638   3.158  21.954  0.00  0.00    +0.041 OA
ENDBRANCH  17  20
ENDBRANCH   1  14
TORSDOF 4
ENDMDL
MODEL 3
REMARK VINA RESULT:      -6.6      2.600      6.165
REMARK  Name = 
REMARK  4 active torsions:
REMARK  status: ('A' for Active; 'I' for Inactive)
REMARK    1  A    between atoms: C_2  and  C_3
REMARK    2  A    between atoms: N_8  and  S_9
REMARK    3  A    between atoms: S_9  and  C_12
REMARK    4  A    between atoms: C_15  and  N_16
REMARK                            x       y       z     vdW  Elec       q    Type
REMARK                         _______ _______ _______ _____ _____    ______ ____
ROOT
ATOM      1  S   UNL     1       8.702  -1.698  23.603  0.00  0.00    +0.063 S 
ATOM      2  O   UNL     1       7.697  -0.736  23.891  0.00  0.00    -0.153 OA
ATOM      3  O   UNL     1       8.386  -2.629  22.528  0.00  0.00    -0.153 OA
ENDROOT
BRANCH   1   9
ATOM      4  O   UNL     1       7.408  -5.434  23.017  0.00  0.00    -0.273 OA
ATOM      5  C   UNL     1       6.784  -5.227  24.041  0.00  0.00    +0.242 C 
ATOM      6  N   UNL     1       7.422  -4.714  25.133  0.00  0.00    -0.276 N 
ATOM      7  C   UNL     1       8.860  -4.977  25.261  0.00  0.00    +0.113 C 
ATOM      8  C   UNL     1       9.609  -3.816  24.643  0.00  0.00    +0.117 C 
ATOM      9  N   UNL     1       9.077  -2.562  24.924  0.00  0.00    -0.152 NA
ATOM     10  C   UNL     1       8.090  -2.507  25.912  0.00  0.00    +0.117 C 
ATOM     11  C   UNL     1       6.927  -3.441  25.658  0.00  0.00    +0.113 C 
BRANCH   5  12
ATOM     12  C   UNL     1       5.287  -4.990  24.014  0.00  0.00    +0.180 C 
ATOM     13 CL   UNL     1       4.881  -3.768  22.784  0.00  0.00    -0.103 Cl
ENDBRANCH   5  12
ENDBRANCH   1   9
BRANCH   1  14
ATOM     14  C   UNL     1      10.197  -0.835  23.104  0.00  0.00    +0.123 A 
ATOM     15  C   UNL     1       9.821   0.129  22.072  0.00  0.00    +0.026 A 
ATOM     16  C   UNL     1       9.745   1.631  21.876  0.00  0.00    +0.077 A 
ATOM     17  C   UNL     1      10.136   2.149  23.216  0.00  0.00    +0.290 A 
ATOM     18  C   UNL     1      10.812   1.357  24.233  0.00  0.00    +0.077 A 
ATOM     19  C   UNL     1      10.536  -0.065  24.501  0.00  0.00    +0.026 A 
BRANCH  17  20
ATOM     20  N   UNL     1       9.246   2.729  23.709  0.00  0.00    +0.081 N 
ATOM     21  O   UNL     1       8.638   2.947  24.907  0.00  0.00    -0.576 OA
ATOM     22  O   UNL     1       8.593   3.379  22.904  0.00  0.00    +0.041 OA
ENDBRANCH  17  20
ENDBRANCH   1  14
TORSDOF 4
ENDMDL
MODEL 4
REMARK VINA RESULT:      -6.5      2.630      5.908
REMARK  Name = 
REMARK  4 active torsions:
REMARK  status: ('A' for Active; 'I' for Inactive)
REMARK    1  A    between atoms: C_2  and  C_3
REMARK    2  A    between atoms: N_8  and  S_9
REMARK    3  A    between atoms: S_9  and  C_12
REMARK    4  A    between atoms: C_15  and  N_16
REMARK                            x       y       z     vdW  Elec       q    Type
REMARK                         _______ _______ _______ _____ _____    ______ ____
ROOT
ATOM      1  S   UNL     1       9.405  -1.900  23.246  0.00  0.00    +0.063 S 
ATOM      2  O   UNL     1       8.730  -2.228  22.039  0.00  0.00    -0.153 OA
ATOM      3  O   UNL     1      10.244  -2.955  23.799  0.00  0.00    -0.153 OA
ENDROOT
BRANCH   1   9
ATOM      4  O   UNL     1       8.002  -5.200  25.013  0.00  0.00    -0.273 OA
ATOM      5  C   UNL     1       6.923  -4.755  24.666  0.00  0.00    +0.242 C 
ATOM      6  N   UNL     1       6.609  -3.454  24.930  0.00  0.00    -0.276 N 
ATOM      7  C   UNL     1       7.258  -2.823  26.085  0.00  0.00    +0.113 C 
ATOM      8  C   UNL     1       8.504  -2.115  25.597  0.00  0.00    +0.117 C 
ATOM      9  N   UNL     1       8.356  -1.437  24.393  0.00  0.00    -0.152 NA
ATOM     10  C   UNL     1       7.052  -1.288  23.914  0.00  0.00    +0.117 C 
ATOM     11  C   UNL     1       6.301  -2.595  23.786  0.00  0.00    +0.113 C 
BRANCH   5  12
ATOM     12  C   UNL     1       6.155  -5.369  23.512  0.00  0.00    +0.180 C 
ATOM     13 CL   UNL     1       7.275  -5.841  22.211  0.00  0.00    -0.103 Cl
ENDBRANCH   5  12
ENDBRANCH   1   9
BRANCH   1  14
ATOM     14  C   UNL     1      10.489  -0.502  22.935  0.00  0.00    +0.123 A 
ATOM     15  C   UNL     1       9.805   0.381  21.993  0.00  0.00    +0.026 A 
ATOM     16  C   UNL     1       9.189   1.766  21.955  0.00  0.00    +0.077 A 
ATOM     17  C   UNL     1       9.340   2.221  23.365  0.00  0.00    +0.290 A 
ATOM     18  C   UNL     1      10.240   1.608  24.330  0.00  0.00    +0.077 A 
ATOM     19  C   UNL     1      10.499   0.161  24.426  0.00  0.00    +0.026 A 
BRANCH  17  20
ATOM     20  N   UNL     1       8.291   2.375  23.862  0.00  0.00    +0.081 N 
ATOM     21  O   UNL     1       6.960   2.200  23.637  0.00  0.00    -0.576 OA
ATOM     22  O   UNL     1       8.356   2.876  24.976  0.00  0.00    +0.041 OA
ENDBRANCH  17  20
ENDBRANCH   1  14
TORSDOF 4
ENDMDL
MODEL 5
REMARK VINA RESULT:      -6.3      2.507      6.032
REMARK  Name = 
REMARK  4 active torsions:
REMARK  status: ('A' for Active; 'I' for Inactive)
REMARK    1  A    between atoms: C_2  and  C_3
REMARK    2  A    between atoms: N_8  and  S_9
REMARK    3  A    between atoms: S_9  and  C_12
REMARK    4  A    between atoms: C_15  and  N_16
REMARK                            x       y       z     vdW  Elec       q    Type
REMARK                         _______ _______ _______ _____ _____    ______ ____
ROOT
ATOM      1  S   UNL     1       7.696  -1.442  25.164  0.00  0.00    +0.063 S 
ATOM      2  O   UNL     1       7.556  -0.100  25.611  0.00  0.00    -0.153 OA
ATOM      3  O   UNL     1       6.815  -1.830  24.070  0.00  0.00    -0.153 OA
ENDROOT
BRANCH   1   9
ATOM      4  O   UNL     1       8.546  -5.098  23.791  0.00  0.00    -0.273 OA
ATOM      5  C   UNL     1       7.408  -5.342  24.148  0.00  0.00    +0.242 C 
ATOM      6  N   UNL     1       6.998  -4.982  25.399  0.00  0.00    -0.276 N 
ATOM      7  C   UNL     1       8.025  -4.874  26.442  0.00  0.00    +0.113 C 
ATOM      8  C   UNL     1       8.490  -3.435  26.499  0.00  0.00    +0.117 C 
ATOM      9  N   UNL     1       7.478  -2.489  26.383  0.00  0.00    -0.152 NA
ATOM     10  C   UNL     1       6.165  -2.962  26.471  0.00  0.00    +0.117 C 
ATOM     11  C   UNL     1       5.856  -4.072  25.490  0.00  0.00    +0.113 C 
BRANCH   5  12
ATOM     12  C   UNL     1       6.289  -5.515  23.141  0.00  0.00    +0.180 C 
ATOM     13 CL   UNL     1       6.955  -5.969  21.554  0.00  0.00    -0.103 Cl
ENDBRANCH   5  12
ENDBRANCH   1   9
BRANCH   1  14
ATOM     14  C   UNL     1       9.375  -1.677  24.569  0.00  0.00    +0.123 A 
ATOM     15  C   UNL     1       9.297  -1.951  23.136  0.00  0.00    +0.026 A 
ATOM     16  C   UNL     1       9.684  -1.306  21.820  0.00  0.00    +0.077 A 
ATOM     17  C   UNL     1      10.238   0.006  22.257  0.00  0.00    +0.290 A 
ATOM     18  C   UNL     1      10.655   0.303  23.619  0.00  0.00    +0.077 A 
ATOM     19  C   UNL     1       9.959  -0.175  24.826  0.00  0.00    +0.026 A 
BRANCH  17  20
ATOM     20  N   UNL     1       9.578   0.885  21.856  0.00  0.00    +0.081 N 
ATOM     21  O   UNL     1       8.384   1.146  21.257  0.00  0.00    -0.576 OA
ATOM     22  O   UNL     1      10.106   1.982  21.989  0.00  0.00    +0.041 OA
ENDBRANCH  17  20
ENDBRANCH   1  14
TORSDOF 4
ENDMDL
MODEL 6
REMARK VINA RESULT:      -6.2      3.105      6.261
REMARK  Name = 
REMARK  4 active torsions:
REMARK  status: ('A' for Active; 'I' for Inactive)
REMARK    1  A    between atoms: C_2  and  C_3
REMARK    2  A    between atoms: N_8  and  S_9
REMARK    3  A    between atoms: S_9  and  C_12
REMARK    4  A    between atoms: C_15  and  N_16
REMARK                            x       y       z     vdW  Elec       q    Type
REMARK                         _______ _______ _______ _____ _____    ______ ____
ROOT
ATOM      1  S   UNL     1       7.631  -1.269  22.031  0.00  0.00    +0.063 S 
ATOM      2  O   UNL     1       6.390  -1.764  21.546  0.00  0.00    -0.153 OA
ATOM      3  O   UNL     1       8.764  -2.172  21.885  0.00  0.00    -0.153 OA
ENDROOT
BRANCH   1   9
ATOM      4  O   UNL     1       8.884  -4.373  24.215  0.00  0.00    -0.273 OA
ATOM      5  C   UNL     1       7.777  -4.286  24.715  0.00  0.00    +0.242 C 
ATOM      6  N   UNL     1       7.321  -3.076  25.148  0.00  0.00    -0.276 N 
ATOM      7  C   UNL     1       8.323  -2.081  25.550  0.00  0.00    +0.113 C 
ATOM      8  C   UNL     1       8.628  -1.207  24.353  0.00  0.00    +0.117 C 
ATOM      9  N   UNL     1       7.519  -0.849  23.594  0.00  0.00    -0.152 NA
ATOM     10  C   UNL     1       6.266  -1.124  24.147  0.00  0.00    +0.117 C 
ATOM     11  C   UNL     1       6.086  -2.573  24.546  0.00  0.00    +0.113 C 
BRANCH   5  12
ATOM     12  C   UNL     1       6.690  -5.293  24.394  0.00  0.00    +0.180 C 
ATOM     13 CL   UNL     1       5.955  -5.903  25.897  0.00  0.00    -0.103 Cl
ENDBRANCH   5  12
ENDBRANCH   1   9
BRANCH   1  14
ATOM     14  C   UNL     1       8.050   0.221  21.120  0.00  0.00    +0.123 A 
ATOM     15  C   UNL     1       7.302   1.325  21.718  0.00  0.00    +0.026 A 
ATOM     16  C   UNL     1       7.560   2.594  22.507  0.00  0.00    +0.077 A 
ATOM     17  C   UNL     1       9.034   2.548  22.712  0.00  0.00    +0.290 A 
ATOM     18  C   UNL     1       9.940   1.705  21.948  0.00  0.00    +0.077 A 
ATOM     19  C   UNL     1       9.630   0.333  21.508  0.00  0.00    +0.026 A 
BRANCH  17  20
ATOM     20  N   UNL     1       9.288   2.452  23.851  0.00  0.00    +0.081 N 
ATOM     21  O   UNL     1       8.704   2.332  25.075  0.00  0.00    -0.576 OA
ATOM     22  O   UNL     1      10.490   2.467  24.079  0.00  0.00    +0.041 OA
ENDBRANCH  17  20
ENDBRANCH   1  14
TORSDOF 4
ENDMDL
MODEL 7
REMARK VINA RESULT:      -6.2      1.466      1.774
REMARK  Name = 
REMARK  4 active torsions:
REMARK  status: ('A' for Active; 'I' for Inactive)
REMARK    1  A    between atoms: C_2  and  C_3
REMARK    2  A    between atoms: N_8  and  S_9
REMARK    3  A    between atoms: S_9  and  C_12
REMARK    4  A    between atoms: C_15  and  N_16
REMARK                            x       y       z     vdW  Elec       q    Type
REMARK                         _______ _______ _______ _____ _____    ______ ____
ROOT
ATOM      1  S   UNL     1       8.148  -1.421  23.709  0.00  0.00    +0.063 S 
ATOM      2  O   UNL     1       7.780  -2.493  22.852  0.00  0.00    -0.153 OA
ATOM      3  O   UNL     1       7.056  -0.552  24.127  0.00  0.00    -0.153 OA
ENDROOT
BRANCH   1   9
ATOM      4  O   UNL     1       6.316   1.528  21.729  0.00  0.00    -0.273 OA
ATOM      5  C   UNL     1       6.931   1.081  20.779  0.00  0.00    +0.242 C 
ATOM      6  N   UNL     1       8.269   0.839  20.890  0.00  0.00    -0.276 N 
ATOM      7  C   UNL     1       9.021   1.638  21.865  0.00  0.00    +0.113 C 
ATOM      8  C   UNL     1       9.073   0.867  23.167  0.00  0.00    +0.117 C 
ATOM      9  N   UNL     1       9.295  -0.498  23.028  0.00  0.00    -0.152 NA
ATOM     10  C   UNL     1       9.676  -0.945  21.760  0.00  0.00    +0.117 C 
ATOM     11  C   UNL     1       8.721  -0.533  20.661  0.00  0.00    +0.113 C 
BRANCH   5  12
ATOM     12  C   UNL     1       6.232   0.281  19.698  0.00  0.00    +0.180 C 
ATOM     13 CL   UNL     1       6.314   1.147  18.144  0.00  0.00    -0.103 Cl
ENDBRANCH   5  12
ENDBRANCH   1   9
BRANCH   1  14
ATOM     14  C   UNL     1       8.855  -2.105  25.213  0.00  0.00    +0.123 A 
ATOM     15  C   UNL     1       7.756  -2.329  26.150  0.00  0.00    +0.026 A 
ATOM     16  C   UNL     1       7.032  -3.481  26.818  0.00  0.00    +0.077 A 
ATOM     17  C   UNL     1       7.692  -4.670  26.208  0.00  0.00    +0.290 A 
ATOM     18  C   UNL     1       8.967  -4.627  25.508  0.00  0.00    +0.077 A 
ATOM     19  C   UNL     1       9.397  -3.528  24.627  0.00  0.00    +0.026 A 
BRANCH  17  20
ATOM     20  N   UNL     1       6.925  -5.285  25.574  0.00  0.00    +0.081 N 
ATOM     21  O   UNL     1       6.411  -5.392  24.318  0.00  0.00    -0.576 OA
ATOM     22  O   UNL     1       6.345  -6.146  26.222  0.00  0.00    +0.041 OA
ENDBRANCH  17  20
ENDBRANCH   1  14
TORSDOF 4
ENDMDL
MODEL 8
REMARK VINA RESULT:      -6.2      2.692      6.360
REMARK  Name = 
REMARK  4 active torsions:
REMARK  status: ('A' for Active; 'I' for Inactive)
REMARK    1  A    between atoms: C_2  and  C_3
REMARK    2  A    between atoms: N_8  and  S_9
REMARK    3  A    between atoms: S_9  and  C_12
REMARK    4  A    between atoms: C_15  and  N_16
REMARK                            x       y       z     vdW  Elec       q    Type
REMARK                         _______ _______ _______ _____ _____    ______ ____
ROOT
ATOM      1  S   UNL     1       7.615  -1.291  23.867  0.00  0.00    +0.063 S 
ATOM      2  O   UNL     1       6.508  -0.871  24.653  0.00  0.00    -0.153 OA
ATOM      3  O   UNL     1       7.309  -2.264  22.827  0.00  0.00    -0.153 OA
ENDROOT
BRANCH   1   9
ATOM      4  O   UNL     1       7.297  -5.275  23.766  0.00  0.00    -0.273 OA
ATOM      5  C   UNL     1       7.201  -5.155  24.973  0.00  0.00    +0.242 C 
ATOM      6  N   UNL     1       8.106  -4.396  25.655  0.00  0.00    -0.276 N 
ATOM      7  C   UNL     1       9.443  -4.248  25.067  0.00  0.00    +0.113 C 
ATOM      8  C   UNL     1       9.454  -2.986  24.231  0.00  0.00    +0.117 C 
ATOM      9  N   UNL     1       8.793  -1.904  24.800  0.00  0.00    -0.152 NA
ATOM     10  C   UNL     1       8.419  -2.031  26.140  0.00  0.00    +0.117 C 
ATOM     11  C   UNL     1       7.586  -3.263  26.421  0.00  0.00    +0.113 C 
BRANCH   5  12
ATOM     12  C   UNL     1       5.870  -5.334  25.676  0.00  0.00    +0.180 C 
ATOM     13 CL   UNL     1       4.552  -4.681  24.673  0.00  0.00    -0.103 Cl
ENDBRANCH   5  12
ENDBRANCH   1   9
BRANCH   1  14
ATOM     14  C   UNL     1       8.304   0.143  23.033  0.00  0.00    +0.123 A 
ATOM     15  C   UNL     1       8.791  -0.302  21.729  0.00  0.00    +0.026 A 
ATOM     16  C   UNL     1       8.475  -0.113  20.258  0.00  0.00    +0.077 A 
ATOM     17  C   UNL     1       7.260   0.748  20.301  0.00  0.00    +0.290 A 
ATOM     18  C   UNL     1       6.836   1.505  21.468  0.00  0.00    +0.077 A 
ATOM     19  C   UNL     1       6.943   1.025  22.857  0.00  0.00    +0.026 A 
BRANCH  17  20
ATOM     20  N   UNL     1       6.338   0.181  19.854  0.00  0.00    +0.081 N 
ATOM     21  O   UNL     1       5.808  -1.065  19.715  0.00  0.00    -0.576 OA
ATOM     22  O   UNL     1       5.541   0.923  19.296  0.00  0.00    +0.041 OA
ENDBRANCH  17  20
ENDBRANCH   1  14
TORSDOF 4
ENDMDL
MODEL 9
REMARK VINA RESULT:      -6.2      2.695      6.279
REMARK  Name = 
REMARK  4 active torsions:
REMARK  status: ('A' for Active; 'I' for Inactive)
REMARK    1  A    between atoms: C_2  and  C_3
REMARK    2  A    between atoms: N_8  and  S_9
REMARK    3  A    between atoms: S_9  and  C_12
REMARK    4  A    between atoms: C_15  and  N_16
REMARK                            x       y       z     vdW  Elec       q    Type
REMARK                         _______ _______ _______ _____ _____    ______ ____
ROOT
ATOM      1  S   UNL     1       8.609  -2.527  24.188  0.00  0.00    +0.063 S 
ATOM      2  O   UNL     1       8.851  -2.424  25.585  0.00  0.00    -0.153 OA
ATOM      3  O   UNL     1       7.410  -1.851  23.711  0.00  0.00    -0.153 OA
ENDROOT
BRANCH   1   9
ATOM      4  O   UNL     1       4.777  -3.653  24.349  0.00  0.00    -0.273 OA
ATOM      5  C   UNL     1       5.207  -4.506  25.103  0.00  0.00    +0.242 C 
ATOM      6  N   UNL     1       6.293  -5.248  24.740  0.00  0.00    -0.276 N 
ATOM      7  C   UNL     1       6.535  -5.433  23.304  0.00  0.00    +0.113 C 
ATOM      8  C   UNL     1       7.489  -4.351  22.844  0.00  0.00    +0.117 C 
ATOM      9  N   UNL     1       8.531  -4.079  23.723  0.00  0.00    -0.152 NA
ATOM     10  C   UNL     1       8.711  -4.977  24.779  0.00  0.00    +0.117 C 
ATOM     11  C   UNL     1       7.465  -5.187  25.612  0.00  0.00    +0.113 C 
BRANCH   5  12
ATOM     12  C   UNL     1       4.968  -4.425  26.598  0.00  0.00    +0.180 C 
ATOM     13 CL   UNL     1       5.285  -2.774  27.182  0.00  0.00    -0.103 Cl
ENDBRANCH   5  12
ENDBRANCH   1   9
BRANCH   1  14
ATOM     14  C   UNL     1       9.991  -1.788  23.310  0.00  0.00    +0.123 A 
ATOM     15  C   UNL     1       9.510  -1.401  21.985  0.00  0.00    +0.026 A 
ATOM     16  C   UNL     1       9.252  -0.143  21.179  0.00  0.00    +0.077 A 
ATOM     17  C   UNL     1       9.561   0.934  22.159  0.00  0.00    +0.290 A 
ATOM     18  C   UNL     1      10.319   0.731  23.385  0.00  0.00    +0.077 A 
ATOM     19  C   UNL     1      10.217  -0.466  24.238  0.00  0.00    +0.026 A 
BRANCH  17  20
ATOM     20  N   UNL     1       8.601   1.560  22.399  0.00  0.00    +0.081 N 
ATOM     21  O   UNL     1       7.252   1.445  22.543  0.00  0.00    -0.576 OA
ATOM     22  O   UNL     1       8.835   2.746  22.588  0.00  0.00    +0.041 OA
ENDBRANCH  17  20
ENDBRANCH   1  14
TORSDOF 4
ENDMDL
