MODEL 1
REMARK VINA RESULT:      -6.6      0.000      0.000
REMARK  Name = 
REMARK  4 active torsions:
REMARK  status: ('A' for Active; 'I' for Inactive)
REMARK    1  A    between atoms: C_2  and  C_4
REMARK    2  A    between atoms: C_7  and  S_8
REMARK    3  A    between atoms: S_8  and  N_11
REMARK    4  A    between atoms: C_15  and  C_17
REMARK                            x       y       z     vdW  Elec       q    Type
REMARK                         _______ _______ _______ _____ _____    ______ ____
ROOT
ATOM      1  S   UNL     1       7.436  -1.293  22.165  0.00  0.00    +0.063 S 
ATOM      2  O   UNL     1       8.702  -1.985  22.015  0.00  0.00    -0.153 OA
ATOM      3  O   UNL     1       6.325  -2.081  21.597  0.00  0.00    -0.153 OA
ENDROOT
BRANCH   1   4
ATOM      4  N   UNL     1       7.124  -1.039  23.718  0.00  0.00    -0.152 NA
ATOM      5  C   UNL     1       5.954  -1.668  24.170  0.00  0.00    +0.117 C 
ATOM      6  C   UNL     1       6.054  -3.138  24.405  0.00  0.00    +0.113 C 
ATOM      7  N   UNL     1       7.380  -3.665  24.262  0.00  0.00    -0.276 N 
ATOM      8  C   UNL     1       7.544  -4.931  23.793  0.00  0.00    +0.242 C 
ATOM      9  O   UNL     1       8.623  -5.473  23.795  0.00  0.00    -0.273 OA
ATOM     10  C   UNL     1       8.552  -2.853  24.499  0.00  0.00    +0.113 C 
ATOM     11  C   UNL     1       8.236  -1.388  24.527  0.00  0.00    +0.117 C 
BRANCH   8  12
ATOM     12  C   UNL     1       6.321  -5.577  23.185  0.00  0.00    +0.180 C 
ATOM     13 CL   UNL     1       6.556  -5.776  21.428  0.00  0.00    -0.103 Cl
ENDBRANCH   8  12
ENDBRANCH   1   4
BRANCH   1  17
ATOM     14  C   UNL     1       9.217   2.417  22.787  0.00  0.00    +0.035 A 
ATOM     15  C   UNL     1       7.803   2.471  22.393  0.00  0.00    +0.004 A 
ATOM     16  C   UNL     1       6.812   1.369  21.870  0.00  0.00    +0.020 A 
ATOM     17  C   UNL     1       7.579   0.214  21.190  0.00  0.00    +0.122 A 
ATOM     18  C   UNL     1       9.026   0.503  21.110  0.00  0.00    +0.020 A 
ATOM     19  C   UNL     1      10.015   1.215  22.008  0.00  0.00    +0.004 A 
BRANCH  14  21
ATOM     20  C   UNL     1       8.220   2.473  25.044  0.00  0.00    +0.077 C 
ATOM     21  C   UNL     1       9.466   2.181  24.178  0.00  0.00    +0.173 C 
ATOM     22  O   UNL     1      10.303   1.442  24.589  0.00  0.00    -0.291 OA
ENDBRANCH  14  21
ENDBRANCH   1  17
TORSDOF 4
ENDMDL
MODEL 2
REMARK VINA RESULT:      -6.3      1.566      2.033
REMARK  Name = 
REMARK  4 active torsions:
REMARK  status: ('A' for Active; 'I' for Inactive)
REMARK    1  A    between atoms: C_2  and  C_4
REMARK    2  A    between atoms: C_7  and  S_8
REMARK    3  A    between atoms: S_8  and  N_11
REMARK    4  A    between atoms: C_15  and  C_17
REMARK                            x       y       z     vdW  Elec       q    Type
REMARK                         _______ _______ _______ _____ _____    ______ ____
ROOT
ATOM      1  S   UNL     1       9.134  -2.090  23.473  0.00  0.00    +0.063 S 
ATOM      2  O   UNL     1       9.933  -3.109  24.126  0.00  0.00    -0.153 OA
ATOM      3  O   UNL     1       8.248  -2.677  22.449  0.00  0.00    -0.153 OA
ENDROOT
BRANCH   1   4
ATOM      4  N   UNL     1       8.218  -1.331  24.548  0.00  0.00    -0.152 NA
ATOM      5  C   UNL     1       6.841  -1.452  24.304  0.00  0.00    +0.117 C 
ATOM      6  C   UNL     1       6.228  -2.762  24.671  0.00  0.00    +0.113 C 
ATOM      7  N   UNL     1       7.120  -3.658  25.347  0.00  0.00    -0.276 N 
ATOM      8  C   UNL     1       6.987  -4.997  25.155  0.00  0.00    +0.242 C 
ATOM      9  O   UNL     1       7.610  -5.797  25.812  0.00  0.00    -0.273 OA
ATOM     10  C   UNL     1       8.226  -3.174  26.142  0.00  0.00    +0.113 C 
ATOM     11  C   UNL     1       8.540  -1.734  25.870  0.00  0.00    +0.117 C 
BRANCH   8  12
ATOM     12  C   UNL     1       6.091  -5.419  24.014  0.00  0.00    +0.180 C 
ATOM     13 CL   UNL     1       7.084  -5.826  22.589  0.00  0.00    -0.103 Cl
ENDBRANCH   8  12
ENDBRANCH   1   4
BRANCH   1  17
ATOM     14  C   UNL     1       9.657   2.032  23.221  0.00  0.00    +0.035 A 
ATOM     15  C   UNL     1       9.571   1.342  21.927  0.00  0.00    +0.004 A 
ATOM     16  C   UNL     1       9.580  -0.182  21.543  0.00  0.00    +0.020 A 
ATOM     17  C   UNL     1      10.304  -1.019  22.621  0.00  0.00    +0.122 A 
ATOM     18  C   UNL     1      10.892  -0.156  23.665  0.00  0.00    +0.020 A 
ATOM     19  C   UNL     1      10.477   1.141  24.327  0.00  0.00    +0.004 A 
BRANCH  14  21
ATOM     20  C   UNL     1       7.246   2.388  22.828  0.00  0.00    +0.077 C 
ATOM     21  C   UNL     1       8.405   2.334  23.849  0.00  0.00    +0.173 C 
ATOM     22  O   UNL     1       8.166   2.119  24.995  0.00  0.00    -0.291 OA
ENDBRANCH  14  21
ENDBRANCH   1  17
TORSDOF 4
ENDMDL
MODEL 3
REMARK VINA RESULT:      -6.3      2.524      6.138
REMARK  Name = 
REMARK  4 active torsions:
REMARK  status: ('A' for Active; 'I' for Inactive)
REMARK    1  A    between atoms: C_2  and  C_4
REMARK    2  A    between atoms: C_7  and  S_8
REMARK    3  A    between atoms: S_8  and  N_11
REMARK    4  A    between atoms: C_15  and  C_17
REMARK                            x       y       z     vdW  Elec       q    Type
REMARK                         _______ _______ _______ _____ _____    ______ ____
ROOT
ATOM      1  S   UNL     1       8.176  -1.681  24.175  0.00  0.00    +0.063 S 
ATOM      2  O   UNL     1       7.482  -0.521  24.701  0.00  0.00    -0.153 OA
ATOM      3  O   UNL     1       7.630  -2.081  22.863  0.00  0.00    -0.153 OA
ENDROOT
BRANCH   1   4
ATOM      4  N   UNL     1       9.735  -1.356  23.987  0.00  0.00    -0.152 NA
ATOM      5  C   UNL     1      10.228  -1.665  22.710  0.00  0.00    +0.117 C 
ATOM      6  C   UNL     1       9.873  -0.703  21.626  0.00  0.00    +0.113 C 
ATOM      7  N   UNL     1       9.190   0.472  22.086  0.00  0.00    -0.276 N 
ATOM      8  C   UNL     1       8.265   1.059  21.279  0.00  0.00    +0.242 C 
ATOM      9  O   UNL     1       7.774   2.128  21.553  0.00  0.00    -0.273 OA
ATOM     10  C   UNL     1       9.377   0.987  23.423  0.00  0.00    +0.113 C 
ATOM     11  C   UNL     1      10.023  -0.011  24.335  0.00  0.00    +0.117 C 
BRANCH   8  12
ATOM     12  C   UNL     1       7.823   0.254  20.080  0.00  0.00    +0.180 C 
ATOM     13 CL   UNL     1       6.275   0.892  19.465  0.00  0.00    -0.103 Cl
ENDBRANCH   8  12
ENDBRANCH   1   4
BRANCH   1  17
ATOM     14  C   UNL     1       6.320  -5.393  23.861  0.00  0.00    +0.035 A 
ATOM     15  C   UNL     1       5.803  -4.535  24.936  0.00  0.00    +0.004 A 
ATOM     16  C   UNL     1       6.318  -3.178  25.540  0.00  0.00    +0.020 A 
ATOM     17  C   UNL     1       7.839  -3.021  25.328  0.00  0.00    +0.122 A 
ATOM     18  C   UNL     1       8.425  -4.232  24.718  0.00  0.00    +0.020 A 
ATOM     19  C   UNL     1       7.945  -5.243  23.698  0.00  0.00    +0.004 A 
BRANCH  14  21
ATOM     20  C   UNL     1       6.671  -5.766  21.447  0.00  0.00    +0.077 C 
ATOM     21  C   UNL     1       5.795  -5.137  22.554  0.00  0.00    +0.173 C 
ATOM     22  O   UNL     1       4.651  -4.900  22.330  0.00  0.00    -0.291 OA
ENDBRANCH  14  21
ENDBRANCH   1  17
TORSDOF 4
ENDMDL
MODEL 4
REMARK VINA RESULT:      -6.3      2.251      2.873
REMARK  Name = 
REMARK  4 active torsions:
REMARK  status: ('A' for Active; 'I' for Inactive)
REMARK    1  A    between atoms: C_2  and  C_4
REMARK    2  A    between atoms: C_7  and  S_8
REMARK    3  A    between atoms: S_8  and  N_11
REMARK    4  A    between atoms: C_15  and  C_17
REMARK                            x       y       z     vdW  Elec       q    Type
REMARK                         _______ _______ _______ _____ _____    ______ ____
ROOT
ATOM      1  S   UNL     1       8.089  -2.426  22.788  0.00  0.00    +0.063 S 
ATOM      2  O   UNL     1       7.420  -1.378  23.534  0.00  0.00    -0.153 OA
ATOM      3  O   UNL     1       8.813  -3.346  23.687  0.00  0.00    -0.153 OA
ENDROOT
BRANCH   1   4
ATOM      4  N   UNL     1       7.019  -3.283  21.956  0.00  0.00    -0.152 NA
ATOM      5  C   UNL     1       7.161  -4.670  22.110  0.00  0.00    +0.117 C 
ATOM      6  C   UNL     1       6.654  -5.237  23.394  0.00  0.00    +0.113 C 
ATOM      7  N   UNL     1       5.969  -4.289  24.223  0.00  0.00    -0.276 N 
ATOM      8  C   UNL     1       6.046  -4.414  25.575  0.00  0.00    +0.242 C 
ATOM      9  O   UNL     1       5.371  -3.737  26.313  0.00  0.00    -0.273 OA
ATOM     10  C   UNL     1       5.289  -3.142  23.666  0.00  0.00    +0.113 C 
ATOM     11  C   UNL     1       5.694  -2.870  22.249  0.00  0.00    +0.117 C 
BRANCH   8  12
ATOM     12  C   UNL     1       7.089  -5.374  26.096  0.00  0.00    +0.180 C 
ATOM     13 CL   UNL     1       8.462  -4.461  26.775  0.00  0.00    -0.103 Cl
ENDBRANCH   8  12
ENDBRANCH   1   4
BRANCH   1  17
ATOM     14  C   UNL     1       9.905   1.318  22.884  0.00  0.00    +0.035 A 
ATOM     15  C   UNL     1       9.288   0.966  21.598  0.00  0.00    +0.004 A 
ATOM     16  C   UNL     1       8.688  -0.380  21.051  0.00  0.00    +0.020 A 
ATOM     17  C   UNL     1       9.317  -1.596  21.766  0.00  0.00    +0.122 A 
ATOM     18  C   UNL     1      10.392  -1.179  22.690  0.00  0.00    +0.020 A 
ATOM     19  C   UNL     1      10.610   0.017  23.591  0.00  0.00    +0.004 A 
BRANCH  14  21
ATOM     20  C   UNL     1       7.825   2.597  23.248  0.00  0.00    +0.077 C 
ATOM     21  C   UNL     1       9.015   1.839  23.879  0.00  0.00    +0.173 C 
ATOM     22  O   UNL     1       8.908   1.393  24.977  0.00  0.00    -0.291 OA
ENDBRANCH  14  21
ENDBRANCH   1  17
TORSDOF 4
ENDMDL
MODEL 5
REMARK VINA RESULT:      -6.2      2.861      6.084
REMARK  Name = 
REMARK  4 active torsions:
REMARK  status: ('A' for Active; 'I' for Inactive)
REMARK    1  A    between atoms: C_2  and  C_4
REMARK    2  A    between atoms: C_7  and  S_8
REMARK    3  A    between atoms: S_8  and  N_11
REMARK    4  A    between atoms: C_15  and  C_17
REMARK                            x       y       z     vdW  Elec       q    Type
REMARK                         _______ _______ _______ _____ _____    ______ ____
ROOT
ATOM      1  S   UNL     1       7.265  -1.124  22.781  0.00  0.00    +0.063 S 
ATOM      2  O   UNL     1       8.531  -1.655  23.248  0.00  0.00    -0.153 OA
ATOM      3  O   UNL     1       6.677  -0.197  23.767  0.00  0.00    -0.153 OA
ENDROOT
BRANCH   1   4
ATOM      4  N   UNL     1       7.474  -0.323  21.407  0.00  0.00    -0.152 NA
ATOM      5  C   UNL     1       7.002   0.998  21.445  0.00  0.00    +0.117 C 
ATOM      6  C   UNL     1       7.863   1.975  22.174  0.00  0.00    +0.113 C 
ATOM      7  N   UNL     1       9.119   1.438  22.611  0.00  0.00    -0.276 N 
ATOM      8  C   UNL     1       9.671   1.899  23.765  0.00  0.00    +0.242 C 
ATOM      9  O   UNL     1      10.791   1.591  24.099  0.00  0.00    -0.273 OA
ATOM     10  C   UNL     1       9.761   0.344  21.919  0.00  0.00    +0.113 C 
ATOM     11  C   UNL     1       8.828  -0.370  20.988  0.00  0.00    +0.117 C 
BRANCH   8  12
ATOM     12  C   UNL     1       8.772   2.735  24.645  0.00  0.00    +0.180 C 
ATOM     13 CL   UNL     1       9.221   4.455  24.504  0.00  0.00    -0.103 Cl
ENDBRANCH   8  12
ENDBRANCH   1   4
BRANCH   1  17
ATOM     14  C   UNL     1       7.179  -4.926  24.472  0.00  0.00    +0.035 A 
ATOM     15  C   UNL     1       7.091  -4.902  23.005  0.00  0.00    +0.004 A 
ATOM     16  C   UNL     1       6.886  -3.727  21.981  0.00  0.00    +0.020 A 
ATOM     17  C   UNL     1       6.159  -2.537  22.645  0.00  0.00    +0.122 A 
ATOM     18  C   UNL     1       5.749  -2.860  24.027  0.00  0.00    +0.020 A 
ATOM     19  C   UNL     1       6.352  -3.681  25.147  0.00  0.00    +0.004 A 
BRANCH  14  21
ATOM     20  C   UNL     1       8.481  -4.396  26.501  0.00  0.00    +0.077 C 
ATOM     21  C   UNL     1       8.500  -4.827  25.017  0.00  0.00    +0.173 C 
ATOM     22  O   UNL     1       9.442  -5.416  24.591  0.00  0.00    -0.291 OA
ENDBRANCH  14  21
ENDBRANCH   1  17
TORSDOF 4
ENDMDL
MODEL 6
REMARK VINA RESULT:      -6.2      2.210      3.359
REMARK  Name = 
REMARK  4 active torsions:
REMARK  status: ('A' for Active; 'I' for Inactive)
REMARK    1  A    between atoms: C_2  and  C_4
REMARK    2  A    between atoms: C_7  and  S_8
REMARK    3  A    between atoms: S_8  and  N_11
REMARK    4  A    between atoms: C_15  and  C_17
REMARK                            x       y       z     vdW  Elec       q    Type
REMARK                         _______ _______ _______ _____ _____    ______ ____
ROOT
ATOM      1  S   UNL     1       8.202  -2.032  24.118  0.00  0.00    +0.063 S 
ATOM      2  O   UNL     1       8.185  -2.790  22.882  0.00  0.00    -0.153 OA
ATOM      3  O   UNL     1       6.838  -1.641  24.525  0.00  0.00    -0.153 OA
ENDROOT
BRANCH   1   4
ATOM      4  N   UNL     1       8.841  -2.910  25.298  0.00  0.00    -0.152 NA
ATOM      5  C   UNL     1       7.968  -3.132  26.375  0.00  0.00    +0.117 C 
ATOM      6  C   UNL     1       6.909  -4.158  26.152  0.00  0.00    +0.113 C 
ATOM      7  N   UNL     1       7.028  -4.864  24.909  0.00  0.00    -0.276 N 
ATOM      8  C   UNL     1       5.901  -5.284  24.275  0.00  0.00    +0.242 C 
ATOM      9  O   UNL     1       5.950  -6.008  23.309  0.00  0.00    -0.273 OA
ATOM     10  C   UNL     1       8.305  -5.048  24.258  0.00  0.00    +0.113 C 
ATOM     11  C   UNL     1       9.361  -4.133  24.801  0.00  0.00    +0.117 C 
BRANCH   8  12
ATOM     12  C   UNL     1       4.599  -4.715  24.787  0.00  0.00    +0.180 C 
ATOM     13 CL   UNL     1       3.383  -4.723  23.482  0.00  0.00    -0.103 Cl
ENDBRANCH   8  12
ENDBRANCH   1   4
BRANCH   1  17
ATOM     14  C   UNL     1       8.005   0.828  21.101  0.00  0.00    +0.035 A 
ATOM     15  C   UNL     1       9.340   0.254  21.319  0.00  0.00    +0.004 A 
ATOM     16  C   UNL     1       9.915  -0.676  22.449  0.00  0.00    +0.020 A 
ATOM     17  C   UNL     1       9.109  -0.520  23.757  0.00  0.00    +0.122 A 
ATOM     18  C   UNL     1       8.088   0.541  23.635  0.00  0.00    +0.020 A 
ATOM     19  C   UNL     1       7.197   1.032  22.513  0.00  0.00    +0.004 A 
BRANCH  14  21
ATOM     20  C   UNL     1       7.416   0.245  18.776  0.00  0.00    +0.077 C 
ATOM     21  C   UNL     1       7.122   0.054  20.281  0.00  0.00    +0.173 C 
ATOM     22  O   UNL     1       6.567  -0.933  20.648  0.00  0.00    -0.291 OA
ENDBRANCH  14  21
ENDBRANCH   1  17
TORSDOF 4
ENDMDL
MODEL 7
REMARK VINA RESULT:      -6.1      2.434      3.413
REMARK  Name = 
REMARK  4 active torsions:
REMARK  status: ('A' for Active; 'I' for Inactive)
REMARK    1  A    between atoms: C_2  and  C_4
REMARK    2  A    between atoms: C_7  and  S_8
REMARK    3  A    between atoms: S_8  and  N_11
REMARK    4  A    between atoms: C_15  and  C_17
REMARK                            x       y       z     vdW  Elec       q    Type
REMARK                         _______ _______ _______ _____ _____    ______ ____
ROOT
ATOM      1  S   UNL     1       8.617  -2.427  24.025  0.00  0.00    +0.063 S 
ATOM      2  O   UNL     1       7.901  -1.760  25.095  0.00  0.00    -0.153 OA
ATOM      3  O   UNL     1       9.191  -3.707  24.481  0.00  0.00    -0.153 OA
ENDROOT
BRANCH   1   4
ATOM      4  N   UNL     1       7.626  -2.733  22.802  0.00  0.00    -0.152 NA
ATOM      5  C   UNL     1       7.423  -4.101  22.567  0.00  0.00    +0.117 C 
ATOM      6  C   UNL     1       6.505  -4.795  23.516  0.00  0.00    +0.113 C 
ATOM      7  N   UNL     1       5.858  -3.921  24.450  0.00  0.00    -0.276 N 
ATOM      8  C   UNL     1       5.570  -4.379  25.698  0.00  0.00    +0.242 C 
ATOM      9  O   UNL     1       4.896  -3.738  26.469  0.00  0.00    -0.273 OA
ATOM     10  C   UNL     1       5.600  -2.532  24.141  0.00  0.00    +0.113 C 
ATOM     11  C   UNL     1       6.391  -2.053  22.961  0.00  0.00    +0.117 C 
BRANCH   8  12
ATOM     12  C   UNL     1       6.220  -5.685  26.092  0.00  0.00    +0.180 C 
ATOM     13 CL   UNL     1       7.696  -5.360  27.040  0.00  0.00    -0.103 Cl
ENDBRANCH   8  12
ENDBRANCH   1   4
BRANCH   1  17
ATOM     14  C   UNL     1       8.927   1.300  22.197  0.00  0.00    +0.035 A 
ATOM     15  C   UNL     1       9.764   0.250  21.600  0.00  0.00    +0.004 A 
ATOM     16  C   UNL     1      10.117  -1.209  22.069  0.00  0.00    +0.020 A 
ATOM     17  C   UNL     1       9.990  -1.343  23.602  0.00  0.00    +0.122 A 
ATOM     18  C   UNL     1       9.683  -0.042  24.231  0.00  0.00    +0.020 A 
ATOM     19  C   UNL     1       8.857   1.161  23.829  0.00  0.00    +0.004 A 
BRANCH  14  21
ATOM     20  C   UNL     1       7.371   0.631  20.401  0.00  0.00    +0.077 C 
ATOM     21  C   UNL     1       7.560   1.321  21.772  0.00  0.00    +0.173 C 
ATOM     22  O   UNL     1       6.633   1.413  22.513  0.00  0.00    -0.291 OA
ENDBRANCH  14  21
ENDBRANCH   1  17
TORSDOF 4
ENDMDL
MODEL 8
REMARK VINA RESULT:      -6.1      2.782      5.800
REMARK  Name = 
REMARK  4 active torsions:
REMARK  status: ('A' for Active; 'I' for Inactive)
REMARK    1  A    between atoms: C_2  and  C_4
REMARK    2  A    between atoms: C_7  and  S_8
REMARK    3  A    between atoms: S_8  and  N_11
REMARK    4  A    between atoms: C_15  and  C_17
REMARK                            x       y       z     vdW  Elec       q    Type
REMARK                         _______ _______ _______ _____ _____    ______ ____
ROOT
ATOM      1  S   UNL     1       8.644  -0.189  24.899  0.00  0.00    +0.063 S 
ATOM      2  O   UNL     1       8.793  -0.794  26.209  0.00  0.00    -0.153 OA
ATOM      3  O   UNL     1       7.335   0.478  24.763  0.00  0.00    -0.153 OA
ENDROOT
BRANCH   1   4
ATOM      4  N   UNL     1       9.789   0.908  24.661  0.00  0.00    -0.152 NA
ATOM      5  C   UNL     1      10.608   0.640  23.553  0.00  0.00    +0.117 C 
ATOM      6  C   UNL     1      10.013   0.937  22.218  0.00  0.00    +0.113 C 
ATOM      7  N   UNL     1       8.734   1.584  22.277  0.00  0.00    -0.276 N 
ATOM      8  C   UNL     1       7.817   1.329  21.306  0.00  0.00    +0.242 C 
ATOM      9  O   UNL     1       6.788   1.956  21.226  0.00  0.00    -0.273 OA
ATOM     10  C   UNL     1       8.352   2.415  23.396  0.00  0.00    +0.113 C 
ATOM     11  C   UNL     1       9.240   2.214  24.587  0.00  0.00    +0.117 C 
BRANCH   8  12
ATOM     12  C   UNL     1       8.116   0.157  20.400  0.00  0.00    +0.180 C 
ATOM     13 CL   UNL     1       7.299   0.385  18.831  0.00  0.00    -0.103 Cl
ENDBRANCH   8  12
ENDBRANCH   1   4
BRANCH   1  17
ATOM     14  C   UNL     1       7.689  -4.235  25.101  0.00  0.00    +0.035 A 
ATOM     15  C   UNL     1       9.031  -3.945  24.580  0.00  0.00    +0.004 A 
ATOM     16  C   UNL     1       9.726  -2.603  24.147  0.00  0.00    +0.020 A 
ATOM     17  C   UNL     1       8.678  -1.551  23.722  0.00  0.00    +0.122 A 
ATOM     18  C   UNL     1       7.314  -2.119  23.726  0.00  0.00    +0.020 A 
ATOM     19  C   UNL     1       6.590  -3.131  24.588  0.00  0.00    +0.004 A 
BRANCH  14  21
ATOM     20  C   UNL     1       6.329  -3.442  27.002  0.00  0.00    +0.077 C 
ATOM     21  C   UNL     1       7.564  -4.241  26.528  0.00  0.00    +0.173 C 
ATOM     22  O   UNL     1       8.022  -5.083  27.234  0.00  0.00    -0.291 OA
ENDBRANCH  14  21
ENDBRANCH   1  17
TORSDOF 4
ENDMDL
MODEL 9
REMARK VINA RESULT:      -6.0      2.173      2.459
REMARK  Name = 
REMARK  4 active torsions:
REMARK  status: ('A' for Active; 'I' for Inactive)
REMARK    1  A    between atoms: C_2  and  C_4
REMARK    2  A    between atoms: C_7  and  S_8
REMARK    3  A    between atoms: S_8  and  N_11
REMARK    4  A    between atoms: C_15  and  C_17
REMARK                            x       y       z     vdW  Elec       q    Type
REMARK                         _______ _______ _______ _____ _____    ______ ____
ROOT
ATOM      1  S   UNL     1       8.046  -1.900  22.976  0.00  0.00    +0.063 S 
ATOM      2  O   UNL     1       7.787  -3.288  22.645  0.00  0.00    -0.153 OA
ATOM      3  O   UNL     1       6.876  -1.277  23.625  0.00  0.00    -0.153 OA
ENDROOT
BRANCH   1   4
ATOM      4  N   UNL     1       9.290  -1.793  23.982  0.00  0.00    -0.152 NA
ATOM      5  C   UNL     1       8.975  -1.188  25.208  0.00  0.00    +0.117 C 
ATOM      6  C   UNL     1       8.231  -2.039  26.181  0.00  0.00    +0.113 C 
ATOM      7  N   UNL     1       8.067  -3.401  25.764  0.00  0.00    -0.276 N 
ATOM      8  C   UNL     1       6.945  -4.077  26.130  0.00  0.00    +0.242 C 
ATOM      9  O   UNL     1       6.827  -5.263  25.933  0.00  0.00    -0.273 OA
ATOM     10  C   UNL     1       9.009  -4.043  24.875  0.00  0.00    +0.113 C 
ATOM     11  C   UNL     1       9.900  -3.059  24.178  0.00  0.00    +0.117 C 
BRANCH   8  12
ATOM     12  C   UNL     1       5.825  -3.242  26.704  0.00  0.00    +0.180 C 
ATOM     13 CL   UNL     1       4.385  -3.365  25.658  0.00  0.00    -0.103 Cl
ENDBRANCH   8  12
ENDBRANCH   1   4
BRANCH   1  17
ATOM     14  C   UNL     1       8.720   2.055  21.867  0.00  0.00    +0.035 A 
ATOM     15  C   UNL     1       7.604   1.402  21.170  0.00  0.00    +0.004 A 
ATOM     16  C   UNL     1       7.127  -0.095  21.115  0.00  0.00    +0.020 A 
ATOM     17  C   UNL     1       8.299  -1.059  21.404  0.00  0.00    +0.122 A 
ATOM     18  C   UNL     1       9.575  -0.328  21.542  0.00  0.00    +0.020 A 
ATOM     19  C   UNL     1       9.968   1.019  22.110  0.00  0.00    +0.004 A 
BRANCH  14  21
ATOM     20  C   UNL     1       9.577   2.344  24.164  0.00  0.00    +0.077 C 
ATOM     21  C   UNL     1       8.420   2.579  23.166  0.00  0.00    +0.173 C 
ATOM     22  O   UNL     1       7.644   3.459  23.366  0.00  0.00    -0.291 OA
ENDBRANCH  14  21
ENDBRANCH   1  17
TORSDOF 4
ENDMDL
