MODEL 1
REMARK VINA RESULT:      -6.2      0.000      0.000
REMARK  Name = 
REMARK  5 active torsions:
REMARK  status: ('A' for Active; 'I' for Inactive)
REMARK    1  A    between atoms: C_2  and  O_3
REMARK    2  A    between atoms: O_3  and  C_4
REMARK    3  A    between atoms: C_7  and  S_8
REMARK    4  A    between atoms: S_8  and  N_11
REMARK    5  A    between atoms: C_15  and  C_17
REMARK                            x       y       z     vdW  Elec       q    Type
REMARK                         _______ _______ _______ _____ _____    ______ ____
ROOT
ATOM      1  S   UNL     1       7.706  -1.504  23.876  0.00  0.00    +0.063 S 
ATOM      2  O   UNL     1       7.248  -0.158  23.958  0.00  0.00    -0.153 OA
ATOM      3  O   UNL     1       7.845  -2.008  22.511  0.00  0.00    -0.153 OA
ENDROOT
BRANCH   1   4
ATOM      4  N   UNL     1       9.161  -1.670  24.578  0.00  0.00    -0.152 NA
ATOM      5  C   UNL     1      10.098  -2.312  23.723  0.00  0.00    +0.117 C 
ATOM      6  C   UNL     1      10.255  -1.491  22.431  0.00  0.00    +0.113 C 
ATOM      7  N   UNL     1      10.101  -0.086  22.806  0.00  0.00    -0.276 N 
ATOM      8  C   UNL     1       9.544   0.789  21.970  0.00  0.00    +0.242 C 
ATOM      9  O   UNL     1      10.081   1.855  21.720  0.00  0.00    -0.273 OA
ATOM     10  C   UNL     1      10.527   0.292  24.149  0.00  0.00    +0.113 C 
ATOM     11  C   UNL     1       9.686  -0.505  25.155  0.00  0.00    +0.117 C 
BRANCH   8  12
ATOM     12  C   UNL     1       8.088   0.560  21.607  0.00  0.00    +0.180 C 
ATOM     13 CL   UNL     1       7.963   0.159  19.873  0.00  0.00    -0.103 Cl
ENDBRANCH   8  12
ENDBRANCH   1   4
BRANCH   1  17
ATOM     14  C   UNL     1       7.256  -5.286  26.191  0.00  0.00    +0.139 A 
ATOM     15  C   UNL     1       7.009  -3.934  26.756  0.00  0.00    +0.038 A 
ATOM     16  C   UNL     1       6.698  -2.567  26.173  0.00  0.00    +0.023 A 
ATOM     17  C   UNL     1       6.521  -2.592  24.673  0.00  0.00    +0.122 A 
ATOM     18  C   UNL     1       6.755  -3.930  24.096  0.00  0.00    +0.023 A 
ATOM     19  C   UNL     1       7.179  -5.286  24.554  0.00  0.00    +0.038 A 
BRANCH  14  20
ATOM     20  O   UNL     1       6.426  -6.227  26.706  0.00  0.00    -0.475 OA
BRANCH  20  22
ATOM     21  C   UNL     1       4.274  -6.902  26.059  0.00  0.00    +0.051 C 
ATOM     22  C   UNL     1       5.121  -6.080  27.013  0.00  0.00    +0.206 C 
ENDBRANCH  20  22
ENDBRANCH  14  20
ENDBRANCH   1  17
TORSDOF 5
ENDMDL
MODEL 2
REMARK VINA RESULT:      -6.2      2.440      6.911
REMARK  Name = 
REMARK  5 active torsions:
REMARK  status: ('A' for Active; 'I' for Inactive)
REMARK    1  A    between atoms: C_2  and  O_3
REMARK    2  A    between atoms: O_3  and  C_4
REMARK    3  A    between atoms: C_7  and  S_8
REMARK    4  A    between atoms: S_8  and  N_11
REMARK    5  A    between atoms: C_15  and  C_17
REMARK                            x       y       z     vdW  Elec       q    Type
REMARK                         _______ _______ _______ _____ _____    ______ ____
ROOT
ATOM      1  S   UNL     1       8.770  -2.047  23.650  0.00  0.00    +0.063 S 
ATOM      2  O   UNL     1       9.212  -3.273  24.223  0.00  0.00    -0.153 OA
ATOM      3  O   UNL     1       8.169  -2.186  22.325  0.00  0.00    -0.153 OA
ENDROOT
BRANCH   1   4
ATOM      4  N   UNL     1       7.654  -1.332  24.588  0.00  0.00    -0.152 NA
ATOM      5  C   UNL     1       6.439  -1.093  23.889  0.00  0.00    +0.117 C 
ATOM      6  C   UNL     1       5.878  -2.430  23.371  0.00  0.00    +0.113 C 
ATOM      7  N   UNL     1       6.234  -3.445  24.361  0.00  0.00    -0.276 N 
ATOM      8  C   UNL     1       6.504  -4.696  23.993  0.00  0.00    +0.242 C 
ATOM      9  O   UNL     1       5.974  -5.646  24.543  0.00  0.00    -0.273 OA
ATOM     10  C   UNL     1       6.337  -3.010  25.750  0.00  0.00    +0.113 C 
ATOM     11  C   UNL     1       7.435  -1.941  25.831  0.00  0.00    +0.117 C 
BRANCH   8  12
ATOM     12  C   UNL     1       7.720  -4.903  23.108  0.00  0.00    +0.180 C 
ATOM     13 CL   UNL     1       7.251  -5.834  21.660  0.00  0.00    -0.103 Cl
ENDBRANCH   8  12
ENDBRANCH   1   4
BRANCH   1  17
ATOM     14  C   UNL     1       9.985   2.219  23.207  0.00  0.00    +0.139 A 
ATOM     15  C   UNL     1      10.306   1.384  24.394  0.00  0.00    +0.038 A 
ATOM     16  C   UNL     1      10.390  -0.107  24.667  0.00  0.00    +0.023 A 
ATOM     17  C   UNL     1      10.171  -0.946  23.430  0.00  0.00    +0.122 A 
ATOM     18  C   UNL     1       9.859  -0.133  22.239  0.00  0.00    +0.023 A 
ATOM     19  C   UNL     1       9.633   1.302  21.895  0.00  0.00    +0.038 A 
BRANCH  14  20
ATOM     20  O   UNL     1      10.964   3.111  22.915  0.00  0.00    -0.475 OA
BRANCH  20  22
ATOM     21  C   UNL     1      12.586   4.780  23.214  0.00  0.00    +0.051 C 
ATOM     22  C   UNL     1      11.169   4.312  23.493  0.00  0.00    +0.206 C 
ENDBRANCH  20  22
ENDBRANCH  14  20
ENDBRANCH   1  17
TORSDOF 5
ENDMDL
MODEL 3
REMARK VINA RESULT:      -6.1      3.144      4.667
REMARK  Name = 
REMARK  5 active torsions:
REMARK  status: ('A' for Active; 'I' for Inactive)
REMARK    1  A    between atoms: C_2  and  O_3
REMARK    2  A    between atoms: O_3  and  C_4
REMARK    3  A    between atoms: C_7  and  S_8
REMARK    4  A    between atoms: S_8  and  N_11
REMARK    5  A    between atoms: C_15  and  C_17
REMARK                            x       y       z     vdW  Elec       q    Type
REMARK                         _______ _______ _______ _____ _____    ______ ____
ROOT
ATOM      1  S   UNL     1       9.787   1.165  22.921  0.00  0.00    +0.063 S 
ATOM      2  O   UNL     1      10.386   1.991  21.928  0.00  0.00    -0.153 OA
ATOM      3  O   UNL     1      10.356   1.326  24.258  0.00  0.00    -0.153 OA
ENDROOT
BRANCH   1   4
ATOM      4  N   UNL     1       8.198   1.474  23.058  0.00  0.00    -0.152 NA
ATOM      5  C   UNL     1       7.816   1.733  24.403  0.00  0.00    +0.117 C 
ATOM      6  C   UNL     1       8.610   2.939  24.935  0.00  0.00    +0.113 C 
ATOM      7  N   UNL     1       8.810   3.841  23.802  0.00  0.00    -0.276 N 
ATOM      8  C   UNL     1       9.915   4.578  23.700  0.00  0.00    +0.242 C 
ATOM      9  O   UNL     1       9.859   5.776  23.477  0.00  0.00    -0.273 OA
ATOM     10  C   UNL     1       7.779   3.849  22.770  0.00  0.00    +0.113 C 
ATOM     11  C   UNL     1       7.696   2.438  22.173  0.00  0.00    +0.117 C 
BRANCH   8  12
ATOM     12  C   UNL     1      11.226   3.829  23.541  0.00  0.00    +0.180 C 
ATOM     13 CL   UNL     1      12.559   4.998  23.341  0.00  0.00    -0.103 Cl
ENDBRANCH   8  12
ENDBRANCH   1   4
BRANCH   1  17
ATOM     14  C   UNL     1       8.158  -2.954  23.428  0.00  0.00    +0.139 A 
ATOM     15  C   UNL     1       8.158  -2.214  22.138  0.00  0.00    +0.038 A 
ATOM     16  C   UNL     1       8.942  -1.045  21.570  0.00  0.00    +0.023 A 
ATOM     17  C   UNL     1      10.033  -0.562  22.497  0.00  0.00    +0.122 A 
ATOM     18  C   UNL     1      10.054  -1.291  23.779  0.00  0.00    +0.023 A 
ATOM     19  C   UNL     1       9.265  -2.350  24.475  0.00  0.00    +0.038 A 
BRANCH  14  20
ATOM     20  O   UNL     1       8.336  -4.288  23.264  0.00  0.00    -0.475 OA
BRANCH  20  22
ATOM     21  C   UNL     1       7.177  -5.833  21.932  0.00  0.00    +0.051 C 
ATOM     22  C   UNL     1       7.390  -5.247  23.317  0.00  0.00    +0.206 C 
ENDBRANCH  20  22
ENDBRANCH  14  20
ENDBRANCH   1  17
TORSDOF 5
ENDMDL
MODEL 4
REMARK VINA RESULT:      -6.0      1.082      1.452
REMARK  Name = 
REMARK  5 active torsions:
REMARK  status: ('A' for Active; 'I' for Inactive)
REMARK    1  A    between atoms: C_2  and  O_3
REMARK    2  A    between atoms: O_3  and  C_4
REMARK    3  A    between atoms: C_7  and  S_8
REMARK    4  A    between atoms: S_8  and  N_11
REMARK    5  A    between atoms: C_15  and  C_17
REMARK                            x       y       z     vdW  Elec       q    Type
REMARK                         _______ _______ _______ _____ _____    ______ ____
ROOT
ATOM      1  S   UNL     1       7.626  -1.680  23.722  0.00  0.00    +0.063 S 
ATOM      2  O   UNL     1       7.151  -0.337  23.724  0.00  0.00    -0.153 OA
ATOM      3  O   UNL     1       7.839  -2.239  22.389  0.00  0.00    -0.153 OA
ENDROOT
BRANCH   1   4
ATOM      4  N   UNL     1       9.045  -1.799  24.502  0.00  0.00    -0.152 NA
ATOM      5  C   UNL     1      10.054  -2.392  23.694  0.00  0.00    +0.117 C 
ATOM      6  C   UNL     1      10.249  -1.548  22.422  0.00  0.00    +0.113 C 
ATOM      7  N   UNL     1      10.019  -0.155  22.804  0.00  0.00    -0.276 N 
ATOM      8  C   UNL     1       9.475   0.709  21.949  0.00  0.00    +0.242 C 
ATOM      9  O   UNL     1       9.982   1.798  21.742  0.00  0.00    -0.273 OA
ATOM     10  C   UNL     1      10.354   0.221  24.174  0.00  0.00    +0.113 C 
ATOM     11  C   UNL     1       9.490  -0.623  25.121  0.00  0.00    +0.117 C 
BRANCH   8  12
ATOM     12  C   UNL     1       8.051   0.428  21.503  0.00  0.00    +0.180 C 
ATOM     13 CL   UNL     1       8.044   0.008  19.769  0.00  0.00    -0.103 Cl
ENDBRANCH   8  12
ENDBRANCH   1   4
BRANCH   1  17
ATOM     14  C   UNL     1       5.717  -5.705  23.571  0.00  0.00    +0.139 A 
ATOM     15  C   UNL     1       6.627  -5.259  24.657  0.00  0.00    +0.038 A 
ATOM     16  C   UNL     1       7.090  -3.914  25.187  0.00  0.00    +0.023 A 
ATOM     17  C   UNL     1       6.413  -2.748  24.505  0.00  0.00    +0.122 A 
ATOM     18  C   UNL     1       5.499  -3.172  23.427  0.00  0.00    +0.023 A 
ATOM     19  C   UNL     1       5.075  -4.437  22.756  0.00  0.00    +0.038 A 
BRANCH  14  20
ATOM     20  O   UNL     1       4.737  -6.530  24.016  0.00  0.00    -0.475 OA
BRANCH  20  22
ATOM     21  C   UNL     1       3.146  -6.087  25.683  0.00  0.00    +0.051 C 
ATOM     22  C   UNL     1       4.427  -6.806  25.299  0.00  0.00    +0.206 C 
ENDBRANCH  20  22
ENDBRANCH  14  20
ENDBRANCH   1  17
TORSDOF 5
ENDMDL
MODEL 5
REMARK VINA RESULT:      -5.7      1.970      2.877
REMARK  Name = 
REMARK  5 active torsions:
REMARK  status: ('A' for Active; 'I' for Inactive)
REMARK    1  A    between atoms: C_2  and  O_3
REMARK    2  A    between atoms: O_3  and  C_4
REMARK    3  A    between atoms: C_7  and  S_8
REMARK    4  A    between atoms: S_8  and  N_11
REMARK    5  A    between atoms: C_15  and  C_17
REMARK                            x       y       z     vdW  Elec       q    Type
REMARK                         _______ _______ _______ _____ _____    ______ ____
ROOT
ATOM      1  S   UNL     1       8.368  -2.507  23.619  0.00  0.00    +0.063 S 
ATOM      2  O   UNL     1       9.406  -2.416  22.649  0.00  0.00    -0.153 OA
ATOM      3  O   UNL     1       8.625  -1.753  24.845  0.00  0.00    -0.153 OA
ENDROOT
BRANCH   1   4
ATOM      4  N   UNL     1       6.963  -1.951  23.026  0.00  0.00    -0.152 NA
ATOM      5  C   UNL     1       6.410  -0.919  23.832  0.00  0.00    +0.117 C 
ATOM      6  C   UNL     1       7.411   0.246  23.925  0.00  0.00    +0.113 C 
ATOM      7  N   UNL     1       8.112   0.299  22.643  0.00  0.00    -0.276 N 
ATOM      8  C   UNL     1       9.388   0.677  22.574  0.00  0.00    +0.242 C 
ATOM      9  O   UNL     1       9.754   1.526  21.779  0.00  0.00    -0.273 OA
ATOM     10  C   UNL     1       7.372  -0.137  21.464  0.00  0.00    +0.113 C 
ATOM     11  C   UNL     1       6.979  -1.606  21.667  0.00  0.00    +0.117 C 
BRANCH   8  12
ATOM     12  C   UNL     1      10.403  -0.206  23.275  0.00  0.00    +0.180 C 
ATOM     13 CL   UNL     1      11.080   0.664  24.679  0.00  0.00    -0.103 Cl
ENDBRANCH   8  12
ENDBRANCH   1   4
BRANCH   1  17
ATOM     14  C   UNL     1       6.110  -5.235  26.326  0.00  0.00    +0.139 A 
ATOM     15  C   UNL     1       5.979  -5.240  24.846  0.00  0.00    +0.038 A 
ATOM     16  C   UNL     1       6.838  -4.760  23.690  0.00  0.00    +0.023 A 
ATOM     17  C   UNL     1       8.174  -4.216  24.135  0.00  0.00    +0.122 A 
ATOM     18  C   UNL     1       8.326  -4.210  25.603  0.00  0.00    +0.023 A 
ATOM     19  C   UNL     1       7.511  -4.537  26.811  0.00  0.00    +0.038 A 
BRANCH  14  20
ATOM     20  O   UNL     1       5.984  -6.473  26.866  0.00  0.00    -0.475 OA
BRANCH  20  22
ATOM     21  C   UNL     1       4.147  -5.730  28.125  0.00  0.00    +0.051 C 
ATOM     22  C   UNL     1       5.126  -6.854  27.834  0.00  0.00    +0.206 C 
ENDBRANCH  20  22
ENDBRANCH  14  20
ENDBRANCH   1  17
TORSDOF 5
ENDMDL
MODEL 6
REMARK VINA RESULT:      -5.7      2.323      2.747
REMARK  Name = 
REMARK  5 active torsions:
REMARK  status: ('A' for Active; 'I' for Inactive)
REMARK    1  A    between atoms: C_2  and  O_3
REMARK    2  A    between atoms: O_3  and  C_4
REMARK    3  A    between atoms: C_7  and  S_8
REMARK    4  A    between atoms: S_8  and  N_11
REMARK    5  A    between atoms: C_15  and  C_17
REMARK                            x       y       z     vdW  Elec       q    Type
REMARK                         _______ _______ _______ _____ _____    ______ ____
ROOT
ATOM      1  S   UNL     1       7.880  -0.473  23.669  0.00  0.00    +0.063 S 
ATOM      2  O   UNL     1       7.616   0.462  24.710  0.00  0.00    -0.153 OA
ATOM      3  O   UNL     1       7.530   0.003  22.332  0.00  0.00    -0.153 OA
ENDROOT
BRANCH   1   4
ATOM      4  N   UNL     1       9.455  -0.864  23.619  0.00  0.00    -0.152 NA
ATOM      5  C   UNL     1      10.025  -0.633  22.337  0.00  0.00    +0.117 C 
ATOM      6  C   UNL     1       9.864   0.853  21.969  0.00  0.00    +0.113 C 
ATOM      7  N   UNL     1       9.968   1.607  23.218  0.00  0.00    -0.276 N 
ATOM      8  C   UNL     1       9.273   2.730  23.400  0.00  0.00    +0.242 C 
ATOM      9  O   UNL     1       9.812   3.749  23.798  0.00  0.00    -0.273 OA
ATOM     10  C   UNL     1      10.813   1.043  24.265  0.00  0.00    +0.113 C 
ATOM     11  C   UNL     1      10.240  -0.328  24.649  0.00  0.00    +0.117 C 
BRANCH   8  12
ATOM     12  C   UNL     1       7.761   2.605  23.414  0.00  0.00    +0.180 C 
ATOM     13 CL   UNL     1       7.080   3.468  22.008  0.00  0.00    -0.103 Cl
ENDBRANCH   8  12
ENDBRANCH   1   4
BRANCH   1  17
ATOM     14  C   UNL     1       6.855  -4.474  21.991  0.00  0.00    +0.139 A 
ATOM     15  C   UNL     1       7.624  -4.273  23.247  0.00  0.00    +0.038 A 
ATOM     16  C   UNL     1       7.783  -3.135  24.239  0.00  0.00    +0.023 A 
ATOM     17  C   UNL     1       6.896  -1.953  23.926  0.00  0.00    +0.122 A 
ATOM     18  C   UNL     1       6.119  -2.138  22.686  0.00  0.00    +0.023 A 
ATOM     19  C   UNL     1       5.985  -3.144  21.591  0.00  0.00    +0.038 A 
BRANCH  14  20
ATOM     20  O   UNL     1       6.057  -5.569  22.036  0.00  0.00    -0.475 OA
BRANCH  20  22
ATOM     21  C   UNL     1       4.015  -5.725  23.181  0.00  0.00    +0.051 C 
ATOM     22  C   UNL     1       5.482  -6.112  23.129  0.00  0.00    +0.206 C 
ENDBRANCH  20  22
ENDBRANCH  14  20
ENDBRANCH   1  17
TORSDOF 5
ENDMDL
MODEL 7
REMARK VINA RESULT:      -5.7      2.938      6.872
REMARK  Name = 
REMARK  5 active torsions:
REMARK  status: ('A' for Active; 'I' for Inactive)
REMARK    1  A    between atoms: C_2  and  O_3
REMARK    2  A    between atoms: O_3  and  C_4
REMARK    3  A    between atoms: C_7  and  S_8
REMARK    4  A    between atoms: S_8  and  N_11
REMARK    5  A    between atoms: C_15  and  C_17
REMARK                            x       y       z     vdW  Elec       q    Type
REMARK                         _______ _______ _______ _____ _____    ______ ____
ROOT
ATOM      1  S   UNL     1       8.330  -3.153  24.050  0.00  0.00    +0.063 S 
ATOM      2  O   UNL     1       7.729  -2.904  25.317  0.00  0.00    -0.153 OA
ATOM      3  O   UNL     1       8.926  -4.481  23.920  0.00  0.00    -0.153 OA
ENDROOT
BRANCH   1   4
ATOM      4  N   UNL     1       7.244  -3.017  22.851  0.00  0.00    -0.152 NA
ATOM      5  C   UNL     1       7.203  -4.178  22.030  0.00  0.00    +0.117 C 
ATOM      6  C   UNL     1       6.847  -5.400  22.894  0.00  0.00    +0.113 C 
ATOM      7  N   UNL     1       5.935  -4.926  23.935  0.00  0.00    -0.276 N 
ATOM      8  C   UNL     1       5.943  -5.468  25.152  0.00  0.00    +0.242 C 
ATOM      9  O   UNL     1       4.912  -5.838  25.686  0.00  0.00    -0.273 OA
ATOM     10  C   UNL     1       5.070  -3.801  23.597  0.00  0.00    +0.113 C 
ATOM     11  C   UNL     1       5.964  -2.605  23.244  0.00  0.00    +0.117 C 
BRANCH   8  12
ATOM     12  C   UNL     1       7.214  -5.306  25.966  0.00  0.00    +0.180 C 
ATOM     13 CL   UNL     1       6.842  -5.519  27.698  0.00  0.00    -0.103 Cl
ENDBRANCH   8  12
ENDBRANCH   1   4
BRANCH   1  17
ATOM     14  C   UNL     1       9.316   1.055  22.959  0.00  0.00    +0.139 A 
ATOM     15  C   UNL     1       9.543   0.473  24.308  0.00  0.00    +0.038 A 
ATOM     16  C   UNL     1       9.687  -0.933  24.860  0.00  0.00    +0.023 A 
ATOM     17  C   UNL     1       9.675  -1.993  23.784  0.00  0.00    +0.122 A 
ATOM     18  C   UNL     1       9.459  -1.433  22.436  0.00  0.00    +0.023 A 
ATOM     19  C   UNL     1       9.186  -0.105  21.809  0.00  0.00    +0.038 A 
BRANCH  14  20
ATOM     20  O   UNL     1      10.265   1.961  22.615  0.00  0.00    -0.475 OA
BRANCH  20  22
ATOM     21  C   UNL     1       9.614   3.944  23.689  0.00  0.00    +0.051 C 
ATOM     22  C   UNL     1      10.737   2.972  23.373  0.00  0.00    +0.206 C 
ENDBRANCH  20  22
ENDBRANCH  14  20
ENDBRANCH   1  17
TORSDOF 5
ENDMDL
MODEL 8
REMARK VINA RESULT:      -5.7      2.458      6.632
REMARK  Name = 
REMARK  5 active torsions:
REMARK  status: ('A' for Active; 'I' for Inactive)
REMARK    1  A    between atoms: C_2  and  O_3
REMARK    2  A    between atoms: O_3  and  C_4
REMARK    3  A    between atoms: C_7  and  S_8
REMARK    4  A    between atoms: S_8  and  N_11
REMARK    5  A    between atoms: C_15  and  C_17
REMARK                            x       y       z     vdW  Elec       q    Type
REMARK                         _______ _______ _______ _____ _____    ______ ____
ROOT
ATOM      1  S   UNL     1       8.697  -2.005  24.596  0.00  0.00    +0.063 S 
ATOM      2  O   UNL     1       9.356  -2.567  23.466  0.00  0.00    -0.153 OA
ATOM      3  O   UNL     1       7.311  -1.611  24.348  0.00  0.00    -0.153 OA
ENDROOT
BRANCH   1   4
ATOM      4  N   UNL     1       8.661  -3.055  25.834  0.00  0.00    -0.152 NA
ATOM      5  C   UNL     1       7.339  -3.286  26.304  0.00  0.00    +0.117 C 
ATOM      6  C   UNL     1       6.478  -3.836  25.153  0.00  0.00    +0.113 C 
ATOM      7  N   UNL     1       7.361  -4.657  24.326  0.00  0.00    -0.276 N 
ATOM      8  C   UNL     1       7.186  -4.737  23.007  0.00  0.00    +0.242 C 
ATOM      9  O   UNL     1       7.147  -5.815  22.438  0.00  0.00    -0.273 OA
ATOM     10  C   UNL     1       8.467  -5.328  24.999  0.00  0.00    +0.113 C 
ATOM     11  C   UNL     1       9.362  -4.251  25.627  0.00  0.00    +0.117 C 
BRANCH   8  12
ATOM     12  C   UNL     1       7.367  -3.456  22.213  0.00  0.00    +0.180 C 
ATOM     13 CL   UNL     1       5.798  -2.955  21.526  0.00  0.00    -0.103 Cl
ENDBRANCH   8  12
ENDBRANCH   1   4
BRANCH   1  17
ATOM     14  C   UNL     1       9.356   2.288  23.591  0.00  0.00    +0.139 A 
ATOM     15  C   UNL     1       8.608   1.821  24.787  0.00  0.00    +0.038 A 
ATOM     16  C   UNL     1       8.552   0.530  25.584  0.00  0.00    +0.023 A 
ATOM     17  C   UNL     1       9.542  -0.503  25.100  0.00  0.00    +0.122 A 
ATOM     18  C   UNL     1      10.301  -0.054  23.917  0.00  0.00    +0.023 A 
ATOM     19  C   UNL     1      10.344   1.122  22.998  0.00  0.00    +0.038 A 
BRANCH  14  20
ATOM     20  O   UNL     1      10.052   3.428  23.822  0.00  0.00    -0.475 OA
BRANCH  20  22
ATOM     21  C   UNL     1      11.545   5.218  23.548  0.00  0.00    +0.051 C 
ATOM     22  C   UNL     1      11.288   3.732  23.377  0.00  0.00    +0.206 C 
ENDBRANCH  20  22
ENDBRANCH  14  20
ENDBRANCH   1  17
TORSDOF 5
ENDMDL
MODEL 9
REMARK VINA RESULT:      -5.7      3.126      6.668
REMARK  Name = 
REMARK  5 active torsions:
REMARK  status: ('A' for Active; 'I' for Inactive)
REMARK    1  A    between atoms: C_2  and  O_3
REMARK    2  A    between atoms: O_3  and  C_4
REMARK    3  A    between atoms: C_7  and  S_8
REMARK    4  A    between atoms: S_8  and  N_11
REMARK    5  A    between atoms: C_15  and  C_17
REMARK                            x       y       z     vdW  Elec       q    Type
REMARK                         _______ _______ _______ _____ _____    ______ ____
ROOT
ATOM      1  S   UNL     1       6.527  -3.007  22.853  0.00  0.00    +0.063 S 
ATOM      2  O   UNL     1       5.432  -3.072  21.945  0.00  0.00    -0.153 OA
ATOM      3  O   UNL     1       6.137  -2.945  24.260  0.00  0.00    -0.153 OA
ENDROOT
BRANCH   1   4
ATOM      4  N   UNL     1       7.491  -4.304  22.701  0.00  0.00    -0.152 NA
ATOM      5  C   UNL     1       7.744  -4.934  23.950  0.00  0.00    +0.117 C 
ATOM      6  C   UNL     1       6.410  -5.371  24.580  0.00  0.00    +0.113 C 
ATOM      7  N   UNL     1       5.529  -5.747  23.475  0.00  0.00    -0.276 N 
ATOM      8  C   UNL     1       4.214  -5.544  23.548  0.00  0.00    +0.242 C 
ATOM      9  O   UNL     1       3.421  -6.432  23.287  0.00  0.00    -0.273 OA
ATOM     10  C   UNL     1       6.160  -6.292  22.279  0.00  0.00    +0.113 C 
ATOM     11  C   UNL     1       7.108  -5.225  21.715  0.00  0.00    +0.117 C 
BRANCH   8  12
ATOM     12  C   UNL     1       3.747  -4.102  23.642  0.00  0.00    +0.180 C 
ATOM     13 CL   UNL     1       2.924  -3.844  25.204  0.00  0.00    -0.103 Cl
ENDBRANCH   8  12
ENDBRANCH   1   4
BRANCH   1  17
ATOM     14  C   UNL     1      10.159  -0.715  24.049  0.00  0.00    +0.139 A 
ATOM     15  C   UNL     1       9.987  -1.365  22.724  0.00  0.00    +0.038 A 
ATOM     16  C   UNL     1       8.800  -1.840  21.906  0.00  0.00    +0.023 A 
ATOM     17  C   UNL     1       7.473  -1.511  22.548  0.00  0.00    +0.122 A 
ATOM     18  C   UNL     1       7.623  -0.858  23.863  0.00  0.00    +0.023 A 
ATOM     19  C   UNL     1       8.721  -0.466  24.796  0.00  0.00    +0.038 A 
BRANCH  14  20
ATOM     20  O   UNL     1      10.864   0.441  23.977  0.00  0.00    -0.475 OA
BRANCH  20  22
ATOM     21  C   UNL     1      10.160   2.186  22.576  0.00  0.00    +0.051 C 
ATOM     22  C   UNL     1      10.372   1.696  23.997  0.00  0.00    +0.206 C 
ENDBRANCH  20  22
ENDBRANCH  14  20
ENDBRANCH   1  17
TORSDOF 5
ENDMDL
