MODEL 1
REMARK VINA RESULT:      -7.2      0.000      0.000
REMARK  Name = 
REMARK  3 active torsions:
REMARK  status: ('A' for Active; 'I' for Inactive)
REMARK    1  A    between atoms: C_2  and  C_3
REMARK    2  A    between atoms: N_8  and  S_9
REMARK    3  A    between atoms: S_9  and  C_12
REMARK                            x       y       z     vdW  Elec       q    Type
REMARK                         _______ _______ _______ _____ _____    ______ ____
ROOT
ATOM      1  S   UNL     1       8.953  -2.871  23.955  0.00  0.00    +0.063 S 
ATOM      2  O   UNL     1      10.396  -2.897  23.740  0.00  0.00    -0.153 OA
ATOM      3  O   UNL     1       8.267  -3.875  23.140  0.00  0.00    -0.153 OA
ENDROOT
BRANCH   1   4
ATOM      4  C   UNL     1       8.391  -1.292  23.552  0.00  0.00    +0.125 A 
ATOM      5  C   UNL     1       7.180  -1.292  22.786  0.00  0.00    +0.060 A 
ATOM      6  C   UNL     1       6.705  -0.902  21.381  0.00  0.00    +0.174 A 
ATOM      7  O   UNL     1       5.925  -2.012  20.831  0.00  0.00    -0.472 OA
ATOM      8  C   UNL     1       5.816  -1.765  19.395  0.00  0.00    +0.209 C 
ATOM      9  C   UNL     1       5.768  -0.277  19.172  0.00  0.00    +0.095 C 
ATOM     10  C   UNL     1       7.036   0.315  18.590  0.00  0.00    +0.209 C 
ATOM     11  O   UNL     1       7.796   0.787  19.756  0.00  0.00    -0.472 OA
ATOM     12  C   UNL     1       7.877  -0.345  20.600  0.00  0.00    +0.172 A 
ATOM     13  C   UNL     1       9.199  -0.399  21.307  0.00  0.00    +0.041 A 
ATOM     14  C   UNL     1       9.645  -0.695  22.677  0.00  0.00    +0.023 A 
ENDBRANCH   1   4
BRANCH   1  20
ATOM     15  O   UNL     1       6.125  -5.053  28.903  0.00  0.00    -0.273 OA
ATOM     16  C   UNL     1       5.902  -5.397  27.752  0.00  0.00    +0.242 C 
ATOM     17  N   UNL     1       6.719  -4.971  26.759  0.00  0.00    -0.276 N 
ATOM     18  C   UNL     1       8.149  -5.275  26.859  0.00  0.00    +0.113 C 
ATOM     19  C   UNL     1       8.844  -4.707  25.646  0.00  0.00    +0.117 C 
ATOM     20  N   UNL     1       8.703  -3.298  25.525  0.00  0.00    -0.152 NA
ATOM     21  C   UNL     1       7.527  -2.794  26.055  0.00  0.00    +0.117 C 
ATOM     22  C   UNL     1       6.358  -3.750  26.036  0.00  0.00    +0.113 C 
BRANCH  16  23
ATOM     23  C   UNL     1       4.478  -5.710  27.314  0.00  0.00    +0.180 C 
ATOM     24 CL   UNL     1       4.529  -6.956  26.037  0.00  0.00    -0.103 Cl
ENDBRANCH  16  23
ENDBRANCH   1  20
TORSDOF 3
ENDMDL
MODEL 2
REMARK VINA RESULT:      -7.1      3.079      7.201
REMARK  Name = 
REMARK  3 active torsions:
REMARK  status: ('A' for Active; 'I' for Inactive)
REMARK    1  A    between atoms: C_2  and  C_3
REMARK    2  A    between atoms: N_8  and  S_9
REMARK    3  A    between atoms: S_9  and  C_12
REMARK                            x       y       z     vdW  Elec       q    Type
REMARK                         _______ _______ _______ _____ _____    ______ ____
ROOT
ATOM      1  S   UNL     1       8.664  -2.253  24.361  0.00  0.00    +0.063 S 
ATOM      2  O   UNL     1       9.690  -1.527  25.103  0.00  0.00    -0.153 OA
ATOM      3  O   UNL     1       7.326  -1.723  24.630  0.00  0.00    -0.153 OA
ENDROOT
BRANCH   1   4
ATOM      4  C   UNL     1       8.752  -3.910  24.827  0.00  0.00    +0.125 A 
ATOM      5  C   UNL     1       7.719  -4.724  24.257  0.00  0.00    +0.060 A 
ATOM      6  C   UNL     1       6.502  -5.533  24.719  0.00  0.00    +0.174 A 
ATOM      7  O   UNL     1       5.359  -5.171  23.879  0.00  0.00    -0.472 OA
ATOM      8  C   UNL     1       4.169  -5.662  24.571  0.00  0.00    +0.209 C 
ATOM      9  C   UNL     1       4.535  -6.924  25.306  0.00  0.00    +0.095 C 
ATOM     10  C   UNL     1       4.637  -6.771  26.810  0.00  0.00    +0.209 C 
ATOM     11  O   UNL     1       6.066  -6.531  27.063  0.00  0.00    -0.472 OA
ATOM     12  C   UNL     1       6.389  -5.437  26.226  0.00  0.00    +0.172 A 
ATOM     13  C   UNL     1       7.383  -4.527  26.885  0.00  0.00    +0.041 A 
ATOM     14  C   UNL     1       8.597  -3.816  26.459  0.00  0.00    +0.023 A 
ENDBRANCH   1   4
BRANCH   1  20
ATOM     15  O   UNL     1       7.917  -0.113  18.696  0.00  0.00    -0.273 OA
ATOM     16  C   UNL     1       7.498   0.418  19.712  0.00  0.00    +0.242 C 
ATOM     17  N   UNL     1       7.882  -0.059  20.921  0.00  0.00    -0.276 N 
ATOM     18  C   UNL     1       9.315  -0.117  21.219  0.00  0.00    +0.113 C 
ATOM     19  C   UNL     1       9.492  -0.674  22.610  0.00  0.00    +0.117 C 
ATOM     20  N   UNL     1       8.958  -1.983  22.764  0.00  0.00    -0.152 NA
ATOM     21  C   UNL     1       7.873  -2.258  21.948  0.00  0.00    +0.117 C 
ATOM     22  C   UNL     1       7.036  -1.057  21.576  0.00  0.00    +0.113 C 
BRANCH  16  23
ATOM     23  C   UNL     1       6.143   1.113  19.705  0.00  0.00    +0.180 C 
ATOM     24 CL   UNL     1       5.268   0.652  18.219  0.00  0.00    -0.103 Cl
ENDBRANCH  16  23
ENDBRANCH   1  20
TORSDOF 3
ENDMDL
MODEL 3
REMARK VINA RESULT:      -6.9      3.587      6.914
REMARK  Name = 
REMARK  3 active torsions:
REMARK  status: ('A' for Active; 'I' for Inactive)
REMARK    1  A    between atoms: C_2  and  C_3
REMARK    2  A    between atoms: N_8  and  S_9
REMARK    3  A    between atoms: S_9  and  C_12
REMARK                            x       y       z     vdW  Elec       q    Type
REMARK                         _______ _______ _______ _____ _____    ______ ____
ROOT
ATOM      1  S   UNL     1       8.797  -3.148  24.171  0.00  0.00    +0.063 S 
ATOM      2  O   UNL     1      10.223  -3.065  23.870  0.00  0.00    -0.153 OA
ATOM      3  O   UNL     1       8.477  -2.510  25.450  0.00  0.00    -0.153 OA
ENDROOT
BRANCH   1   4
ATOM      4  C   UNL     1       8.366  -4.816  24.214  0.00  0.00    +0.125 A 
ATOM      5  C   UNL     1       7.212  -5.131  23.424  0.00  0.00    +0.060 A 
ATOM      6  C   UNL     1       5.775  -5.623  23.627  0.00  0.00    +0.174 A 
ATOM      7  O   UNL     1       4.876  -4.754  22.864  0.00  0.00    -0.472 OA
ATOM      8  C   UNL     1       3.529  -5.011  23.371  0.00  0.00    +0.209 C 
ATOM      9  C   UNL     1       3.445  -6.457  23.782  0.00  0.00    +0.095 C 
ATOM     10  C   UNL     1       3.425  -6.688  25.279  0.00  0.00    +0.209 C 
ATOM     11  O   UNL     1       4.828  -6.950  25.633  0.00  0.00    -0.472 OA
ATOM     12  C   UNL     1       5.533  -5.843  25.106  0.00  0.00    +0.172 A 
ATOM     13  C   UNL     1       6.667  -5.446  26.004  0.00  0.00    +0.041 A 
ATOM     14  C   UNL     1       8.070  -5.053  25.811  0.00  0.00    +0.023 A 
ENDBRANCH   1   4
BRANCH   1  20
ATOM     15  O   UNL     1       6.817   1.690  21.023  0.00  0.00    -0.273 OA
ATOM     16  C   UNL     1       7.837   1.652  21.693  0.00  0.00    +0.242 C 
ATOM     17  N   UNL     1       8.261   0.468  22.197  0.00  0.00    -0.276 N 
ATOM     18  C   UNL     1       8.511  -0.633  21.263  0.00  0.00    +0.113 C 
ATOM     19  C   UNL     1       8.972  -1.833  22.053  0.00  0.00    +0.117 C 
ATOM     20  N   UNL     1       8.019  -2.277  23.011  0.00  0.00    -0.152 NA
ATOM     21  C   UNL     1       7.212  -1.274  23.521  0.00  0.00    +0.117 C 
ATOM     22  C   UNL     1       7.841   0.098  23.550  0.00  0.00    +0.113 C 
BRANCH  16  23
ATOM     23  C   UNL     1       8.268   2.875  22.492  0.00  0.00    +0.180 C 
ATOM     24 CL   UNL     1       7.146   4.218  22.140  0.00  0.00    -0.103 Cl
ENDBRANCH  16  23
ENDBRANCH   1  20
TORSDOF 3
ENDMDL
MODEL 4
REMARK VINA RESULT:      -6.9      3.925      7.313
REMARK  Name = 
REMARK  3 active torsions:
REMARK  status: ('A' for Active; 'I' for Inactive)
REMARK    1  A    between atoms: C_2  and  C_3
REMARK    2  A    between atoms: N_8  and  S_9
REMARK    3  A    between atoms: S_9  and  C_12
REMARK                            x       y       z     vdW  Elec       q    Type
REMARK                         _______ _______ _______ _____ _____    ______ ____
ROOT
ATOM      1  S   UNL     1       6.437  -3.204  24.811  0.00  0.00    +0.063 S 
ATOM      2  O   UNL     1       7.011  -3.136  26.152  0.00  0.00    -0.153 OA
ATOM      3  O   UNL     1       5.084  -2.645  24.773  0.00  0.00    -0.153 OA
ENDROOT
BRANCH   1   4
ATOM      4  C   UNL     1       6.410  -4.860  24.336  0.00  0.00    +0.125 A 
ATOM      5  C   UNL     1       5.344  -5.182  23.434  0.00  0.00    +0.060 A 
ATOM      6  C   UNL     1       4.067  -6.030  23.414  0.00  0.00    +0.174 A 
ATOM      7  O   UNL     1       2.971  -5.205  22.903  0.00  0.00    -0.472 OA
ATOM      8  C   UNL     1       1.735  -5.907  23.246  0.00  0.00    +0.209 C 
ATOM      9  C   UNL     1       2.003  -7.388  23.204  0.00  0.00    +0.095 C 
ATOM     10  C   UNL     1       2.076  -8.055  24.562  0.00  0.00    +0.209 C 
ATOM     11  O   UNL     1       3.509  -8.080  24.888  0.00  0.00    -0.472 OA
ATOM     12  C   UNL     1       3.921  -6.733  24.748  0.00  0.00    +0.172 A 
ATOM     13  C   UNL     1       4.952  -6.373  25.776  0.00  0.00    +0.041 A 
ATOM     14  C   UNL     1       6.219  -5.627  25.775  0.00  0.00    +0.023 A 
ENDBRANCH   1   4
BRANCH   1  20
ATOM     15  O   UNL     1       8.175   0.040  19.944  0.00  0.00    -0.273 OA
ATOM     16  C   UNL     1       7.019  -0.199  20.258  0.00  0.00    +0.242 C 
ATOM     17  N   UNL     1       6.759  -0.775  21.456  0.00  0.00    -0.276 N 
ATOM     18  C   UNL     1       7.233  -0.101  22.667  0.00  0.00    +0.113 C 
ATOM     19  C   UNL     1       6.824  -0.924  23.864  0.00  0.00    +0.117 C 
ATOM     20  N   UNL     1       7.365  -2.239  23.853  0.00  0.00    -0.152 NA
ATOM     21  C   UNL     1       7.579  -2.759  22.587  0.00  0.00    +0.117 C 
ATOM     22  C   UNL     1       6.652  -2.234  21.517  0.00  0.00    +0.113 C 
BRANCH  16  23
ATOM     23  C   UNL     1       5.980  -0.475  19.180  0.00  0.00    +0.180 C 
ATOM     24 CL   UNL     1       5.984   0.878  18.015  0.00  0.00    -0.103 Cl
ENDBRANCH  16  23
ENDBRANCH   1  20
TORSDOF 3
ENDMDL
MODEL 5
REMARK VINA RESULT:      -6.9      3.998      7.181
REMARK  Name = 
REMARK  3 active torsions:
REMARK  status: ('A' for Active; 'I' for Inactive)
REMARK    1  A    between atoms: C_2  and  C_3
REMARK    2  A    between atoms: N_8  and  S_9
REMARK    3  A    between atoms: S_9  and  C_12
REMARK                            x       y       z     vdW  Elec       q    Type
REMARK                         _______ _______ _______ _____ _____    ______ ____
ROOT
ATOM      1  S   UNL     1       7.013  -3.361  24.532  0.00  0.00    +0.063 S 
ATOM      2  O   UNL     1       7.785  -3.227  25.763  0.00  0.00    -0.153 OA
ATOM      3  O   UNL     1       5.708  -2.704  24.639  0.00  0.00    -0.153 OA
ENDROOT
BRANCH   1   4
ATOM      4  C   UNL     1       6.808  -5.043  24.221  0.00  0.00    +0.125 A 
ATOM      5  C   UNL     1       5.709  -5.338  23.351  0.00  0.00    +0.060 A 
ATOM      6  C   UNL     1       4.350  -6.044  23.408  0.00  0.00    +0.174 A 
ATOM      7  O   UNL     1       3.344  -5.163  22.813  0.00  0.00    -0.472 OA
ATOM      8  C   UNL     1       2.043  -5.693  23.217  0.00  0.00    +0.209 C 
ATOM      9  C   UNL     1       2.153  -7.190  23.322  0.00  0.00    +0.095 C 
ATOM     10  C   UNL     1       2.162  -7.725  24.740  0.00  0.00    +0.209 C 
ATOM     11  O   UNL     1       3.587  -7.869  25.073  0.00  0.00    -0.472 OA
ATOM     12  C   UNL     1       4.138  -6.594  24.804  0.00  0.00    +0.172 A 
ATOM     13  C   UNL     1       5.207  -6.246  25.796  0.00  0.00    +0.041 A 
ATOM     14  C   UNL     1       6.546  -5.641  25.728  0.00  0.00    +0.023 A 
ENDBRANCH   1   4
BRANCH   1  20
ATOM     15  O   UNL     1      10.089   1.133  21.779  0.00  0.00    -0.273 OA
ATOM     16  C   UNL     1      10.031   0.952  22.985  0.00  0.00    +0.242 C 
ATOM     17  N   UNL     1       9.465  -0.182  23.463  0.00  0.00    -0.276 N 
ATOM     18  C   UNL     1      10.014  -1.468  23.025  0.00  0.00    +0.113 C 
ATOM     19  C   UNL     1       9.229  -2.573  23.688  0.00  0.00    +0.117 C 
ATOM     20  N   UNL     1       7.844  -2.553  23.364  0.00  0.00    -0.152 NA
ATOM     21  C   UNL     1       7.338  -1.292  23.097  0.00  0.00    +0.117 C 
ATOM     22  C   UNL     1       8.042  -0.159  23.806  0.00  0.00    +0.113 C 
BRANCH  16  23
ATOM     23  C   UNL     1       9.962   2.144  23.930  0.00  0.00    +0.180 C 
ATOM     24 CL   UNL     1      11.127   3.381  23.382  0.00  0.00    -0.103 Cl
ENDBRANCH  16  23
ENDBRANCH   1  20
TORSDOF 3
ENDMDL
MODEL 6
REMARK VINA RESULT:      -6.8      3.381      4.415
REMARK  Name = 
REMARK  3 active torsions:
REMARK  status: ('A' for Active; 'I' for Inactive)
REMARK    1  A    between atoms: C_2  and  C_3
REMARK    2  A    between atoms: N_8  and  S_9
REMARK    3  A    between atoms: S_9  and  C_12
REMARK                            x       y       z     vdW  Elec       q    Type
REMARK                         _______ _______ _______ _____ _____    ______ ____
ROOT
ATOM      1  S   UNL     1       9.776  -0.834  22.943  0.00  0.00    +0.063 S 
ATOM      2  O   UNL     1      10.169  -0.721  24.345  0.00  0.00    -0.153 OA
ATOM      3  O   UNL     1      10.586  -1.826  22.234  0.00  0.00    -0.153 OA
ENDROOT
BRANCH   1   4
ATOM      4  C   UNL     1       9.967   0.718  22.219  0.00  0.00    +0.125 A 
ATOM      5  C   UNL     1       9.958   1.797  23.161  0.00  0.00    +0.060 A 
ATOM      6  C   UNL     1       9.088   3.006  23.522  0.00  0.00    +0.174 A 
ATOM      7  O   UNL     1       8.870   3.005  24.970  0.00  0.00    -0.472 OA
ATOM      8  C   UNL     1       7.759   3.922  25.219  0.00  0.00    +0.209 C 
ATOM      9  C   UNL     1       7.819   5.027  24.197  0.00  0.00    +0.095 C 
ATOM     10  C   UNL     1       6.754   4.950  23.122  0.00  0.00    +0.209 C 
ATOM     11  O   UNL     1       7.404   4.250  22.005  0.00  0.00    -0.472 OA
ATOM     12  C   UNL     1       7.901   3.058  22.582  0.00  0.00    +0.172 A 
ATOM     13  C   UNL     1       7.793   1.907  21.626  0.00  0.00    +0.041 A 
ATOM     14  C   UNL     1       8.664   0.794  21.222  0.00  0.00    +0.023 A 
ENDBRANCH   1   4
BRANCH   1  20
ATOM     15  O   UNL     1       4.997  -4.422  24.175  0.00  0.00    -0.273 OA
ATOM     16  C   UNL     1       5.977  -4.282  24.889  0.00  0.00    +0.242 C 
ATOM     17  N   UNL     1       6.887  -3.322  24.592  0.00  0.00    -0.276 N 
ATOM     18  C   UNL     1       6.424  -1.936  24.496  0.00  0.00    +0.113 C 
ATOM     19  C   UNL     1       7.606  -1.059  24.163  0.00  0.00    +0.117 C 
ATOM     20  N   UNL     1       8.231  -1.401  22.932  0.00  0.00    -0.152 NA
ATOM     21  C   UNL     1       8.136  -2.741  22.595  0.00  0.00    +0.117 C 
ATOM     22  C   UNL     1       8.040  -3.687  23.768  0.00  0.00    +0.113 C 
BRANCH  16  23
ATOM     23  C   UNL     1       6.537  -5.473  25.655  0.00  0.00    +0.180 C 
ATOM     24 CL   UNL     1       7.359  -4.878  27.124  0.00  0.00    -0.103 Cl
ENDBRANCH  16  23
ENDBRANCH   1  20
TORSDOF 3
ENDMDL
MODEL 7
REMARK VINA RESULT:      -6.7      3.494      4.420
REMARK  Name = 
REMARK  3 active torsions:
REMARK  status: ('A' for Active; 'I' for Inactive)
REMARK    1  A    between atoms: C_2  and  C_3
REMARK    2  A    between atoms: N_8  and  S_9
REMARK    3  A    between atoms: S_9  and  C_12
REMARK                            x       y       z     vdW  Elec       q    Type
REMARK                         _______ _______ _______ _____ _____    ______ ____
ROOT
ATOM      1  S   UNL     1       9.626  -1.035  22.600  0.00  0.00    +0.063 S 
ATOM      2  O   UNL     1      10.760  -1.901  22.292  0.00  0.00    -0.153 OA
ATOM      3  O   UNL     1       8.714  -0.914  21.460  0.00  0.00    -0.153 OA
ENDROOT
BRANCH   1   4
ATOM      4  C   UNL     1      10.249   0.513  23.030  0.00  0.00    +0.125 A 
ATOM      5  C   UNL     1       9.773   0.994  24.293  0.00  0.00    +0.060 A 
ATOM      6  C   UNL     1       8.900   2.129  24.841  0.00  0.00    +0.174 A 
ATOM      7  O   UNL     1       7.926   1.556  25.771  0.00  0.00    -0.472 OA
ATOM      8  C   UNL     1       6.901   2.579  25.973  0.00  0.00    +0.209 C 
ATOM      9  C   UNL     1       7.558   3.931  25.888  0.00  0.00    +0.095 C 
ATOM     10  C   UNL     1       7.253   4.702  24.619  0.00  0.00    +0.209 C 
ATOM     11  O   UNL     1       8.378   4.400  23.722  0.00  0.00    -0.472 OA
ATOM     12  C   UNL     1       8.425   2.986  23.686  0.00  0.00    +0.172 A 
ATOM     13  C   UNL     1       8.809   2.492  22.323  0.00  0.00    +0.041 A 
ATOM     14  C   UNL     1       9.709   1.455  21.798  0.00  0.00    +0.023 A 
ENDBRANCH   1   4
BRANCH   1  20
ATOM     15  O   UNL     1       5.722  -4.867  25.302  0.00  0.00    -0.273 OA
ATOM     16  C   UNL     1       6.290  -5.070  24.240  0.00  0.00    +0.242 C 
ATOM     17  N   UNL     1       7.268  -4.224  23.835  0.00  0.00    -0.276 N 
ATOM     18  C   UNL     1       8.417  -4.018  24.720  0.00  0.00    +0.113 C 
ATOM     19  C   UNL     1       9.363  -3.048  24.057  0.00  0.00    +0.117 C 
ATOM     20  N   UNL     1       8.776  -1.779  23.797  0.00  0.00    -0.152 NA
ATOM     21  C   UNL     1       7.411  -1.817  23.564  0.00  0.00    +0.117 C 
ATOM     22  C   UNL     1       6.903  -3.106  22.964  0.00  0.00    +0.113 C 
BRANCH  16  23
ATOM     23  C   UNL     1       5.560  -5.786  23.112  0.00  0.00    +0.180 C 
ATOM     24 CL   UNL     1       6.767  -6.479  21.994  0.00  0.00    -0.103 Cl
ENDBRANCH  16  23
ENDBRANCH   1  20
TORSDOF 3
ENDMDL
MODEL 8
REMARK VINA RESULT:      -6.7      4.034      6.660
REMARK  Name = 
REMARK  3 active torsions:
REMARK  status: ('A' for Active; 'I' for Inactive)
REMARK    1  A    between atoms: C_2  and  C_3
REMARK    2  A    between atoms: N_8  and  S_9
REMARK    3  A    between atoms: S_9  and  C_12
REMARK                            x       y       z     vdW  Elec       q    Type
REMARK                         _______ _______ _______ _____ _____    ______ ____
ROOT
ATOM      1  S   UNL     1       8.775  -0.292  21.400  0.00  0.00    +0.063 S 
ATOM      2  O   UNL     1       8.550  -0.186  19.962  0.00  0.00    -0.153 OA
ATOM      3  O   UNL     1       9.758  -1.329  21.718  0.00  0.00    -0.153 OA
ENDROOT
BRANCH   1   4
ATOM      4  C   UNL     1       7.263  -0.658  22.142  0.00  0.00    +0.125 A 
ATOM      5  C   UNL     1       7.348  -1.675  23.148  0.00  0.00    +0.060 A 
ATOM      6  C   UNL     1       6.853  -3.106  23.385  0.00  0.00    +0.174 A 
ATOM      7  O   UNL     1       7.987  -3.923  23.821  0.00  0.00    -0.472 OA
ATOM      8  C   UNL     1       7.570  -5.316  23.673  0.00  0.00    +0.209 C 
ATOM      9  C   UNL     1       6.091  -5.399  23.942  0.00  0.00    +0.095 C 
ATOM     10  C   UNL     1       5.237  -5.620  22.709  0.00  0.00    +0.209 C 
ATOM     11  O   UNL     1       4.813  -4.272  22.305  0.00  0.00    -0.472 OA
ATOM     12  C   UNL     1       6.022  -3.544  22.196  0.00  0.00    +0.172 A 
ATOM     13  C   UNL     1       5.964  -2.565  21.062  0.00  0.00    +0.041 A 
ATOM     14  C   UNL     1       6.367  -1.165  20.863  0.00  0.00    +0.023 A 
ENDBRANCH   1   4
BRANCH   1  20
ATOM     15  O   UNL     1       9.429   4.978  24.406  0.00  0.00    -0.273 OA
ATOM     16  C   UNL     1       8.812   4.005  24.812  0.00  0.00    +0.242 C 
ATOM     17  N   UNL     1       8.891   2.835  24.133  0.00  0.00    -0.276 N 
ATOM     18  C   UNL     1      10.215   2.245  23.920  0.00  0.00    +0.113 C 
ATOM     19  C   UNL     1      10.046   0.958  23.151  0.00  0.00    +0.117 C 
ATOM     20  N   UNL     1       9.435   1.138  21.880  0.00  0.00    -0.152 NA
ATOM     21  C   UNL     1       8.554   2.204  21.814  0.00  0.00    +0.117 C 
ATOM     22  C   UNL     1       7.875   2.550  23.118  0.00  0.00    +0.113 C 
BRANCH  16  23
ATOM     23  C   UNL     1       7.526   4.196  25.604  0.00  0.00    +0.180 C 
ATOM     24 CL   UNL     1       7.307   2.797  26.692  0.00  0.00    -0.103 Cl
ENDBRANCH  16  23
ENDBRANCH   1  20
TORSDOF 3
ENDMDL
MODEL 9
REMARK VINA RESULT:      -6.7      3.537      7.490
REMARK  Name = 
REMARK  3 active torsions:
REMARK  status: ('A' for Active; 'I' for Inactive)
REMARK    1  A    between atoms: C_2  and  C_3
REMARK    2  A    between atoms: N_8  and  S_9
REMARK    3  A    between atoms: S_9  and  C_12
REMARK                            x       y       z     vdW  Elec       q    Type
REMARK                         _______ _______ _______ _____ _____    ______ ____
ROOT
ATOM      1  S   UNL     1       7.544  -3.462  23.700  0.00  0.00    +0.063 S 
ATOM      2  O   UNL     1       6.241  -2.846  23.932  0.00  0.00    -0.153 OA
ATOM      3  O   UNL     1       7.844  -3.569  22.271  0.00  0.00    -0.153 OA
ENDROOT
BRANCH   1   4
ATOM      4  C   UNL     1       7.521  -5.027  24.422  0.00  0.00    +0.125 A 
ATOM      5  C   UNL     1       6.261  -5.367  25.016  0.00  0.00    +0.060 A 
ATOM      6  C   UNL     1       5.679  -5.643  26.406  0.00  0.00    +0.174 A 
ATOM      7  O   UNL     1       4.455  -4.855  26.561  0.00  0.00    -0.472 OA
ATOM      8  C   UNL     1       4.147  -4.850  27.990  0.00  0.00    +0.209 C 
ATOM      9  C   UNL     1       4.596  -6.162  28.576  0.00  0.00    +0.095 C 
ATOM     10  C   UNL     1       5.841  -6.076  29.435  0.00  0.00    +0.209 C 
ATOM     11  O   UNL     1       6.945  -6.415  28.524  0.00  0.00    -0.472 OA
ATOM     12  C   UNL     1       6.784  -5.526  27.436  0.00  0.00    +0.172 A 
ATOM     13  C   UNL     1       8.112  -5.082  26.899  0.00  0.00    +0.041 A 
ATOM     14  C   UNL     1       8.695  -4.896  25.562  0.00  0.00    +0.023 A 
ENDBRANCH   1   4
BRANCH   1  20
ATOM     15  O   UNL     1      11.242   1.365  24.200  0.00  0.00    -0.273 OA
ATOM     16  C   UNL     1      10.199   1.337  23.567  0.00  0.00    +0.242 C 
ATOM     17  N   UNL     1       9.378   0.265  23.680  0.00  0.00    -0.276 N 
ATOM     18  C   UNL     1       8.893  -0.099  25.013  0.00  0.00    +0.113 C 
ATOM     19  C   UNL     1       8.003  -1.310  24.884  0.00  0.00    +0.117 C 
ATOM     20  N   UNL     1       8.668  -2.441  24.335  0.00  0.00    -0.152 NA
ATOM     21  C   UNL     1       9.692  -2.131  23.456  0.00  0.00    +0.117 C 
ATOM     22  C   UNL     1       9.522  -0.826  22.715  0.00  0.00    +0.113 C 
BRANCH  16  23
ATOM     23  C   UNL     1      10.092   2.083  22.243  0.00  0.00    +0.180 C 
ATOM     24 CL   UNL     1       8.374   2.441  21.921  0.00  0.00    -0.103 Cl
ENDBRANCH  16  23
ENDBRANCH   1  20
TORSDOF 3
ENDMDL
