MODEL 1
REMARK VINA RESULT:      -7.4      0.000      0.000
REMARK  Name = 
REMARK  3 active torsions:
REMARK  status: ('A' for Active; 'I' for Inactive)
REMARK    1  A    between atoms: C_2  and  C_3
REMARK    2  A    between atoms: N_8  and  S_9
REMARK    3  A    between atoms: S_9  and  C_12
REMARK                            x       y       z     vdW  Elec       q    Type
REMARK                         _______ _______ _______ _____ _____    ______ ____
ROOT
ATOM      1  S   UNL     1       9.280  -1.876  23.627  0.00  0.00    +0.063 S 
ATOM      2  O   UNL     1      10.022  -3.061  23.967  0.00  0.00    -0.153 OA
ATOM      3  O   UNL     1       8.459  -2.041  22.422  0.00  0.00    -0.153 OA
ENDROOT
BRANCH   1   4
ATOM      4  C   UNL     1      10.496  -0.624  23.241  0.00  0.00    +0.122 A 
ATOM      5  C   UNL     1      10.071   0.193  22.137  0.00  0.00    +0.020 A 
ATOM      6  C   UNL     1       9.372   1.571  21.890  0.00  0.00    +0.001 A 
ATOM      7  C   UNL     1       8.280   1.157  21.021  0.00  0.00    +0.000 A 
ATOM      8  C   UNL     1       6.872   1.351  21.637  0.00  0.00    +0.000 A 
ATOM      9  C   UNL     1       6.936   1.987  22.962  0.00  0.00    +0.000 A 
ATOM     10  C   UNL     1       7.913   2.725  23.787  0.00  0.00    +0.000 A 
ATOM     11  C   UNL     1       9.427   2.392  23.214  0.00  0.00    +0.000 A 
ATOM     12  C   UNL     1       9.895   1.576  24.308  0.00  0.00    +0.001 A 
ATOM     13  C   UNL     1      10.447   0.230  24.638  0.00  0.00    +0.020 A 
ENDBRANCH   1   4
BRANCH   1  19
ATOM     14  O   UNL     1       8.197  -5.378  24.625  0.00  0.00    -0.273 OA
ATOM     15  C   UNL     1       7.530  -4.473  24.170  0.00  0.00    +0.242 C 
ATOM     16  N   UNL     1       6.974  -3.551  24.989  0.00  0.00    -0.276 N 
ATOM     17  C   UNL     1       7.657  -3.265  26.254  0.00  0.00    +0.113 C 
ATOM     18  C   UNL     1       8.564  -2.065  26.053  0.00  0.00    +0.117 C 
ATOM     19  N   UNL     1       8.350  -1.421  24.835  0.00  0.00    -0.152 NA
ATOM     20  C   UNL     1       7.012  -1.179  24.517  0.00  0.00    +0.117 C 
ATOM     21  C   UNL     1       6.201  -2.459  24.390  0.00  0.00    +0.113 C 
BRANCH  15  22
ATOM     22  C   UNL     1       7.445  -4.209  22.689  0.00  0.00    +0.180 C 
ATOM     23 CL   UNL     1       7.227  -5.749  21.815  0.00  0.00    -0.103 Cl
ENDBRANCH  15  22
ENDBRANCH   1  19
TORSDOF 3
ENDMDL
MODEL 2
REMARK VINA RESULT:      -7.4      1.484      1.737
REMARK  Name = 
REMARK  3 active torsions:
REMARK  status: ('A' for Active; 'I' for Inactive)
REMARK    1  A    between atoms: C_2  and  C_3
REMARK    2  A    between atoms: N_8  and  S_9
REMARK    3  A    between atoms: S_9  and  C_12
REMARK                            x       y       z     vdW  Elec       q    Type
REMARK                         _______ _______ _______ _____ _____    ______ ____
ROOT
ATOM      1  S   UNL     1       8.654  -2.393  24.041  0.00  0.00    +0.063 S 
ATOM      2  O   UNL     1       8.427  -3.466  23.109  0.00  0.00    -0.153 OA
ATOM      3  O   UNL     1       7.578  -1.397  24.040  0.00  0.00    -0.153 OA
ENDROOT
BRANCH   1   4
ATOM      4  C   UNL     1      10.123  -1.547  23.472  0.00  0.00    +0.122 A 
ATOM      5  C   UNL     1       9.952  -1.047  22.136  0.00  0.00    +0.020 A 
ATOM      6  C   UNL     1       9.566   0.289  21.417  0.00  0.00    +0.001 A 
ATOM      7  C   UNL     1       8.477  -0.177  20.570  0.00  0.00    +0.000 A 
ATOM      8  C   UNL     1       7.098   0.434  20.918  0.00  0.00    +0.000 A 
ATOM      9  C   UNL     1       7.194   1.424  22.002  0.00  0.00    +0.000 A 
ATOM     10  C   UNL     1       8.238   2.199  22.700  0.00  0.00    +0.000 A 
ATOM     11  C   UNL     1       9.691   1.453  22.446  0.00  0.00    +0.000 A 
ATOM     12  C   UNL     1       9.905   0.942  23.778  0.00  0.00    +0.001 A 
ATOM     13  C   UNL     1      10.148  -0.311  24.549  0.00  0.00    +0.020 A 
ENDBRANCH   1   4
BRANCH   1  19
ATOM     14  O   UNL     1       6.248  -5.308  23.671  0.00  0.00    -0.273 OA
ATOM     15  C   UNL     1       6.158  -4.330  24.381  0.00  0.00    +0.242 C 
ATOM     16  N   UNL     1       6.712  -4.323  25.615  0.00  0.00    -0.276 N 
ATOM     17  C   UNL     1       7.893  -5.162  25.834  0.00  0.00    +0.113 C 
ATOM     18  C   UNL     1       9.134  -4.313  25.627  0.00  0.00    +0.117 C 
ATOM     19  N   UNL     1       8.848  -2.953  25.517  0.00  0.00    -0.152 NA
ATOM     20  C   UNL     1       7.972  -2.449  26.480  0.00  0.00    +0.117 C 
ATOM     21  C   UNL     1       6.602  -3.106  26.424  0.00  0.00    +0.113 C 
BRANCH  15  22
ATOM     22  C   UNL     1       5.611  -3.021  23.871  0.00  0.00    +0.180 C 
ATOM     23 CL   UNL     1       5.384  -3.110  22.104  0.00  0.00    -0.103 Cl
ENDBRANCH  15  22
ENDBRANCH   1  19
TORSDOF 3
ENDMDL
MODEL 3
REMARK VINA RESULT:      -7.3      2.172      2.965
REMARK  Name = 
REMARK  3 active torsions:
REMARK  status: ('A' for Active; 'I' for Inactive)
REMARK    1  A    between atoms: C_2  and  C_3
REMARK    2  A    between atoms: N_8  and  S_9
REMARK    3  A    between atoms: S_9  and  C_12
REMARK                            x       y       z     vdW  Elec       q    Type
REMARK                         _______ _______ _______ _____ _____    ______ ____
ROOT
ATOM      1  S   UNL     1       8.359  -2.298  23.946  0.00  0.00    +0.063 S 
ATOM      2  O   UNL     1       7.441  -1.190  23.897  0.00  0.00    -0.153 OA
ATOM      3  O   UNL     1       8.644  -2.744  25.314  0.00  0.00    -0.153 OA
ENDROOT
BRANCH   1   4
ATOM      4  C   UNL     1       9.905  -1.689  23.283  0.00  0.00    +0.122 A 
ATOM      5  C   UNL     1       9.734  -1.176  21.952  0.00  0.00    +0.020 A 
ATOM      6  C   UNL     1       9.514   0.199  21.237  0.00  0.00    +0.001 A 
ATOM      7  C   UNL     1       8.320  -0.099  20.460  0.00  0.00    +0.000 A 
ATOM      8  C   UNL     1       7.073   0.718  20.877  0.00  0.00    +0.000 A 
ATOM      9  C   UNL     1       7.382   1.687  21.940  0.00  0.00    +0.000 A 
ATOM     10  C   UNL     1       8.571   2.297  22.567  0.00  0.00    +0.000 A 
ATOM     11  C   UNL     1       9.875   1.336  22.241  0.00  0.00    +0.000 A 
ATOM     12  C   UNL     1      10.086   0.805  23.566  0.00  0.00    +0.001 A 
ATOM     13  C   UNL     1      10.180  -0.467  24.339  0.00  0.00    +0.020 A 
ENDBRANCH   1   4
BRANCH   1  19
ATOM     14  O   UNL     1       4.718  -1.872  24.942  0.00  0.00    -0.273 OA
ATOM     15  C   UNL     1       5.479  -2.780  25.199  0.00  0.00    +0.242 C 
ATOM     16  N   UNL     1       5.621  -3.821  24.346  0.00  0.00    -0.276 N 
ATOM     17  C   UNL     1       5.393  -3.566  22.921  0.00  0.00    +0.113 C 
ATOM     18  C   UNL     1       6.727  -3.265  22.264  0.00  0.00    +0.117 C 
ATOM     19  N   UNL     1       7.814  -3.526  23.097  0.00  0.00    -0.152 NA
ATOM     20  C   UNL     1       7.773  -4.755  23.760  0.00  0.00    +0.117 C 
ATOM     21  C   UNL     1       6.575  -4.879  24.687  0.00  0.00    +0.113 C 
BRANCH  15  22
ATOM     22  C   UNL     1       6.439  -2.714  26.360  0.00  0.00    +0.180 C 
ATOM     23 CL   UNL     1       6.295  -1.131  27.170  0.00  0.00    -0.103 Cl
ENDBRANCH  15  22
ENDBRANCH   1  19
TORSDOF 3
ENDMDL
MODEL 4
REMARK VINA RESULT:      -7.0      2.446      5.594
REMARK  Name = 
REMARK  3 active torsions:
REMARK  status: ('A' for Active; 'I' for Inactive)
REMARK    1  A    between atoms: C_2  and  C_3
REMARK    2  A    between atoms: N_8  and  S_9
REMARK    3  A    between atoms: S_9  and  C_12
REMARK                            x       y       z     vdW  Elec       q    Type
REMARK                         _______ _______ _______ _____ _____    ______ ____
ROOT
ATOM      1  S   UNL     1       7.446  -0.880  23.689  0.00  0.00    +0.063 S 
ATOM      2  O   UNL     1       7.194   0.518  23.455  0.00  0.00    -0.153 OA
ATOM      3  O   UNL     1       7.416  -1.680  22.460  0.00  0.00    -0.153 OA
ENDROOT
BRANCH   1   4
ATOM      4  C   UNL     1       6.093  -1.463  24.702  0.00  0.00    +0.122 A 
ATOM      5  C   UNL     1       5.589  -2.721  24.224  0.00  0.00    +0.020 A 
ATOM      6  C   UNL     1       5.754  -4.249  24.524  0.00  0.00    +0.001 A 
ATOM      7  C   UNL     1       6.088  -4.740  23.195  0.00  0.00    +0.000 A 
ATOM      8  C   UNL     1       7.516  -5.328  23.078  0.00  0.00    +0.000 A 
ATOM      9  C   UNL     1       8.216  -5.329  24.371  0.00  0.00    +0.000 A 
ATOM     10  C   UNL     1       7.894  -5.168  25.803  0.00  0.00    +0.000 A 
ATOM     11  C   UNL     1       6.433  -4.403  25.919  0.00  0.00    +0.000 A 
ATOM     12  C   UNL     1       6.898  -3.128  26.409  0.00  0.00    +0.001 A 
ATOM     13  C   UNL     1       6.893  -1.666  26.117  0.00  0.00    +0.020 A 
ENDBRANCH   1   4
BRANCH   1  19
ATOM     14  O   UNL     1       9.345   1.702  21.650  0.00  0.00    -0.273 OA
ATOM     15  C   UNL     1       9.490   0.499  21.684  0.00  0.00    +0.242 C 
ATOM     16  N   UNL     1      10.300  -0.071  22.606  0.00  0.00    -0.276 N 
ATOM     17  C   UNL     1      10.471   0.628  23.883  0.00  0.00    +0.113 C 
ATOM     18  C   UNL     1       9.478   0.061  24.880  0.00  0.00    +0.117 C 
ATOM     19  N   UNL     1       8.843  -1.092  24.418  0.00  0.00    -0.152 NA
ATOM     20  C   UNL     1       9.687  -2.050  23.853  0.00  0.00    +0.117 C 
ATOM     21  C   UNL     1      10.420  -1.531  22.626  0.00  0.00    +0.113 C 
BRANCH  15  22
ATOM     22  C   UNL     1       8.645  -0.432  20.852  0.00  0.00    +0.180 C 
ATOM     23 CL   UNL     1       7.637   0.516  19.726  0.00  0.00    -0.103 Cl
ENDBRANCH  15  22
ENDBRANCH   1  19
TORSDOF 3
ENDMDL
MODEL 5
REMARK VINA RESULT:      -6.9      2.287      5.547
REMARK  Name = 
REMARK  3 active torsions:
REMARK  status: ('A' for Active; 'I' for Inactive)
REMARK    1  A    between atoms: C_2  and  C_3
REMARK    2  A    between atoms: N_8  and  S_9
REMARK    3  A    between atoms: S_9  and  C_12
REMARK                            x       y       z     vdW  Elec       q    Type
REMARK                         _______ _______ _______ _____ _____    ______ ____
ROOT
ATOM      1  S   UNL     1       8.365  -0.737  23.742  0.00  0.00    +0.063 S 
ATOM      2  O   UNL     1       6.988  -0.396  23.495  0.00  0.00    -0.153 OA
ATOM      3  O   UNL     1       9.002  -1.406  22.602  0.00  0.00    -0.153 OA
ENDROOT
BRANCH   1   4
ATOM      4  C   UNL     1       8.348  -1.926  25.078  0.00  0.00    +0.122 A 
ATOM      5  C   UNL     1       7.065  -2.563  25.191  0.00  0.00    +0.020 A 
ATOM      6  C   UNL     1       6.360  -3.883  24.735  0.00  0.00    +0.001 A 
ATOM      7  C   UNL     1       5.183  -3.335  24.076  0.00  0.00    +0.000 A 
ATOM      8  C   UNL     1       5.125  -3.609  22.553  0.00  0.00    +0.000 A 
ATOM      9  C   UNL     1       6.252  -4.438  22.101  0.00  0.00    +0.000 A 
ATOM     10  C   UNL     1       7.297  -5.299  22.691  0.00  0.00    +0.000 A 
ATOM     11  C   UNL     1       7.458  -4.895  24.286  0.00  0.00    +0.000 A 
ATOM     12  C   UNL     1       8.749  -4.256  24.215  0.00  0.00    +0.001 A 
ATOM     13  C   UNL     1       9.464  -2.980  24.505  0.00  0.00    +0.020 A 
ENDBRANCH   1   4
BRANCH   1  19
ATOM     14  O   UNL     1       6.534   1.643  21.416  0.00  0.00    -0.273 OA
ATOM     15  C   UNL     1       7.688   1.274  21.376  0.00  0.00    +0.242 C 
ATOM     16  N   UNL     1       8.644   1.929  22.073  0.00  0.00    -0.276 N 
ATOM     17  C   UNL     1       8.238   2.617  23.301  0.00  0.00    +0.113 C 
ATOM     18  C   UNL     1       8.477   1.688  24.477  0.00  0.00    +0.117 C 
ATOM     19  N   UNL     1       9.209   0.553  24.131  0.00  0.00    -0.152 NA
ATOM     20  C   UNL     1      10.348   0.792  23.358  0.00  0.00    +0.117 C 
ATOM     21  C   UNL     1      10.019   1.427  22.016  0.00  0.00    +0.113 C 
BRANCH  15  22
ATOM     22  C   UNL     1       8.089  -0.025  20.725  0.00  0.00    +0.180 C 
ATOM     23 CL   UNL     1       7.706   0.032  18.983  0.00  0.00    -0.103 Cl
ENDBRANCH  15  22
ENDBRANCH   1  19
TORSDOF 3
ENDMDL
MODEL 6
REMARK VINA RESULT:      -6.9      2.122      3.300
REMARK  Name = 
REMARK  3 active torsions:
REMARK  status: ('A' for Active; 'I' for Inactive)
REMARK    1  A    between atoms: C_2  and  C_3
REMARK    2  A    between atoms: N_8  and  S_9
REMARK    3  A    between atoms: S_9  and  C_12
REMARK                            x       y       z     vdW  Elec       q    Type
REMARK                         _______ _______ _______ _____ _____    ______ ____
ROOT
ATOM      1  S   UNL     1       7.276  -1.773  22.889  0.00  0.00    +0.063 S 
ATOM      2  O   UNL     1       6.502  -1.153  23.933  0.00  0.00    -0.153 OA
ATOM      3  O   UNL     1       8.660  -2.049  23.290  0.00  0.00    -0.153 OA
ENDROOT
BRANCH   1   4
ATOM      4  C   UNL     1       7.365  -0.578  21.562  0.00  0.00    +0.122 A 
ATOM      5  C   UNL     1       7.064   0.746  22.033  0.00  0.00    +0.020 A 
ATOM      6  C   UNL     1       7.822   2.030  22.508  0.00  0.00    +0.001 A 
ATOM      7  C   UNL     1       7.185   2.246  23.799  0.00  0.00    +0.000 A 
ATOM      8  C   UNL     1       8.138   2.090  25.010  0.00  0.00    +0.000 A 
ATOM      9  C   UNL     1       9.521   1.823  24.588  0.00  0.00    +0.000 A 
ATOM     10  C   UNL     1      10.336   1.898  23.359  0.00  0.00    +0.000 A 
ATOM     11  C   UNL     1       9.312   1.912  22.062  0.00  0.00    +0.000 A 
ATOM     12  C   UNL     1       9.594   0.593  21.552  0.00  0.00    +0.001 A 
ATOM     13  C   UNL     1       8.957  -0.709  21.197  0.00  0.00    +0.020 A 
ENDBRANCH   1   4
BRANCH   1  19
ATOM     14  O   UNL     1       6.151  -2.907  26.335  0.00  0.00    -0.273 OA
ATOM     15  C   UNL     1       6.969  -3.410  25.595  0.00  0.00    +0.242 C 
ATOM     16  N   UNL     1       6.586  -4.301  24.652  0.00  0.00    -0.276 N 
ATOM     17  C   UNL     1       5.230  -4.177  24.112  0.00  0.00    +0.113 C 
ATOM     18  C   UNL     1       5.289  -3.349  22.841  0.00  0.00    +0.117 C 
ATOM     19  N   UNL     1       6.593  -3.123  22.401  0.00  0.00    -0.152 NA
ATOM     20  C   UNL     1       7.417  -4.251  22.382  0.00  0.00    +0.117 C 
ATOM     21  C   UNL     1       7.607  -4.859  23.762  0.00  0.00    +0.113 C 
BRANCH  15  22
ATOM     22  C   UNL     1       8.400  -2.939  25.547  0.00  0.00    +0.180 C 
ATOM     23 CL   UNL     1       8.606  -1.530  26.623  0.00  0.00    -0.103 Cl
ENDBRANCH  15  22
ENDBRANCH   1  19
TORSDOF 3
ENDMDL
MODEL 7
REMARK VINA RESULT:      -6.9      2.433      5.849
REMARK  Name = 
REMARK  3 active torsions:
REMARK  status: ('A' for Active; 'I' for Inactive)
REMARK    1  A    between atoms: C_2  and  C_3
REMARK    2  A    between atoms: N_8  and  S_9
REMARK    3  A    between atoms: S_9  and  C_12
REMARK                            x       y       z     vdW  Elec       q    Type
REMARK                         _______ _______ _______ _____ _____    ______ ____
ROOT
ATOM      1  S   UNL     1       7.916  -1.514  23.162  0.00  0.00    +0.063 S 
ATOM      2  O   UNL     1       9.212  -1.858  23.686  0.00  0.00    -0.153 OA
ATOM      3  O   UNL     1       6.988  -1.044  24.196  0.00  0.00    -0.153 OA
ENDROOT
BRANCH   1   4
ATOM      4  C   UNL     1       7.225  -3.032  22.518  0.00  0.00    +0.122 A 
ATOM      5  C   UNL     1       7.870  -4.182  23.090  0.00  0.00    +0.020 A 
ATOM      6  C   UNL     1       7.639  -5.209  24.249  0.00  0.00    +0.001 A 
ATOM      7  C   UNL     1       8.905  -5.090  24.958  0.00  0.00    +0.000 A 
ATOM      8  C   UNL     1       8.778  -4.515  26.390  0.00  0.00    +0.000 A 
ATOM      9  C   UNL     1       7.376  -4.273  26.761  0.00  0.00    +0.000 A 
ATOM     10  C   UNL     1       6.027  -4.637  26.283  0.00  0.00    +0.000 A 
ATOM     11  C   UNL     1       6.151  -5.108  24.703  0.00  0.00    +0.000 A 
ATOM     12  C   UNL     1       5.501  -3.976  24.091  0.00  0.00    +0.001 A 
ATOM     13  C   UNL     1       5.696  -2.888  23.089  0.00  0.00    +0.020 A 
ENDBRANCH   1   4
BRANCH   1  19
ATOM     14  O   UNL     1      10.679   0.477  24.845  0.00  0.00    -0.273 OA
ATOM     15  C   UNL     1       9.534   0.803  24.616  0.00  0.00    +0.242 C 
ATOM     16  N   UNL     1       9.201   1.358  23.428  0.00  0.00    -0.276 N 
ATOM     17  C   UNL     1      10.005   0.992  22.259  0.00  0.00    +0.113 C 
ATOM     18  C   UNL     1       9.321  -0.158  21.544  0.00  0.00    +0.117 C 
ATOM     19  N   UNL     1       8.037  -0.410  22.025  0.00  0.00    -0.152 NA
ATOM     20  C   UNL     1       7.230   0.719  22.183  0.00  0.00    +0.117 C 
ATOM     21  C   UNL     1       7.799   1.708  23.188  0.00  0.00    +0.113 C 
BRANCH  15  22
ATOM     22  C   UNL     1       8.399   0.437  25.539  0.00  0.00    +0.180 C 
ATOM     23 CL   UNL     1       8.992  -0.656  26.818  0.00  0.00    -0.103 Cl
ENDBRANCH  15  22
ENDBRANCH   1  19
TORSDOF 3
ENDMDL
MODEL 8
REMARK VINA RESULT:      -6.8      1.277      2.286
REMARK  Name = 
REMARK  3 active torsions:
REMARK  status: ('A' for Active; 'I' for Inactive)
REMARK    1  A    between atoms: C_2  and  C_3
REMARK    2  A    between atoms: N_8  and  S_9
REMARK    3  A    between atoms: S_9  and  C_12
REMARK                            x       y       z     vdW  Elec       q    Type
REMARK                         _______ _______ _______ _____ _____    ______ ____
ROOT
ATOM      1  S   UNL     1       7.301  -1.752  22.344  0.00  0.00    +0.063 S 
ATOM      2  O   UNL     1       8.498  -2.517  22.110  0.00  0.00    -0.153 OA
ATOM      3  O   UNL     1       6.081  -2.464  21.949  0.00  0.00    -0.153 OA
ENDROOT
BRANCH   1   4
ATOM      4  C   UNL     1       7.414  -0.319  21.281  0.00  0.00    +0.122 A 
ATOM      5  C   UNL     1       7.047   0.880  21.982  0.00  0.00    +0.020 A 
ATOM      6  C   UNL     1       7.739   2.064  22.738  0.00  0.00    +0.001 A 
ATOM      7  C   UNL     1       7.034   2.008  24.010  0.00  0.00    +0.000 A 
ATOM      8  C   UNL     1       7.932   1.641  25.216  0.00  0.00    +0.000 A 
ATOM      9  C   UNL     1       9.342   1.493  24.826  0.00  0.00    +0.000 A 
ATOM     10  C   UNL     1      10.212   1.825  23.680  0.00  0.00    +0.000 A 
ATOM     11  C   UNL     1       9.251   2.069  22.358  0.00  0.00    +0.000 A 
ATOM     12  C   UNL     1       9.601   0.882  21.617  0.00  0.00    +0.001 A 
ATOM     13  C   UNL     1       9.026  -0.340  20.983  0.00  0.00    +0.020 A 
ENDBRANCH   1   4
BRANCH   1  19
ATOM     14  O   UNL     1       8.494  -5.069  23.761  0.00  0.00    -0.273 OA
ATOM     15  C   UNL     1       7.402  -4.548  23.851  0.00  0.00    +0.242 C 
ATOM     16  N   UNL     1       7.138  -3.672  24.847  0.00  0.00    -0.276 N 
ATOM     17  C   UNL     1       8.259  -2.896  25.383  0.00  0.00    +0.113 C 
ATOM     18  C   UNL     1       8.312  -1.562  24.662  0.00  0.00    +0.117 C 
ATOM     19  N   UNL     1       7.188  -1.327  23.872  0.00  0.00    -0.152 NA
ATOM     20  C   UNL     1       5.962  -1.589  24.488  0.00  0.00    +0.117 C 
ATOM     21  C   UNL     1       5.814  -3.047  24.895  0.00  0.00    +0.113 C 
BRANCH  15  22
ATOM     22  C   UNL     1       6.359  -4.688  22.771  0.00  0.00    +0.180 C 
ATOM     23 CL   UNL     1       6.940  -5.816  21.516  0.00  0.00    -0.103 Cl
ENDBRANCH  15  22
ENDBRANCH   1  19
TORSDOF 3
ENDMDL
MODEL 9
REMARK VINA RESULT:      -6.7      2.680      5.894
REMARK  Name = 
REMARK  3 active torsions:
REMARK  status: ('A' for Active; 'I' for Inactive)
REMARK    1  A    between atoms: C_2  and  C_3
REMARK    2  A    between atoms: N_8  and  S_9
REMARK    3  A    between atoms: S_9  and  C_12
REMARK                            x       y       z     vdW  Elec       q    Type
REMARK                         _______ _______ _______ _____ _____    ______ ____
ROOT
ATOM      1  S   UNL     1       7.725  -1.707  22.846  0.00  0.00    +0.063 S 
ATOM      2  O   UNL     1       7.389  -1.512  24.232  0.00  0.00    -0.153 OA
ATOM      3  O   UNL     1       7.058  -0.751  21.956  0.00  0.00    -0.153 OA
ENDROOT
BRANCH   1   4
ATOM      4  C   UNL     1       7.099  -3.324  22.408  0.00  0.00    +0.122 A 
ATOM      5  C   UNL     1       7.829  -4.364  23.080  0.00  0.00    +0.020 A 
ATOM      6  C   UNL     1       7.697  -5.260  24.357  0.00  0.00    +0.001 A 
ATOM      7  C   UNL     1       8.979  -4.993  24.994  0.00  0.00    +0.000 A 
ATOM      8  C   UNL     1       8.870  -4.264  26.356  0.00  0.00    +0.000 A 
ATOM      9  C   UNL     1       7.470  -4.055  26.755  0.00  0.00    +0.000 A 
ATOM     10  C   UNL     1       6.128  -4.542  26.377  0.00  0.00    +0.000 A 
ATOM     11  C   UNL     1       6.223  -5.186  24.858  0.00  0.00    +0.000 A 
ATOM     12  C   UNL     1       5.488  -4.168  24.148  0.00  0.00    +0.001 A 
ATOM     13  C   UNL     1       5.586  -3.195  23.022  0.00  0.00    +0.020 A 
ENDBRANCH   1   4
BRANCH   1  19
ATOM     14  O   UNL     1       8.277   1.267  25.144  0.00  0.00    -0.273 OA
ATOM     15  C   UNL     1       8.419   1.194  23.942  0.00  0.00    +0.242 C 
ATOM     16  N   UNL     1       9.591   0.777  23.412  0.00  0.00    -0.276 N 
ATOM     17  C   UNL     1      10.405  -0.148  24.207  0.00  0.00    +0.113 C 
ATOM     18  C   UNL     1      10.080  -1.567  23.778  0.00  0.00    +0.117 C 
ATOM     19  N   UNL     1       9.297  -1.620  22.625  0.00  0.00    -0.152 NA
ATOM     20  C   UNL     1       9.721  -0.796  21.580  0.00  0.00    +0.117 C 
ATOM     21  C   UNL     1       9.704   0.678  21.955  0.00  0.00    +0.113 C 
BRANCH  15  22
ATOM     22  C   UNL     1       7.264   1.368  22.989  0.00  0.00    +0.180 C 
ATOM     23 CL   UNL     1       7.133   3.081  22.508  0.00  0.00    -0.103 Cl
ENDBRANCH  15  22
ENDBRANCH   1  19
TORSDOF 3
ENDMDL
