MODEL 1
REMARK VINA RESULT:      -7.2      0.000      0.000
REMARK  Name = 
REMARK  3 active torsions:
REMARK  status: ('A' for Active; 'I' for Inactive)
REMARK    1  A    between atoms: C_2  and  C_3
REMARK    2  A    between atoms: N_8  and  S_9
REMARK    3  A    between atoms: S_9  and  C_12
REMARK                            x       y       z     vdW  Elec       q    Type
REMARK                         _______ _______ _______ _____ _____    ______ ____
ROOT
ATOM      1  S   UNL     1       8.555  -3.017  23.919  0.00  0.00    +0.063 S 
ATOM      2  O   UNL     1       7.910  -2.447  25.072  0.00  0.00    -0.153 OA
ATOM      3  O   UNL     1       8.995  -4.405  24.149  0.00  0.00    -0.153 OA
ENDROOT
BRANCH   1   4
ATOM      4  C   UNL     1       9.935  -2.110  23.449  0.00  0.00    +0.122 A 
ATOM      5  C   UNL     1      10.079  -0.807  24.178  0.00  0.00    +0.020 A 
ATOM      6  C   UNL     1      10.147   0.581  24.120  0.00  0.00    +0.001 A 
ATOM      7  C   UNL     1       9.066   1.130  25.139  0.00  0.00    +0.000 A 
ATOM      8  C   UNL     1       8.705   2.418  24.387  0.00  0.00    +0.000 A 
ATOM      9  C   UNL     1       8.870   2.767  23.071  0.00  0.00    +0.000 A 
ATOM     10  C   UNL     1       9.819   2.057  22.112  0.00  0.00    +0.000 A 
ATOM     11  C   UNL     1      10.128   0.881  22.643  0.00  0.00    +0.000 A 
ATOM     12  C   UNL     1       9.703  -0.236  21.727  0.00  0.00    +0.001 A 
ATOM     13  C   UNL     1       9.631  -1.686  21.887  0.00  0.00    +0.020 A 
ENDBRANCH   1   4
BRANCH   1  19
ATOM     14  O   UNL     1       5.223  -3.723  26.090  0.00  0.00    -0.273 OA
ATOM     15  C   UNL     1       5.830  -4.453  25.335  0.00  0.00    +0.242 C 
ATOM     16  N   UNL     1       5.606  -4.400  24.000  0.00  0.00    -0.276 N 
ATOM     17  C   UNL     1       5.133  -3.137  23.435  0.00  0.00    +0.113 C 
ATOM     18  C   UNL     1       6.317  -2.335  22.945  0.00  0.00    +0.117 C 
ATOM     19  N   UNL     1       7.456  -3.093  22.696  0.00  0.00    -0.152 NA
ATOM     20  C   UNL     1       7.251  -4.377  22.221  0.00  0.00    +0.117 C 
ATOM     21  C   UNL     1       6.417  -5.253  23.129  0.00  0.00    +0.113 C 
BRANCH  15  22
ATOM     22  C   UNL     1       6.620  -5.637  25.837  0.00  0.00    +0.180 C 
ATOM     23 CL   UNL     1       7.635  -5.149  27.215  0.00  0.00    -0.103 Cl
ENDBRANCH  15  22
ENDBRANCH   1  19
TORSDOF 3
ENDMDL
MODEL 2
REMARK VINA RESULT:      -7.2      2.187      3.040
REMARK  Name = 
REMARK  3 active torsions:
REMARK  status: ('A' for Active; 'I' for Inactive)
REMARK    1  A    between atoms: C_2  and  C_3
REMARK    2  A    between atoms: N_8  and  S_9
REMARK    3  A    between atoms: S_9  and  C_12
REMARK                            x       y       z     vdW  Elec       q    Type
REMARK                         _______ _______ _______ _____ _____    ______ ____
ROOT
ATOM      1  S   UNL     1       8.225  -1.899  22.290  0.00  0.00    +0.063 S 
ATOM      2  O   UNL     1       9.273  -2.883  22.225  0.00  0.00    -0.153 OA
ATOM      3  O   UNL     1       6.910  -2.451  21.915  0.00  0.00    -0.153 OA
ENDROOT
BRANCH   1   4
ATOM      4  C   UNL     1       8.537  -0.566  21.253  0.00  0.00    +0.122 A 
ATOM      5  C   UNL     1       9.383   0.502  21.881  0.00  0.00    +0.020 A 
ATOM      6  C   UNL     1       9.507   1.826  22.290  0.00  0.00    +0.001 A 
ATOM      7  C   UNL     1       9.967   1.790  23.805  0.00  0.00    +0.000 A 
ATOM      8  C   UNL     1       9.273   3.079  24.265  0.00  0.00    +0.000 A 
ATOM      9  C   UNL     1       8.223   3.777  23.724  0.00  0.00    +0.000 A 
ATOM     10  C   UNL     1       7.738   3.612  22.288  0.00  0.00    +0.000 A 
ATOM     11  C   UNL     1       8.226   2.470  21.823  0.00  0.00    +0.000 A 
ATOM     12  C   UNL     1       7.107   1.544  21.425  0.00  0.00    +0.001 A 
ATOM     13  C   UNL     1       7.063   0.137  21.038  0.00  0.00    +0.020 A 
ENDBRANCH   1   4
BRANCH   1  19
ATOM     14  O   UNL     1       8.874  -5.428  24.144  0.00  0.00    -0.273 OA
ATOM     15  C   UNL     1       7.854  -4.778  24.040  0.00  0.00    +0.242 C 
ATOM     16  N   UNL     1       7.601  -3.756  24.893  0.00  0.00    -0.276 N 
ATOM     17  C   UNL     1       8.742  -3.074  25.501  0.00  0.00    +0.113 C 
ATOM     18  C   UNL     1       9.103  -1.866  24.667  0.00  0.00    +0.117 C 
ATOM     19  N   UNL     1       8.074  -1.406  23.852  0.00  0.00    -0.152 NA
ATOM     20  C   UNL     1       6.788  -1.540  24.349  0.00  0.00    +0.117 C 
ATOM     21  C   UNL     1       6.390  -2.961  24.678  0.00  0.00    +0.113 C 
BRANCH  15  22
ATOM     22  C   UNL     1       6.701  -5.240  23.183  0.00  0.00    +0.180 C 
ATOM     23 CL   UNL     1       7.307  -5.841  21.622  0.00  0.00    -0.103 Cl
ENDBRANCH  15  22
ENDBRANCH   1  19
TORSDOF 3
ENDMDL
MODEL 3
REMARK VINA RESULT:      -7.1      2.017      2.580
REMARK  Name = 
REMARK  3 active torsions:
REMARK  status: ('A' for Active; 'I' for Inactive)
REMARK    1  A    between atoms: C_2  and  C_3
REMARK    2  A    between atoms: N_8  and  S_9
REMARK    3  A    between atoms: S_9  and  C_12
REMARK                            x       y       z     vdW  Elec       q    Type
REMARK                         _______ _______ _______ _____ _____    ______ ____
ROOT
ATOM      1  S   UNL     1       7.239  -2.750  22.362  0.00  0.00    +0.063 S 
ATOM      2  O   UNL     1       5.978  -2.852  21.676  0.00  0.00    -0.153 OA
ATOM      3  O   UNL     1       7.122  -2.057  23.658  0.00  0.00    -0.153 OA
ENDROOT
BRANCH   1   4
ATOM      4  C   UNL     1       8.403  -1.900  21.429  0.00  0.00    +0.122 A 
ATOM      5  C   UNL     1       9.558  -1.379  22.233  0.00  0.00    +0.020 A 
ATOM      6  C   UNL     1      10.298  -0.287  22.673  0.00  0.00    +0.001 A 
ATOM      7  C   UNL     1      10.378  -0.401  24.251  0.00  0.00    +0.000 A 
ATOM      8  C   UNL     1      10.416   1.100  24.568  0.00  0.00    +0.000 A 
ATOM      9  C   UNL     1      10.028   2.186  23.824  0.00  0.00    +0.000 A 
ATOM     10  C   UNL     1       9.804   2.152  22.316  0.00  0.00    +0.000 A 
ATOM     11  C   UNL     1       9.676   0.883  21.953  0.00  0.00    +0.000 A 
ATOM     12  C   UNL     1       8.330   0.652  21.317  0.00  0.00    +0.001 A 
ATOM     13  C   UNL     1       7.609  -0.551  20.915  0.00  0.00    +0.020 A 
ENDBRANCH   1   4
BRANCH   1  19
ATOM     14  O   UNL     1       3.665  -4.545  22.926  0.00  0.00    -0.273 OA
ATOM     15  C   UNL     1       4.533  -4.268  23.727  0.00  0.00    +0.242 C 
ATOM     16  N   UNL     1       5.590  -5.095  23.910  0.00  0.00    -0.276 N 
ATOM     17  C   UNL     1       5.994  -5.947  22.792  0.00  0.00    +0.113 C 
ATOM     18  C   UNL     1       7.081  -5.254  22.003  0.00  0.00    +0.117 C 
ATOM     19  N   UNL     1       7.762  -4.270  22.713  0.00  0.00    -0.152 NA
ATOM     20  C   UNL     1       7.932  -4.494  24.068  0.00  0.00    +0.117 C 
ATOM     21  C   UNL     1       6.643  -4.676  24.838  0.00  0.00    +0.113 C 
BRANCH  15  22
ATOM     22  C   UNL     1       4.346  -3.179  24.756  0.00  0.00    +0.180 C 
ATOM     23 CL   UNL     1       2.717  -3.286  25.465  0.00  0.00    -0.103 Cl
ENDBRANCH  15  22
ENDBRANCH   1  19
TORSDOF 3
ENDMDL
MODEL 4
REMARK VINA RESULT:      -7.1      1.651      2.058
REMARK  Name = 
REMARK  3 active torsions:
REMARK  status: ('A' for Active; 'I' for Inactive)
REMARK    1  A    between atoms: C_2  and  C_3
REMARK    2  A    between atoms: N_8  and  S_9
REMARK    3  A    between atoms: S_9  and  C_12
REMARK                            x       y       z     vdW  Elec       q    Type
REMARK                         _______ _______ _______ _____ _____    ______ ____
ROOT
ATOM      1  S   UNL     1       8.649  -3.004  23.806  0.00  0.00    +0.063 S 
ATOM      2  O   UNL     1       9.155  -4.093  24.600  0.00  0.00    -0.153 OA
ATOM      3  O   UNL     1       7.719  -3.458  22.755  0.00  0.00    -0.153 OA
ENDROOT
BRANCH   1   4
ATOM      4  C   UNL     1       9.915  -2.139  23.033  0.00  0.00    +0.122 A 
ATOM      5  C   UNL     1      10.321  -0.888  23.756  0.00  0.00    +0.020 A 
ATOM      6  C   UNL     1      10.456   0.496  23.743  0.00  0.00    +0.001 A 
ATOM      7  C   UNL     1       9.707   1.036  25.030  0.00  0.00    +0.000 A 
ATOM      8  C   UNL     1       9.245   2.381  24.455  0.00  0.00    +0.000 A 
ATOM      9  C   UNL     1       9.087   2.797  23.157  0.00  0.00    +0.000 A 
ATOM     10  C   UNL     1       9.713   2.099  21.954  0.00  0.00    +0.000 A 
ATOM     11  C   UNL     1      10.076   0.882  22.336  0.00  0.00    +0.000 A 
ATOM     12  C   UNL     1       9.363  -0.159  21.514  0.00  0.00    +0.001 A 
ATOM     13  C   UNL     1       9.246  -1.611  21.624  0.00  0.00    +0.020 A 
ENDBRANCH   1   4
BRANCH   1  19
ATOM     14  O   UNL     1       6.992  -5.787  26.219  0.00  0.00    -0.273 OA
ATOM     15  C   UNL     1       6.480  -5.087  25.370  0.00  0.00    +0.242 C 
ATOM     16  N   UNL     1       6.099  -3.821  25.662  0.00  0.00    -0.276 N 
ATOM     17  C   UNL     1       6.809  -3.121  26.732  0.00  0.00    +0.113 C 
ATOM     18  C   UNL     1       7.932  -2.305  26.134  0.00  0.00    +0.117 C 
ATOM     19  N   UNL     1       7.771  -2.014  24.783  0.00  0.00    -0.152 NA
ATOM     20  C   UNL     1       6.472  -1.821  24.346  0.00  0.00    +0.117 C 
ATOM     21  C   UNL     1       5.551  -2.998  24.581  0.00  0.00    +0.113 C 
BRANCH  15  22
ATOM     22  C   UNL     1       5.972  -5.659  24.069  0.00  0.00    +0.180 C 
ATOM     23 CL   UNL     1       4.653  -6.811  24.386  0.00  0.00    -0.103 Cl
ENDBRANCH  15  22
ENDBRANCH   1  19
TORSDOF 3
ENDMDL
MODEL 5
REMARK VINA RESULT:      -6.9      2.025      2.910
REMARK  Name = 
REMARK  3 active torsions:
REMARK  status: ('A' for Active; 'I' for Inactive)
REMARK    1  A    between atoms: C_2  and  C_3
REMARK    2  A    between atoms: N_8  and  S_9
REMARK    3  A    between atoms: S_9  and  C_12
REMARK                            x       y       z     vdW  Elec       q    Type
REMARK                         _______ _______ _______ _____ _____    ______ ____
ROOT
ATOM      1  S   UNL     1       7.514  -3.325  23.633  0.00  0.00    +0.063 S 
ATOM      2  O   UNL     1       7.279  -4.743  23.568  0.00  0.00    -0.153 OA
ATOM      3  O   UNL     1       6.315  -2.573  24.047  0.00  0.00    -0.153 OA
ENDROOT
BRANCH   1   4
ATOM      4  C   UNL     1       8.019  -2.694  22.117  0.00  0.00    +0.122 A 
ATOM      5  C   UNL     1       9.233  -1.816  22.203  0.00  0.00    +0.020 A 
ATOM      6  C   UNL     1       9.804  -0.564  22.005  0.00  0.00    +0.001 A 
ATOM      7  C   UNL     1      10.486  -0.155  23.375  0.00  0.00    +0.000 A 
ATOM      8  C   UNL     1      10.285   1.362  23.265  0.00  0.00    +0.000 A 
ATOM      9  C   UNL     1       9.407   2.100  22.512  0.00  0.00    +0.000 A 
ATOM     10  C   UNL     1       8.657   1.559  21.299  0.00  0.00    +0.000 A 
ATOM     11  C   UNL     1       8.705   0.235  21.350  0.00  0.00    +0.000 A 
ATOM     12  C   UNL     1       7.315  -0.338  21.421  0.00  0.00    +0.001 A 
ATOM     13  C   UNL     1       6.799  -1.681  21.672  0.00  0.00    +0.020 A 
ENDBRANCH   1   4
BRANCH   1  19
ATOM     14  O   UNL     1       6.421  -6.152  26.302  0.00  0.00    -0.273 OA
ATOM     15  C   UNL     1       6.328  -4.944  26.365  0.00  0.00    +0.242 C 
ATOM     16  N   UNL     1       7.381  -4.194  26.770  0.00  0.00    -0.276 N 
ATOM     17  C   UNL     1       8.725  -4.727  26.553  0.00  0.00    +0.113 C 
ATOM     18  C   UNL     1       9.265  -4.201  25.243  0.00  0.00    +0.117 C 
ATOM     19  N   UNL     1       8.644  -3.040  24.795  0.00  0.00    -0.152 NA
ATOM     20  C   UNL     1       8.219  -2.153  25.769  0.00  0.00    +0.117 C 
ATOM     21  C   UNL     1       7.236  -2.737  26.759  0.00  0.00    +0.113 C 
BRANCH  15  22
ATOM     22  C   UNL     1       4.993  -4.244  26.294  0.00  0.00    +0.180 C 
ATOM     23 CL   UNL     1       4.168  -4.350  27.867  0.00  0.00    -0.103 Cl
ENDBRANCH  15  22
ENDBRANCH   1  19
TORSDOF 3
ENDMDL
MODEL 6
REMARK VINA RESULT:      -6.7      2.953      6.477
REMARK  Name = 
REMARK  3 active torsions:
REMARK  status: ('A' for Active; 'I' for Inactive)
REMARK    1  A    between atoms: C_2  and  C_3
REMARK    2  A    between atoms: N_8  and  S_9
REMARK    3  A    between atoms: S_9  and  C_12
REMARK                            x       y       z     vdW  Elec       q    Type
REMARK                         _______ _______ _______ _____ _____    ______ ____
ROOT
ATOM      1  S   UNL     1       8.664  -1.568  24.279  0.00  0.00    +0.063 S 
ATOM      2  O   UNL     1       7.391  -1.165  23.741  0.00  0.00    -0.153 OA
ATOM      3  O   UNL     1       9.716  -1.635  23.247  0.00  0.00    -0.153 OA
ENDROOT
BRANCH   1   4
ATOM      4  C   UNL     1       8.579  -3.111  25.028  0.00  0.00    +0.122 A 
ATOM      5  C   UNL     1       8.325  -4.235  24.068  0.00  0.00    +0.020 A 
ATOM      6  C   UNL     1       7.505  -5.282  23.661  0.00  0.00    +0.001 A 
ATOM      7  C   UNL     1       7.218  -5.059  22.119  0.00  0.00    +0.000 A 
ATOM      8  C   UNL     1       5.809  -5.665  22.078  0.00  0.00    +0.000 A 
ATOM      9  C   UNL     1       4.895  -5.884  23.078  0.00  0.00    +0.000 A 
ATOM     10  C   UNL     1       5.242  -5.906  24.563  0.00  0.00    +0.000 A 
ATOM     11  C   UNL     1       6.424  -5.322  24.712  0.00  0.00    +0.000 A 
ATOM     12  C   UNL     1       6.305  -4.121  25.611  0.00  0.00    +0.001 A 
ATOM     13  C   UNL     1       7.222  -3.038  25.958  0.00  0.00    +0.020 A 
ENDBRANCH   1   4
BRANCH   1  19
ATOM     14  O   UNL     1       7.210   1.713  22.425  0.00  0.00    -0.273 OA
ATOM     15  C   UNL     1       8.357   1.348  22.577  0.00  0.00    +0.242 C 
ATOM     16  N   UNL     1       9.020   1.623  23.726  0.00  0.00    -0.276 N 
ATOM     17  C   UNL     1       8.232   1.798  24.945  0.00  0.00    +0.113 C 
ATOM     18  C   UNL     1       8.154   0.480  25.682  0.00  0.00    +0.117 C 
ATOM     19  N   UNL     1       9.161  -0.421  25.349  0.00  0.00    -0.152 NA
ATOM     20  C   UNL     1      10.396   0.123  25.039  0.00  0.00    +0.117 C 
ATOM     21  C   UNL     1      10.378   1.098  23.883  0.00  0.00    +0.113 C 
BRANCH  15  22
ATOM     22  C   UNL     1       9.192   0.850  21.422  0.00  0.00    +0.180 C 
ATOM     23 CL   UNL     1       8.143   0.115  20.186  0.00  0.00    -0.103 Cl
ENDBRANCH  15  22
ENDBRANCH   1  19
TORSDOF 3
ENDMDL
MODEL 7
REMARK VINA RESULT:      -6.6      2.822      6.407
REMARK  Name = 
REMARK  3 active torsions:
REMARK  status: ('A' for Active; 'I' for Inactive)
REMARK    1  A    between atoms: C_2  and  C_3
REMARK    2  A    between atoms: N_8  and  S_9
REMARK    3  A    between atoms: S_9  and  C_12
REMARK                            x       y       z     vdW  Elec       q    Type
REMARK                         _______ _______ _______ _____ _____    ______ ____
ROOT
ATOM      1  S   UNL     1       7.824  -1.343  24.851  0.00  0.00    +0.063 S 
ATOM      2  O   UNL     1       9.033  -1.247  25.625  0.00  0.00    -0.153 OA
ATOM      3  O   UNL     1       7.075  -0.073  24.815  0.00  0.00    -0.153 OA
ENDROOT
BRANCH   1   4
ATOM      4  C   UNL     1       6.766  -2.546  25.469  0.00  0.00    +0.122 A 
ATOM      5  C   UNL     1       7.086  -3.933  24.995  0.00  0.00    +0.020 A 
ATOM      6  C   UNL     1       6.681  -5.074  24.311  0.00  0.00    +0.001 A 
ATOM      7  C   UNL     1       7.810  -5.388  23.245  0.00  0.00    +0.000 A 
ATOM      8  C   UNL     1       6.912  -6.005  22.164  0.00  0.00    +0.000 A 
ATOM      9  C   UNL     1       5.562  -5.896  21.948  0.00  0.00    +0.000 A 
ATOM     10  C   UNL     1       4.565  -5.410  22.995  0.00  0.00    +0.000 A 
ATOM     11  C   UNL     1       5.247  -4.784  23.944  0.00  0.00    +0.000 A 
ATOM     12  C   UNL     1       4.793  -3.353  24.059  0.00  0.00    +0.001 A 
ATOM     13  C   UNL     1       5.308  -2.196  24.786  0.00  0.00    +0.020 A 
ENDBRANCH   1   4
BRANCH   1  19
ATOM     14  O   UNL     1      11.248   0.788  24.631  0.00  0.00    -0.273 OA
ATOM     15  C   UNL     1      10.172   0.986  24.107  0.00  0.00    +0.242 C 
ATOM     16  N   UNL     1       9.845   0.364  22.949  0.00  0.00    -0.276 N 
ATOM     17  C   UNL     1      10.472  -0.927  22.666  0.00  0.00    +0.113 C 
ATOM     18  C   UNL     1       9.566  -2.037  23.145  0.00  0.00    +0.117 C 
ATOM     19  N   UNL     1       8.233  -1.665  23.290  0.00  0.00    -0.152 NA
ATOM     20  C   UNL     1       7.755  -0.727  22.391  0.00  0.00    +0.117 C 
ATOM     21  C   UNL     1       8.506   0.586  22.399  0.00  0.00    +0.113 C 
BRANCH  15  22
ATOM     22  C   UNL     1       9.281   2.129  24.530  0.00  0.00    +0.180 C 
ATOM     23 CL   UNL     1       9.869   3.652  23.820  0.00  0.00    -0.103 Cl
ENDBRANCH  15  22
ENDBRANCH   1  19
TORSDOF 3
ENDMDL
MODEL 8
REMARK VINA RESULT:      -6.6      2.645      6.227
REMARK  Name = 
REMARK  3 active torsions:
REMARK  status: ('A' for Active; 'I' for Inactive)
REMARK    1  A    between atoms: C_2  and  C_3
REMARK    2  A    between atoms: N_8  and  S_9
REMARK    3  A    between atoms: S_9  and  C_12
REMARK                            x       y       z     vdW  Elec       q    Type
REMARK                         _______ _______ _______ _____ _____    ______ ____
ROOT
ATOM      1  S   UNL     1       8.668  -2.150  23.730  0.00  0.00    +0.063 S 
ATOM      2  O   UNL     1       9.744  -1.839  22.826  0.00  0.00    -0.153 OA
ATOM      3  O   UNL     1       8.760  -1.402  24.997  0.00  0.00    -0.153 OA
ENDROOT
BRANCH   1   4
ATOM      4  C   UNL     1       8.629  -3.822  24.122  0.00  0.00    +0.122 A 
ATOM      5  C   UNL     1       7.534  -4.579  23.430  0.00  0.00    +0.020 A 
ATOM      6  C   UNL     1       6.383  -5.353  23.531  0.00  0.00    +0.001 A 
ATOM      7  C   UNL     1       5.288  -4.659  22.621  0.00  0.00    +0.000 A 
ATOM      8  C   UNL     1       4.054  -5.050  23.444  0.00  0.00    +0.000 A 
ATOM      9  C   UNL     1       3.932  -5.436  24.755  0.00  0.00    +0.000 A 
ATOM     10  C   UNL     1       5.093  -5.931  25.611  0.00  0.00    +0.000 A 
ATOM     11  C   UNL     1       6.220  -5.565  25.016  0.00  0.00    +0.000 A 
ATOM     12  C   UNL     1       7.026  -4.671  25.922  0.00  0.00    +0.001 A 
ATOM     13  C   UNL     1       8.220  -3.856  25.717  0.00  0.00    +0.020 A 
ENDBRANCH   1   4
BRANCH   1  19
ATOM     14  O   UNL     1       9.963   1.178  21.844  0.00  0.00    -0.273 OA
ATOM     15  C   UNL     1       9.230   1.062  22.804  0.00  0.00    +0.242 C 
ATOM     16  N   UNL     1       7.908   0.822  22.634  0.00  0.00    -0.276 N 
ATOM     17  C   UNL     1       7.489   0.132  21.415  0.00  0.00    +0.113 C 
ATOM     18  C   UNL     1       7.396  -1.351  21.688  0.00  0.00    +0.117 C 
ATOM     19  N   UNL     1       7.254  -1.676  23.033  0.00  0.00    -0.152 NA
ATOM     20  C   UNL     1       6.530  -0.787  23.809  0.00  0.00    +0.117 C 
ATOM     21  C   UNL     1       7.083   0.621  23.827  0.00  0.00    +0.113 C 
BRANCH  15  22
ATOM     22  C   UNL     1       9.666   1.465  24.192  0.00  0.00    +0.180 C 
ATOM     23 CL   UNL     1      11.274   0.786  24.544  0.00  0.00    -0.103 Cl
ENDBRANCH  15  22
ENDBRANCH   1  19
TORSDOF 3
ENDMDL
MODEL 9
REMARK VINA RESULT:      -6.6      3.072      6.358
REMARK  Name = 
REMARK  3 active torsions:
REMARK  status: ('A' for Active; 'I' for Inactive)
REMARK    1  A    between atoms: C_2  and  C_3
REMARK    2  A    between atoms: N_8  and  S_9
REMARK    3  A    between atoms: S_9  and  C_12
REMARK                            x       y       z     vdW  Elec       q    Type
REMARK                         _______ _______ _______ _____ _____    ______ ____
ROOT
ATOM      1  S   UNL     1       9.021  -1.367  24.083  0.00  0.00    +0.063 S 
ATOM      2  O   UNL     1      10.257  -1.048  23.418  0.00  0.00    -0.153 OA
ATOM      3  O   UNL     1       8.678  -0.390  25.132  0.00  0.00    -0.153 OA
ENDROOT
BRANCH   1   4
ATOM      4  C   UNL     1       9.077  -2.916  24.821  0.00  0.00    +0.122 A 
ATOM      5  C   UNL     1       8.598  -4.026  23.932  0.00  0.00    +0.020 A 
ATOM      6  C   UNL     1       7.690  -5.055  23.708  0.00  0.00    +0.001 A 
ATOM      7  C   UNL     1       7.074  -4.811  22.269  0.00  0.00    +0.000 A 
ATOM      8  C   UNL     1       5.680  -5.394  22.535  0.00  0.00    +0.000 A 
ATOM      9  C   UNL     1       5.005  -5.610  23.710  0.00  0.00    +0.000 A 
ATOM     10  C   UNL     1       5.671  -5.654  25.081  0.00  0.00    +0.000 A 
ATOM     11  C   UNL     1       6.866  -5.091  24.971  0.00  0.00    +0.000 A 
ATOM     12  C   UNL     1       6.970  -3.897  25.883  0.00  0.00    +0.001 A 
ATOM     13  C   UNL     1       7.959  -2.833  26.027  0.00  0.00    +0.020 A 
ENDBRANCH   1   4
BRANCH   1  19
ATOM     14  O   UNL     1      10.319   1.793  21.928  0.00  0.00    -0.273 OA
ATOM     15  C   UNL     1       9.373   1.700  22.682  0.00  0.00    +0.242 C 
ATOM     16  N   UNL     1       8.194   1.194  22.246  0.00  0.00    -0.276 N 
ATOM     17  C   UNL     1       8.225   0.249  21.130  0.00  0.00    +0.113 C 
ATOM     18  C   UNL     1       8.264  -1.161  21.673  0.00  0.00    +0.117 C 
ATOM     19  N   UNL     1       7.803  -1.284  22.979  0.00  0.00    -0.152 NA
ATOM     20  C   UNL     1       6.779  -0.431  23.353  0.00  0.00    +0.117 C 
ATOM     21  C   UNL     1       7.108   1.039  23.216  0.00  0.00    +0.113 C 
BRANCH  15  22
ATOM     22  C   UNL     1       9.351   2.398  24.020  0.00  0.00    +0.180 C 
ATOM     23 CL   UNL     1       9.229   4.158  23.785  0.00  0.00    -0.103 Cl
ENDBRANCH  15  22
ENDBRANCH   1  19
TORSDOF 3
ENDMDL
