MODEL 1
REMARK VINA RESULT:      -6.3      0.000      0.000
REMARK  Name = 
REMARK  2 active torsions:
REMARK  status: ('A' for Active; 'I' for Inactive)
REMARK    1  A    between atoms: C_2  and  C_3
REMARK    2  A    between atoms: C_8  and  C_9
REMARK                            x       y       z     vdW  Elec       q    Type
REMARK                         _______ _______ _______ _____ _____    ______ ____
ROOT
ATOM      1  O   UNL     1       8.578  -5.704  23.767  0.00  0.00    -0.273 OA
ATOM      2  C   UNL     1       8.204  -4.615  24.112  0.00  0.00    +0.242 C 
ATOM      3  N   UNL     1       8.490  -3.507  23.382  0.00  0.00    -0.279 N 
ATOM      4  C   UNL     1       7.578  -3.135  22.318  0.00  0.00    +0.094 C 
ATOM      5  C   UNL     1       6.991  -1.760  22.629  0.00  0.00    +0.024 C 
ATOM      6  C   UNL     1       8.126  -0.795  22.881  0.00  0.00    +0.034 C 
ATOM      7  C   UNL     1       8.966  -1.212  24.048  0.00  0.00    +0.024 C 
ATOM      8  C   UNL     1       9.521  -2.612  23.844  0.00  0.00    +0.094 C 
ENDROOT
BRANCH   6   9
ATOM      9  C   UNL     1       8.972  -0.641  21.600  0.00  0.00    +0.144 C 
ATOM     10  S   UNL     1       7.962   0.643  20.690  0.00  0.00    -0.091 S 
ATOM     11  C   UNL     1       8.297   1.793  21.779  0.00  0.00    +0.042 A 
ATOM     12  C   UNL     1       7.179   2.353  22.510  0.00  0.00    +0.007 A 
ATOM     13  C   UNL     1       7.779   3.530  23.382  0.00  0.00    +0.001 A 
ATOM     14  C   UNL     1       9.254   3.433  23.543  0.00  0.00    +0.001 A 
ATOM     15  C   UNL     1      10.275   2.558  22.769  0.00  0.00    +0.017 A 
ATOM     16  C   UNL     1       9.789   1.551  21.941  0.00  0.00    +0.072 A 
ATOM     17  N   UNL     1      10.141   0.277  22.010  0.00  0.00    -0.228 NA
ENDBRANCH   6   9
BRANCH   2  18
ATOM     18  C   UNL     1       7.443  -4.364  25.392  0.00  0.00    +0.180 C 
ATOM     19 CL   UNL     1       8.523  -4.639  26.788  0.00  0.00    -0.103 Cl
ENDBRANCH   2  18
TORSDOF 2
ENDMDL
MODEL 2
REMARK VINA RESULT:      -6.2      2.083      2.761
REMARK  Name = 
REMARK  2 active torsions:
REMARK  status: ('A' for Active; 'I' for Inactive)
REMARK    1  A    between atoms: C_2  and  C_3
REMARK    2  A    between atoms: C_8  and  C_9
REMARK                            x       y       z     vdW  Elec       q    Type
REMARK                         _______ _______ _______ _____ _____    ______ ____
ROOT
ATOM      1  O   UNL     1       7.805  -5.580  27.429  0.00  0.00    -0.273 OA
ATOM      2  C   UNL     1       7.335  -4.809  26.636  0.00  0.00    +0.242 C 
ATOM      3  N   UNL     1       8.108  -3.887  26.006  0.00  0.00    -0.279 N 
ATOM      4  C   UNL     1       8.761  -4.272  24.770  0.00  0.00    +0.094 C 
ATOM      5  C   UNL     1       8.241  -3.384  23.640  0.00  0.00    +0.024 C 
ATOM      6  C   UNL     1       8.412  -1.938  24.045  0.00  0.00    +0.034 C 
ATOM      7  C   UNL     1       7.638  -1.608  25.282  0.00  0.00    +0.024 C 
ATOM      8  C   UNL     1       8.045  -2.512  26.434  0.00  0.00    +0.094 C 
ENDROOT
BRANCH   6   9
ATOM      9  C   UNL     1       9.911  -1.618  24.212  0.00  0.00    +0.144 C 
ATOM     10  S   UNL     1      10.455  -1.638  22.423  0.00  0.00    -0.091 S 
ATOM     11  C   UNL     1       9.591  -0.318  22.063  0.00  0.00    +0.042 A 
ATOM     12  C   UNL     1       8.534  -0.470  21.083  0.00  0.00    +0.007 A 
ATOM     13  C   UNL     1       7.967   0.986  20.831  0.00  0.00    +0.001 A 
ATOM     14  C   UNL     1       8.326   1.940  21.914  0.00  0.00    +0.001 A 
ATOM     15  C   UNL     1       9.378   1.796  23.045  0.00  0.00    +0.017 A 
ATOM     16  C   UNL     1       9.950   0.545  23.260  0.00  0.00    +0.072 A 
ATOM     17  N   UNL     1       9.965  -0.092  24.421  0.00  0.00    -0.228 NA
ENDBRANCH   6   9
BRANCH   2  18
ATOM     18  C   UNL     1       5.863  -4.750  26.305  0.00  0.00    +0.180 C 
ATOM     19 CL   UNL     1       5.537  -5.761  24.869  0.00  0.00    -0.103 Cl
ENDBRANCH   2  18
TORSDOF 2
ENDMDL
MODEL 3
REMARK VINA RESULT:      -6.2      2.057      2.994
REMARK  Name = 
REMARK  2 active torsions:
REMARK  status: ('A' for Active; 'I' for Inactive)
REMARK    1  A    between atoms: C_2  and  C_3
REMARK    2  A    between atoms: C_8  and  C_9
REMARK                            x       y       z     vdW  Elec       q    Type
REMARK                         _______ _______ _______ _____ _____    ______ ____
ROOT
ATOM      1  O   UNL     1       8.611  -4.199  26.819  0.00  0.00    -0.273 OA
ATOM      2  C   UNL     1       8.104  -4.013  25.746  0.00  0.00    +0.242 C 
ATOM      3  N   UNL     1       8.199  -2.812  25.119  0.00  0.00    -0.279 N 
ATOM      4  C   UNL     1       9.347  -2.574  24.266  0.00  0.00    +0.094 C 
ATOM      5  C   UNL     1       8.860  -2.341  22.837  0.00  0.00    +0.024 C 
ATOM      6  C   UNL     1       7.822  -1.243  22.854  0.00  0.00    +0.034 C 
ATOM      7  C   UNL     1       6.636  -1.607  23.690  0.00  0.00    +0.024 C 
ATOM      8  C   UNL     1       7.056  -1.934  25.114  0.00  0.00    +0.094 C 
ENDROOT
BRANCH   6   9
ATOM      9  C   UNL     1       8.467   0.075  23.327  0.00  0.00    +0.144 C 
ATOM     10  S   UNL     1       9.538   0.470  21.846  0.00  0.00    -0.091 S 
ATOM     11  C   UNL     1       8.258   0.731  20.891  0.00  0.00    +0.042 A 
ATOM     12  C   UNL     1       8.102  -0.143  19.746  0.00  0.00    +0.007 A 
ATOM     13  C   UNL     1       6.870   0.427  18.932  0.00  0.00    +0.001 A 
ATOM     14  C   UNL     1       6.013   1.333  19.742  0.00  0.00    +0.001 A 
ATOM     15  C   UNL     1       6.305   2.003  21.111  0.00  0.00    +0.017 A 
ATOM     16  C   UNL     1       7.416   1.575  21.833  0.00  0.00    +0.072 A 
ATOM     17  N   UNL     1       7.387   1.149  23.086  0.00  0.00    -0.228 NA
ENDBRANCH   6   9
BRANCH   2  18
ATOM     18  C   UNL     1       7.282  -5.053  25.023  0.00  0.00    +0.180 C 
ATOM     19 CL   UNL     1       5.849  -5.465  26.007  0.00  0.00    -0.103 Cl
ENDBRANCH   2  18
TORSDOF 2
ENDMDL
MODEL 4
REMARK VINA RESULT:      -6.0      3.601      6.394
REMARK  Name = 
REMARK  2 active torsions:
REMARK  status: ('A' for Active; 'I' for Inactive)
REMARK    1  A    between atoms: C_2  and  C_3
REMARK    2  A    between atoms: C_8  and  C_9
REMARK                            x       y       z     vdW  Elec       q    Type
REMARK                         _______ _______ _______ _____ _____    ______ ____
ROOT
ATOM      1  O   UNL     1      11.407   0.937  24.743  0.00  0.00    -0.273 OA
ATOM      2  C   UNL     1      10.329   0.602  24.330  0.00  0.00    +0.242 C 
ATOM      3  N   UNL     1       9.878  -0.669  24.488  0.00  0.00    -0.279 N 
ATOM      4  C   UNL     1       9.163  -0.995  25.705  0.00  0.00    +0.094 C 
ATOM      5  C   UNL     1       7.741  -1.424  25.344  0.00  0.00    +0.024 C 
ATOM      6  C   UNL     1       7.818  -2.529  24.317  0.00  0.00    +0.034 C 
ATOM      7  C   UNL     1       8.497  -2.081  23.061  0.00  0.00    +0.024 C 
ATOM      8  C   UNL     1       9.894  -1.561  23.356  0.00  0.00    +0.094 C 
ENDROOT
BRANCH   6   9
ATOM      9  C   UNL     1       8.514  -3.761  24.929  0.00  0.00    +0.144 C 
ATOM     10  S   UNL     1       7.084  -4.519  25.866  0.00  0.00    -0.091 S 
ATOM     11  C   UNL     1       6.286  -4.888  24.506  0.00  0.00    +0.042 A 
ATOM     12  C   UNL     1       4.996  -4.258  24.309  0.00  0.00    +0.007 A 
ATOM     13  C   UNL     1       4.399  -4.903  22.993  0.00  0.00    +0.001 A 
ATOM     14  C   UNL     1       5.433  -5.567  22.155  0.00  0.00    +0.001 A 
ATOM     15  C   UNL     1       6.890  -5.960  22.515  0.00  0.00    +0.017 A 
ATOM     16  C   UNL     1       7.435  -5.465  23.696  0.00  0.00    +0.072 A 
ATOM     17  N   UNL     1       8.571  -4.791  23.782  0.00  0.00    -0.228 NA
ENDBRANCH   6   9
BRANCH   2  18
ATOM     18  C   UNL     1       9.409   1.522  23.564  0.00  0.00    +0.180 C 
ATOM     19 CL   UNL     1      10.060   1.778  21.921  0.00  0.00    -0.103 Cl
ENDBRANCH   2  18
TORSDOF 2
ENDMDL
MODEL 5
REMARK VINA RESULT:      -6.0      3.753      5.481
REMARK  Name = 
REMARK  2 active torsions:
REMARK  status: ('A' for Active; 'I' for Inactive)
REMARK    1  A    between atoms: C_2  and  C_3
REMARK    2  A    between atoms: C_8  and  C_9
REMARK                            x       y       z     vdW  Elec       q    Type
REMARK                         _______ _______ _______ _____ _____    ______ ____
ROOT
ATOM      1  O   UNL     1       5.935  -0.375  17.578  0.00  0.00    -0.273 OA
ATOM      2  C   UNL     1       5.917  -0.081  18.743  0.00  0.00    +0.242 C 
ATOM      3  N   UNL     1       6.758  -0.670  19.632  0.00  0.00    -0.279 N 
ATOM      4  C   UNL     1       8.068  -0.080  19.828  0.00  0.00    +0.094 C 
ATOM      5  C   UNL     1       8.193   0.374  21.281  0.00  0.00    +0.024 C 
ATOM      6  C   UNL     1       7.862  -0.793  22.182  0.00  0.00    +0.034 C 
ATOM      7  C   UNL     1       6.464  -1.283  21.972  0.00  0.00    +0.024 C 
ATOM      8  C   UNL     1       6.240  -1.679  20.522  0.00  0.00    +0.094 C 
ENDROOT
BRANCH   6   9
ATOM      9  C   UNL     1       8.895  -1.919  21.975  0.00  0.00    +0.144 C 
ATOM     10  S   UNL     1      10.352  -1.206  22.906  0.00  0.00    -0.091 S 
ATOM     11  C   UNL     1       9.601  -1.329  24.334  0.00  0.00    +0.042 A 
ATOM     12  C   UNL     1       9.350  -0.096  25.054  0.00  0.00    +0.007 A 
ATOM     13  C   UNL     1       8.745  -0.528  26.451  0.00  0.00    +0.001 A 
ATOM     14  C   UNL     1       8.220  -1.919  26.447  0.00  0.00    +0.001 A 
ATOM     15  C   UNL     1       8.441  -3.053  25.411  0.00  0.00    +0.017 A 
ATOM     16  C   UNL     1       9.029  -2.729  24.192  0.00  0.00    +0.072 A 
ATOM     17  N   UNL     1       8.509  -3.000  23.005  0.00  0.00    -0.228 NA
ENDBRANCH   6   9
BRANCH   2  18
ATOM     18  C   UNL     1       4.944   0.910  19.336  0.00  0.00    +0.180 C 
ATOM     19 CL   UNL     1       5.828   2.055  20.384  0.00  0.00    -0.103 Cl
ENDBRANCH   2  18
TORSDOF 2
ENDMDL
MODEL 6
REMARK VINA RESULT:      -6.0      3.305      6.321
REMARK  Name = 
REMARK  2 active torsions:
REMARK  status: ('A' for Active; 'I' for Inactive)
REMARK    1  A    between atoms: C_2  and  C_3
REMARK    2  A    between atoms: C_8  and  C_9
REMARK                            x       y       z     vdW  Elec       q    Type
REMARK                         _______ _______ _______ _____ _____    ______ ____
ROOT
ATOM      1  O   UNL     1       9.918   1.258  21.607  0.00  0.00    -0.273 OA
ATOM      2  C   UNL     1       9.384   0.707  22.532  0.00  0.00    +0.242 C 
ATOM      3  N   UNL     1       8.652  -0.423  22.352  0.00  0.00    -0.279 N 
ATOM      4  C   UNL     1       9.339  -1.698  22.398  0.00  0.00    +0.094 C 
ATOM      5  C   UNL     1       8.780  -2.520  23.558  0.00  0.00    +0.024 C 
ATOM      6  C   UNL     1       7.277  -2.594  23.417  0.00  0.00    +0.034 C 
ATOM      7  C   UNL     1       6.643  -1.239  23.465  0.00  0.00    +0.024 C 
ATOM      8  C   UNL     1       7.213  -0.335  22.384  0.00  0.00    +0.094 C 
ENDROOT
BRANCH   6   9
ATOM      9  C   UNL     1       6.913  -3.345  22.120  0.00  0.00    +0.144 C 
ATOM     10  S   UNL     1       7.267  -5.104  22.647  0.00  0.00    -0.091 S 
ATOM     11  C   UNL     1       6.050  -5.113  23.714  0.00  0.00    +0.042 A 
ATOM     12  C   UNL     1       6.399  -5.298  25.109  0.00  0.00    +0.007 A 
ATOM     13  C   UNL     1       5.025  -5.405  25.886  0.00  0.00    +0.001 A 
ATOM     14  C   UNL     1       3.878  -4.868  25.107  0.00  0.00    +0.001 A 
ATOM     15  C   UNL     1       3.791  -4.513  23.599  0.00  0.00    +0.017 A 
ATOM     16  C   UNL     1       4.970  -4.469  22.861  0.00  0.00    +0.072 A 
ATOM     17  N   UNL     1       5.374  -3.436  22.139  0.00  0.00    -0.228 NA
ENDBRANCH   6   9
BRANCH   2  18
ATOM     18  C   UNL     1       9.425   1.229  23.947  0.00  0.00    +0.180 C 
ATOM     19 CL   UNL     1      10.855   0.562  24.785  0.00  0.00    -0.103 Cl
ENDBRANCH   2  18
TORSDOF 2
ENDMDL
MODEL 7
REMARK VINA RESULT:      -5.9      2.656      3.191
REMARK  Name = 
REMARK  2 active torsions:
REMARK  status: ('A' for Active; 'I' for Inactive)
REMARK    1  A    between atoms: C_2  and  C_3
REMARK    2  A    between atoms: C_8  and  C_9
REMARK                            x       y       z     vdW  Elec       q    Type
REMARK                         _______ _______ _______ _____ _____    ______ ____
ROOT
ATOM      1  O   UNL     1       5.294  -6.083  24.565  0.00  0.00    -0.273 OA
ATOM      2  C   UNL     1       5.366  -4.997  24.056  0.00  0.00    +0.242 C 
ATOM      3  N   UNL     1       6.466  -4.217  24.210  0.00  0.00    -0.279 N 
ATOM      4  C   UNL     1       7.559  -4.381  23.271  0.00  0.00    +0.094 C 
ATOM      5  C   UNL     1       7.761  -3.070  22.514  0.00  0.00    +0.024 C 
ATOM      6  C   UNL     1       7.927  -1.954  23.518  0.00  0.00    +0.034 C 
ATOM      7  C   UNL     1       6.721  -1.800  24.390  0.00  0.00    +0.024 C 
ATOM      8  C   UNL     1       6.408  -3.098  25.117  0.00  0.00    +0.094 C 
ENDROOT
BRANCH   6   9
ATOM      9  C   UNL     1       9.203  -2.190  24.352  0.00  0.00    +0.144 C 
ATOM     10  S   UNL     1      10.511  -1.875  23.053  0.00  0.00    -0.091 S 
ATOM     11  C   UNL     1      10.139  -0.304  22.946  0.00  0.00    +0.042 A 
ATOM     12  C   UNL     1       9.657   0.173  21.666  0.00  0.00    +0.007 A 
ATOM     13  C   UNL     1       9.514   1.743  21.817  0.00  0.00    +0.001 A 
ATOM     14  C   UNL     1       9.472   2.184  23.236  0.00  0.00    +0.001 A 
ATOM     15  C   UNL     1       9.832   1.398  24.524  0.00  0.00    +0.017 A 
ATOM     16  C   UNL     1      10.029   0.023  24.426  0.00  0.00    +0.072 A 
ATOM     17  N   UNL     1       9.396  -0.886  25.151  0.00  0.00    -0.228 NA
ENDBRANCH   6   9
BRANCH   2  18
ATOM     18  C   UNL     1       4.245  -4.379  23.255  0.00  0.00    +0.180 C 
ATOM     19 CL   UNL     1       2.839  -5.481  23.253  0.00  0.00    -0.103 Cl
ENDBRANCH   2  18
TORSDOF 2
ENDMDL
MODEL 8
REMARK VINA RESULT:      -5.8      3.570      6.521
REMARK  Name = 
REMARK  2 active torsions:
REMARK  status: ('A' for Active; 'I' for Inactive)
REMARK    1  A    between atoms: C_2  and  C_3
REMARK    2  A    between atoms: C_8  and  C_9
REMARK                            x       y       z     vdW  Elec       q    Type
REMARK                         _______ _______ _______ _____ _____    ______ ____
ROOT
ATOM      1  O   UNL     1       7.903   0.000  19.493  0.00  0.00    -0.273 OA
ATOM      2  C   UNL     1       7.581  -0.075  20.648  0.00  0.00    +0.242 C 
ATOM      3  N   UNL     1       7.613  -1.258  21.313  0.00  0.00    -0.279 N 
ATOM      4  C   UNL     1       8.851  -1.647  21.960  0.00  0.00    +0.094 C 
ATOM      5  C   UNL     1       8.608  -1.762  23.464  0.00  0.00    +0.024 C 
ATOM      6  C   UNL     1       7.435  -2.686  23.694  0.00  0.00    +0.034 C 
ATOM      7  C   UNL     1       6.181  -2.167  23.063  0.00  0.00    +0.024 C 
ATOM      8  C   UNL     1       6.374  -1.949  21.572  0.00  0.00    +0.094 C 
ENDROOT
BRANCH   6   9
ATOM      9  C   UNL     1       7.781  -4.101  23.187  0.00  0.00    +0.144 C 
ATOM     10  S   UNL     1       8.681  -4.777  24.680  0.00  0.00    -0.091 S 
ATOM     11  C   UNL     1       7.343  -4.770  25.589  0.00  0.00    +0.042 A 
ATOM     12  C   UNL     1       7.348  -3.920  26.762  0.00  0.00    +0.007 A 
ATOM     13  C   UNL     1       5.991  -4.221  27.520  0.00  0.00    +0.001 A 
ATOM     14  C   UNL     1       4.981  -4.881  26.651  0.00  0.00    +0.001 A 
ATOM     15  C   UNL     1       5.162  -5.556  25.266  0.00  0.00    +0.017 A 
ATOM     16  C   UNL     1       6.365  -5.369  24.592  0.00  0.00    +0.072 A 
ATOM     17  N   UNL     1       6.478  -4.908  23.356  0.00  0.00    -0.228 NA
ENDBRANCH   6   9
BRANCH   2  18
ATOM     18  C   UNL     1       7.068   1.099  21.447  0.00  0.00    +0.180 C 
ATOM     19 CL   UNL     1       8.445   2.111  21.967  0.00  0.00    -0.103 Cl
ENDBRANCH   2  18
TORSDOF 2
ENDMDL
MODEL 9
REMARK VINA RESULT:      -5.7      1.788      1.999
REMARK  Name = 
REMARK  2 active torsions:
REMARK  status: ('A' for Active; 'I' for Inactive)
REMARK    1  A    between atoms: C_2  and  C_3
REMARK    2  A    between atoms: C_8  and  C_9
REMARK                            x       y       z     vdW  Elec       q    Type
REMARK                         _______ _______ _______ _____ _____    ______ ____
ROOT
ATOM      1  O   UNL     1       8.701  -5.141  23.979  0.00  0.00    -0.273 OA
ATOM      2  C   UNL     1       8.021  -4.149  23.963  0.00  0.00    +0.242 C 
ATOM      3  N   UNL     1       8.579  -2.914  23.880  0.00  0.00    -0.279 N 
ATOM      4  C   UNL     1       8.845  -2.371  22.562  0.00  0.00    +0.094 C 
ATOM      5  C   UNL     1       8.021  -1.098  22.377  0.00  0.00    +0.024 C 
ATOM      6  C   UNL     1       8.303  -0.168  23.534  0.00  0.00    +0.034 C 
ATOM      7  C   UNL     1       7.921  -0.776  24.847  0.00  0.00    +0.024 C 
ATOM      8  C   UNL     1       8.644  -2.095  25.065  0.00  0.00    +0.094 C 
ENDROOT
BRANCH   6   9
ATOM      9  C   UNL     1       9.787   0.253  23.515  0.00  0.00    +0.144 C 
ATOM     10  S   UNL     1       9.821   1.271  21.947  0.00  0.00    -0.091 S 
ATOM     11  C   UNL     1       8.874   2.421  22.579  0.00  0.00    +0.042 A 
ATOM     12  C   UNL     1       7.593   2.643  21.941  0.00  0.00    +0.007 A 
ATOM     13  C   UNL     1       6.959   3.897  22.670  0.00  0.00    +0.001 A 
ATOM     14  C   UNL     1       7.588   4.176  23.988  0.00  0.00    +0.001 A 
ATOM     15  C   UNL     1       8.911   3.627  24.585  0.00  0.00    +0.017 A 
ATOM     16  C   UNL     1       9.536   2.564  23.939  0.00  0.00    +0.072 A 
ATOM     17  N   UNL     1       9.876   1.422  24.516  0.00  0.00    -0.228 NA
ENDBRANCH   6   9
BRANCH   2  18
ATOM     18  C   UNL     1       6.517  -4.170  24.087  0.00  0.00    +0.180 C 
ATOM     19 CL   UNL     1       5.786  -4.013  22.464  0.00  0.00    -0.103 Cl
ENDBRANCH   2  18
TORSDOF 2
ENDMDL
