MODEL 1
REMARK VINA RESULT:      -6.7      0.000      0.000
REMARK  Name = 
REMARK  4 active torsions:
REMARK  status: ('A' for Active; 'I' for Inactive)
REMARK    1  A    between atoms: C_2  and  C_3
REMARK    2  A    between atoms: N_8  and  S_9
REMARK    3  A    between atoms: S_9  and  C_12
REMARK    4  A    between atoms: C_16  and  N_17
REMARK                            x       y       z     vdW  Elec       q    Type
REMARK                         _______ _______ _______ _____ _____    ______ ____
ROOT
ATOM      1  S   UNL     1       8.798  -2.327  23.624  0.00  0.00    +0.064 S 
ATOM      2  O   UNL     1       9.503  -3.562  23.919  0.00  0.00    -0.153 OA
ATOM      3  O   UNL     1       8.452  -1.559  24.812  0.00  0.00    -0.153 OA
ENDROOT
BRANCH   1   9
ATOM      4  O   UNL     1       5.378  -3.045  26.712  0.00  0.00    -0.273 OA
ATOM      5  C   UNL     1       6.250  -3.646  26.115  0.00  0.00    +0.242 C 
ATOM      6  N   UNL     1       6.109  -3.928  24.802  0.00  0.00    -0.276 N 
ATOM      7  C   UNL     1       5.317  -2.975  24.000  0.00  0.00    +0.113 C 
ATOM      8  C   UNL     1       6.296  -2.065  23.283  0.00  0.00    +0.117 C 
ATOM      9  N   UNL     1       7.450  -2.685  22.821  0.00  0.00    -0.152 NA
ATOM     10  C   UNL     1       7.323  -4.117  22.701  0.00  0.00    +0.117 C 
ATOM     11  C   UNL     1       7.135  -4.699  24.112  0.00  0.00    +0.113 C 
BRANCH   5  12
ATOM     12  C   UNL     1       7.522  -4.087  26.784  0.00  0.00    +0.180 C 
ATOM     13 CL   UNL     1       7.258  -5.640  27.622  0.00  0.00    -0.103 Cl
ENDBRANCH   5  12
ENDBRANCH   1   9
BRANCH   1  14
ATOM     14  C   UNL     1       9.873  -1.317  22.646  0.00  0.00    +0.128 A 
ATOM     15  C   UNL     1       9.329  -0.933  21.412  0.00  0.00    +0.095 A 
ATOM     16  C   UNL     1       8.681   0.270  20.739  0.00  0.00    +0.291 A 
ATOM     17  C   UNL     1       8.858   1.508  21.673  0.00  0.00    +0.075 A 
ATOM     18  C   UNL     1       9.392   1.166  23.004  0.00  0.00    +0.008 A 
ATOM     19  C   UNL     1      10.006  -0.029  23.675  0.00  0.00    +0.020 A 
BRANCH  16  20
ATOM     20  N   UNL     1       7.846   0.129  19.922  0.00  0.00    +0.081 N 
ATOM     21  O   UNL     1       7.845  -0.002  18.614  0.00  0.00    -0.576 OA
ATOM     22  O   UNL     1       6.704  -0.237  20.289  0.00  0.00    +0.041 OA
ENDBRANCH  16  20
ENDBRANCH   1  14
TORSDOF 4
ENDMDL
MODEL 2
REMARK VINA RESULT:      -6.7      1.653      1.965
REMARK  Name = 
REMARK  4 active torsions:
REMARK  status: ('A' for Active; 'I' for Inactive)
REMARK    1  A    between atoms: C_2  and  C_3
REMARK    2  A    between atoms: N_8  and  S_9
REMARK    3  A    between atoms: S_9  and  C_12
REMARK    4  A    between atoms: C_16  and  N_17
REMARK                            x       y       z     vdW  Elec       q    Type
REMARK                         _______ _______ _______ _____ _____    ______ ____
ROOT
ATOM      1  S   UNL     1       8.830  -2.244  23.969  0.00  0.00    +0.064 S 
ATOM      2  O   UNL     1       9.219  -1.790  25.292  0.00  0.00    -0.153 OA
ATOM      3  O   UNL     1       7.495  -1.814  23.578  0.00  0.00    -0.153 OA
ENDROOT
BRANCH   1   9
ATOM      4  O   UNL     1       4.791  -3.914  25.596  0.00  0.00    -0.273 OA
ATOM      5  C   UNL     1       5.896  -3.579  25.980  0.00  0.00    +0.242 C 
ATOM      6  N   UNL     1       6.966  -4.370  25.754  0.00  0.00    -0.276 N 
ATOM      7  C   UNL     1       6.930  -5.202  24.535  0.00  0.00    +0.113 C 
ATOM      8  C   UNL     1       7.747  -4.487  23.476  0.00  0.00    +0.117 C 
ATOM      9  N   UNL     1       8.892  -3.852  23.940  0.00  0.00    -0.152 NA
ATOM     10  C   UNL     1       9.341  -4.343  25.221  0.00  0.00    +0.117 C 
ATOM     11  C   UNL     1       8.273  -3.985  26.269  0.00  0.00    +0.113 C 
BRANCH   5  12
ATOM     12  C   UNL     1       6.135  -2.280  26.698  0.00  0.00    +0.180 C 
ATOM     13 CL   UNL     1       5.126  -0.996  25.980  0.00  0.00    -0.103 Cl
ENDBRANCH   5  12
ENDBRANCH   1   9
BRANCH   1  14
ATOM     14  C   UNL     1       9.965  -1.542  22.806  0.00  0.00    +0.128 A 
ATOM     15  C   UNL     1       9.382  -1.194  21.580  0.00  0.00    +0.095 A 
ATOM     16  C   UNL     1       8.884   0.030  20.822  0.00  0.00    +0.291 A 
ATOM     17  C   UNL     1       9.349   1.305  21.592  0.00  0.00    +0.075 A 
ATOM     18  C   UNL     1       9.938   1.011  22.912  0.00  0.00    +0.008 A 
ATOM     19  C   UNL     1      10.403  -0.200  23.669  0.00  0.00    +0.020 A 
BRANCH  16  20
ATOM     20  N   UNL     1       7.967  -0.044  20.089  0.00  0.00    +0.081 N 
ATOM     21  O   UNL     1       7.823  -0.017  18.782  0.00  0.00    -0.576 OA
ATOM     22  O   UNL     1       6.883  -0.495  20.530  0.00  0.00    +0.041 OA
ENDBRANCH  16  20
ENDBRANCH   1  14
TORSDOF 4
ENDMDL
MODEL 3
REMARK VINA RESULT:      -6.7      2.313      3.058
REMARK  Name = 
REMARK  4 active torsions:
REMARK  status: ('A' for Active; 'I' for Inactive)
REMARK    1  A    between atoms: C_2  and  C_3
REMARK    2  A    between atoms: N_8  and  S_9
REMARK    3  A    between atoms: S_9  and  C_12
REMARK    4  A    between atoms: C_16  and  N_17
REMARK                            x       y       z     vdW  Elec       q    Type
REMARK                         _______ _______ _______ _____ _____    ______ ____
ROOT
ATOM      1  S   UNL     1       8.206  -1.479  22.266  0.00  0.00    +0.064 S 
ATOM      2  O   UNL     1       6.922  -1.954  21.781  0.00  0.00    -0.153 OA
ATOM      3  O   UNL     1       9.306  -2.388  21.976  0.00  0.00    -0.153 OA
ENDROOT
BRANCH   1   9
ATOM      4  O   UNL     1       9.006  -5.570  24.358  0.00  0.00    -0.273 OA
ATOM      5  C   UNL     1       8.093  -4.903  23.911  0.00  0.00    +0.242 C 
ATOM      6  N   UNL     1       7.642  -3.823  24.584  0.00  0.00    -0.276 N 
ATOM      7  C   UNL     1       8.628  -3.097  25.410  0.00  0.00    +0.113 C 
ATOM      8  C   UNL     1       9.092  -1.896  24.608  0.00  0.00    +0.117 C 
ATOM      9  N   UNL     1       8.107  -1.268  23.858  0.00  0.00    -0.152 NA
ATOM     10  C   UNL     1       6.767  -1.568  24.304  0.00  0.00    +0.117 C 
ATOM     11  C   UNL     1       6.510  -3.066  24.066  0.00  0.00    +0.113 C 
BRANCH   5  12
ATOM     12  C   UNL     1       7.436  -5.223  22.597  0.00  0.00    +0.180 C 
ATOM     13 CL   UNL     1       6.019  -6.273  22.868  0.00  0.00    -0.103 Cl
ENDBRANCH   5  12
ENDBRANCH   1   9
BRANCH   1  14
ATOM     14  C   UNL     1       8.559   0.046  21.441  0.00  0.00    +0.128 A 
ATOM     15  C   UNL     1       8.067   0.113  20.130  0.00  0.00    +0.095 A 
ATOM     16  C   UNL     1       6.917   0.721  19.337  0.00  0.00    +0.291 A 
ATOM     17  C   UNL     1       6.171   1.736  20.258  0.00  0.00    +0.075 A 
ATOM     18  C   UNL     1       6.615   1.690  21.663  0.00  0.00    +0.008 A 
ATOM     19  C   UNL     1       7.733   1.068  22.448  0.00  0.00    +0.020 A 
BRANCH  16  20
ATOM     20  N   UNL     1       6.465   0.165  18.405  0.00  0.00    +0.081 N 
ATOM     21  O   UNL     1       5.986  -1.040  18.189  0.00  0.00    -0.576 OA
ATOM     22  O   UNL     1       6.082   0.850  17.425  0.00  0.00    +0.041 OA
ENDBRANCH  16  20
ENDBRANCH   1  14
TORSDOF 4
ENDMDL
MODEL 4
REMARK VINA RESULT:      -6.7      1.915      2.192
REMARK  Name = 
REMARK  4 active torsions:
REMARK  status: ('A' for Active; 'I' for Inactive)
REMARK    1  A    between atoms: C_2  and  C_3
REMARK    2  A    between atoms: N_8  and  S_9
REMARK    3  A    between atoms: S_9  and  C_12
REMARK    4  A    between atoms: C_16  and  N_17
REMARK                            x       y       z     vdW  Elec       q    Type
REMARK                         _______ _______ _______ _____ _____    ______ ____
ROOT
ATOM      1  S   UNL     1       8.485  -1.122  22.425  0.00  0.00    +0.064 S 
ATOM      2  O   UNL     1       9.311  -2.233  21.988  0.00  0.00    -0.153 OA
ATOM      3  O   UNL     1       8.872  -0.589  23.724  0.00  0.00    -0.153 OA
ENDROOT
BRANCH   1   9
ATOM      4  O   UNL     1       7.762  -3.126  26.573  0.00  0.00    -0.273 OA
ATOM      5  C   UNL     1       8.114  -3.401  25.442  0.00  0.00    +0.242 C 
ATOM      6  N   UNL     1       7.209  -3.463  24.442  0.00  0.00    -0.276 N 
ATOM      7  C   UNL     1       6.032  -2.578  24.556  0.00  0.00    +0.113 C 
ATOM      8  C   UNL     1       6.298  -1.360  23.692  0.00  0.00    +0.117 C 
ATOM      9  N   UNL     1       6.955  -1.615  22.495  0.00  0.00    -0.152 NA
ATOM     10  C   UNL     1       6.871  -2.994  22.077  0.00  0.00    +0.117 C 
ATOM     11  C   UNL     1       7.633  -3.850  23.103  0.00  0.00    +0.113 C 
BRANCH   5  12
ATOM     12  C   UNL     1       9.552  -3.665  25.091  0.00  0.00    +0.180 C 
ATOM     13 CL   UNL     1       9.974  -5.350  25.496  0.00  0.00    -0.103 Cl
ENDBRANCH   5  12
ENDBRANCH   1   9
BRANCH   1  14
ATOM     14  C   UNL     1       8.679   0.185  21.247  0.00  0.00    +0.128 A 
ATOM     15  C   UNL     1       7.938   0.008  20.071  0.00  0.00    +0.095 A 
ATOM     16  C   UNL     1       6.658   0.497  19.404  0.00  0.00    +0.291 A 
ATOM     17  C   UNL     1       6.117   1.714  20.218  0.00  0.00    +0.075 A 
ATOM     18  C   UNL     1       6.831   1.933  21.489  0.00  0.00    +0.008 A 
ATOM     19  C   UNL     1       8.078   1.429  22.157  0.00  0.00    +0.020 A 
BRANCH  16  20
ATOM     20  N   UNL     1       6.025  -0.215  18.714  0.00  0.00    +0.081 N 
ATOM     21  O   UNL     1       5.797  -0.287  17.422  0.00  0.00    -0.576 OA
ATOM     22  O   UNL     1       5.652  -1.320  19.176  0.00  0.00    +0.041 OA
ENDBRANCH  16  20
ENDBRANCH   1  14
TORSDOF 4
ENDMDL
MODEL 5
REMARK VINA RESULT:      -6.5      2.980      6.252
REMARK  Name = 
REMARK  4 active torsions:
REMARK  status: ('A' for Active; 'I' for Inactive)
REMARK    1  A    between atoms: C_2  and  C_3
REMARK    2  A    between atoms: N_8  and  S_9
REMARK    3  A    between atoms: S_9  and  C_12
REMARK    4  A    between atoms: C_16  and  N_17
REMARK                            x       y       z     vdW  Elec       q    Type
REMARK                         _______ _______ _______ _____ _____    ______ ____
ROOT
ATOM      1  S   UNL     1       7.642  -2.725  22.797  0.00  0.00    +0.064 S 
ATOM      2  O   UNL     1       9.026  -2.466  22.440  0.00  0.00    -0.153 OA
ATOM      3  O   UNL     1       6.693  -2.316  21.771  0.00  0.00    -0.153 OA
ENDROOT
BRANCH   1   9
ATOM      4  O   UNL     1       6.511   1.674  21.741  0.00  0.00    -0.273 OA
ATOM      5  C   UNL     1       7.478   0.990  22.017  0.00  0.00    +0.242 C 
ATOM      6  N   UNL     1       7.685   0.582  23.288  0.00  0.00    -0.276 N 
ATOM      7  C   UNL     1       6.484   0.371  24.121  0.00  0.00    +0.113 C 
ATOM      8  C   UNL     1       6.192  -1.118  24.122  0.00  0.00    +0.117 C 
ATOM      9  N   UNL     1       7.309  -1.941  24.162  0.00  0.00    -0.152 NA
ATOM     10  C   UNL     1       8.497  -1.273  24.639  0.00  0.00    +0.117 C 
ATOM     11  C   UNL     1       8.877  -0.188  23.616  0.00  0.00    +0.113 C 
BRANCH   5  12
ATOM     12  C   UNL     1       8.472   0.549  20.979  0.00  0.00    +0.180 C 
ATOM     13 CL   UNL     1       7.635   0.242  19.433  0.00  0.00    -0.103 Cl
ENDBRANCH   5  12
ENDBRANCH   1   9
BRANCH   1  14
ATOM     14  C   UNL     1       7.462  -4.473  23.007  0.00  0.00    +0.128 A 
ATOM     15  C   UNL     1       7.900  -4.947  24.251  0.00  0.00    +0.095 A 
ATOM     16  C   UNL     1       7.347  -5.401  25.596  0.00  0.00    +0.291 A 
ATOM     17  C   UNL     1       5.800  -5.558  25.461  0.00  0.00    +0.075 A 
ATOM     18  C   UNL     1       5.268  -5.043  24.186  0.00  0.00    +0.008 A 
ATOM     19  C   UNL     1       5.816  -4.570  22.871  0.00  0.00    +0.020 A 
BRANCH  16  20
ATOM     20  N   UNL     1       7.941  -5.205  26.592  0.00  0.00    +0.081 N 
ATOM     21  O   UNL     1       8.840  -4.326  26.976  0.00  0.00    -0.576 OA
ATOM     22  O   UNL     1       7.524  -5.732  27.652  0.00  0.00    +0.041 OA
ENDBRANCH  16  20
ENDBRANCH   1  14
TORSDOF 4
ENDMDL
MODEL 6
REMARK VINA RESULT:      -6.4      2.988      6.294
REMARK  Name = 
REMARK  4 active torsions:
REMARK  status: ('A' for Active; 'I' for Inactive)
REMARK    1  A    between atoms: C_2  and  C_3
REMARK    2  A    between atoms: N_8  and  S_9
REMARK    3  A    between atoms: S_9  and  C_12
REMARK    4  A    between atoms: C_16  and  N_17
REMARK                            x       y       z     vdW  Elec       q    Type
REMARK                         _______ _______ _______ _____ _____    ______ ____
ROOT
ATOM      1  S   UNL     1       8.028  -2.803  23.276  0.00  0.00    +0.064 S 
ATOM      2  O   UNL     1       9.451  -2.516  23.309  0.00  0.00    -0.153 OA
ATOM      3  O   UNL     1       7.379  -2.377  22.044  0.00  0.00    -0.153 OA
ENDROOT
BRANCH   1   9
ATOM      4  O   UNL     1       6.820   1.502  21.952  0.00  0.00    -0.273 OA
ATOM      5  C   UNL     1       7.749   0.895  22.450  0.00  0.00    +0.242 C 
ATOM      6  N   UNL     1       7.689   0.492  23.737  0.00  0.00    -0.276 N 
ATOM      7  C   UNL     1       6.349   0.176  24.271  0.00  0.00    +0.113 C 
ATOM      8  C   UNL     1       6.185  -1.331  24.217  0.00  0.00    +0.117 C 
ATOM      9  N   UNL     1       7.326  -2.063  24.521  0.00  0.00    -0.152 NA
ATOM     10  C   UNL     1       8.313  -1.307  25.254  0.00  0.00    +0.117 C 
ATOM     11  C   UNL     1       8.831  -0.184  24.338  0.00  0.00    +0.113 C 
BRANCH   5  12
ATOM     12  C   UNL     1       8.988   0.547  21.673  0.00  0.00    +0.180 C 
ATOM     13 CL   UNL     1      10.200   1.844  21.853  0.00  0.00    -0.103 Cl
ENDBRANCH   5  12
ENDBRANCH   1   9
BRANCH   1  14
ATOM     14  C   UNL     1       7.833  -4.558  23.387  0.00  0.00    +0.128 A 
ATOM     15  C   UNL     1       7.944  -5.063  24.690  0.00  0.00    +0.095 A 
ATOM     16  C   UNL     1       7.071  -5.564  25.834  0.00  0.00    +0.291 A 
ATOM     17  C   UNL     1       5.615  -5.736  25.299  0.00  0.00    +0.075 A 
ATOM     18  C   UNL     1       5.420  -5.189  23.944  0.00  0.00    +0.008 A 
ATOM     19  C   UNL     1       6.280  -4.671  22.828  0.00  0.00    +0.020 A 
BRANCH  16  20
ATOM     20  N   UNL     1       7.385  -5.391  26.954  0.00  0.00    +0.081 N 
ATOM     21  O   UNL     1       7.217  -6.057  28.075  0.00  0.00    -0.576 OA
ATOM     22  O   UNL     1       8.286  -4.554  27.202  0.00  0.00    +0.041 OA
ENDBRANCH  16  20
ENDBRANCH   1  14
TORSDOF 4
ENDMDL
MODEL 7
REMARK VINA RESULT:      -6.4      3.407      5.811
REMARK  Name = 
REMARK  4 active torsions:
REMARK  status: ('A' for Active; 'I' for Inactive)
REMARK    1  A    between atoms: C_2  and  C_3
REMARK    2  A    between atoms: N_8  and  S_9
REMARK    3  A    between atoms: S_9  and  C_12
REMARK    4  A    between atoms: C_16  and  N_17
REMARK                            x       y       z     vdW  Elec       q    Type
REMARK                         _______ _______ _______ _____ _____    ______ ____
ROOT
ATOM      1  S   UNL     1       7.825  -0.935  23.800  0.00  0.00    +0.064 S 
ATOM      2  O   UNL     1       7.591  -0.864  22.369  0.00  0.00    -0.153 OA
ATOM      3  O   UNL     1       7.305   0.213  24.530  0.00  0.00    -0.153 OA
ENDROOT
BRANCH   1   9
ATOM      4  O   UNL     1       9.621   3.368  23.861  0.00  0.00    -0.273 OA
ATOM      5  C   UNL     1       9.379   2.459  23.091  0.00  0.00    +0.242 C 
ATOM      6  N   UNL     1      10.153   1.353  23.074  0.00  0.00    -0.276 N 
ATOM      7  C   UNL     1      10.784   0.966  24.352  0.00  0.00    +0.113 C 
ATOM      8  C   UNL     1       9.935  -0.133  24.962  0.00  0.00    +0.117 C 
ATOM      9  N   UNL     1       9.410  -1.046  24.057  0.00  0.00    -0.152 NA
ATOM     10  C   UNL     1      10.105  -1.065  22.792  0.00  0.00    +0.117 C 
ATOM     11  C   UNL     1       9.887   0.296  22.108  0.00  0.00    +0.113 C 
BRANCH   5  12
ATOM     12  C   UNL     1       8.214   2.501  22.141  0.00  0.00    +0.180 C 
ATOM     13 CL   UNL     1       7.453   4.114  22.189  0.00  0.00    -0.103 Cl
ENDBRANCH   5  12
ENDBRANCH   1   9
BRANCH   1  14
ATOM     14  C   UNL     1       6.980  -2.366  24.410  0.00  0.00    +0.128 A 
ATOM     15  C   UNL     1       6.342  -3.119  23.414  0.00  0.00    +0.095 A 
ATOM     16  C   UNL     1       6.531  -4.397  22.606  0.00  0.00    +0.291 A 
ATOM     17  C   UNL     1       7.715  -5.199  23.229  0.00  0.00    +0.075 A 
ATOM     18  C   UNL     1       8.455  -4.447  24.260  0.00  0.00    +0.008 A 
ATOM     19  C   UNL     1       8.281  -3.173  25.036  0.00  0.00    +0.020 A 
BRANCH  16  20
ATOM     20  N   UNL     1       6.145  -4.474  21.498  0.00  0.00    +0.081 N 
ATOM     21  O   UNL     1       5.900  -5.465  20.670  0.00  0.00    -0.576 OA
ATOM     22  O   UNL     1       5.583  -3.474  20.988  0.00  0.00    +0.041 OA
ENDBRANCH  16  20
ENDBRANCH   1  14
TORSDOF 4
ENDMDL
MODEL 8
REMARK VINA RESULT:      -6.4      3.163      5.996
REMARK  Name = 
REMARK  4 active torsions:
REMARK  status: ('A' for Active; 'I' for Inactive)
REMARK    1  A    between atoms: C_2  and  C_3
REMARK    2  A    between atoms: N_8  and  S_9
REMARK    3  A    between atoms: S_9  and  C_12
REMARK    4  A    between atoms: C_16  and  N_17
REMARK                            x       y       z     vdW  Elec       q    Type
REMARK                         _______ _______ _______ _____ _____    ______ ____
ROOT
ATOM      1  S   UNL     1       7.453  -1.869  23.979  0.00  0.00    +0.064 S 
ATOM      2  O   UNL     1       7.587  -2.818  22.888  0.00  0.00    -0.153 OA
ATOM      3  O   UNL     1       6.993  -0.556  23.551  0.00  0.00    -0.153 OA
ENDROOT
BRANCH   1   9
ATOM      4  O   UNL     1       9.775   1.624  21.941  0.00  0.00    -0.273 OA
ATOM      5  C   UNL     1       9.614   0.422  21.853  0.00  0.00    +0.242 C 
ATOM      6  N   UNL     1      10.196  -0.412  22.741  0.00  0.00    -0.276 N 
ATOM      7  C   UNL     1      10.408   0.114  24.104  0.00  0.00    +0.113 C 
ATOM      8  C   UNL     1       9.278  -0.410  24.971  0.00  0.00    +0.117 C 
ATOM      9  N   UNL     1       8.882  -1.713  24.703  0.00  0.00    -0.152 NA
ATOM     10  C   UNL     1       9.874  -2.479  23.986  0.00  0.00    +0.117 C 
ATOM     11  C   UNL     1      10.043  -1.853  22.591  0.00  0.00    +0.113 C 
BRANCH   5  12
ATOM     12  C   UNL     1       8.757  -0.196  20.783  0.00  0.00    +0.180 C 
ATOM     13 CL   UNL     1       7.425   0.912  20.358  0.00  0.00    -0.103 Cl
ENDBRANCH   5  12
ENDBRANCH   1   9
BRANCH   1  14
ATOM     14  C   UNL     1       6.239  -2.508  25.098  0.00  0.00    +0.128 A 
ATOM     15  C   UNL     1       5.214  -3.233  24.474  0.00  0.00    +0.095 A 
ATOM     16  C   UNL     1       4.776  -4.671  24.228  0.00  0.00    +0.291 A 
ATOM     17  C   UNL     1       5.653  -5.609  25.116  0.00  0.00    +0.075 A 
ATOM     18  C   UNL     1       6.775  -4.913  25.773  0.00  0.00    +0.008 A 
ATOM     19  C   UNL     1       7.221  -3.496  25.990  0.00  0.00    +0.020 A 
BRANCH  16  20
ATOM     20  N   UNL     1       4.219  -4.973  23.237  0.00  0.00    +0.081 N 
ATOM     21  O   UNL     1       2.964  -5.182  22.908  0.00  0.00    -0.576 OA
ATOM     22  O   UNL     1       4.828  -4.850  22.147  0.00  0.00    +0.041 OA
ENDBRANCH  16  20
ENDBRANCH   1  14
TORSDOF 4
ENDMDL
MODEL 9
REMARK VINA RESULT:      -6.3      3.008      6.306
REMARK  Name = 
REMARK  4 active torsions:
REMARK  status: ('A' for Active; 'I' for Inactive)
REMARK    1  A    between atoms: C_2  and  C_3
REMARK    2  A    between atoms: N_8  and  S_9
REMARK    3  A    between atoms: S_9  and  C_12
REMARK    4  A    between atoms: C_16  and  N_17
REMARK                            x       y       z     vdW  Elec       q    Type
REMARK                         _______ _______ _______ _____ _____    ______ ____
ROOT
ATOM      1  S   UNL     1       7.360  -2.069  23.603  0.00  0.00    +0.064 S 
ATOM      2  O   UNL     1       7.816  -2.611  22.335  0.00  0.00    -0.153 OA
ATOM      3  O   UNL     1       6.871  -0.701  23.506  0.00  0.00    -0.153 OA
ENDROOT
BRANCH   1   9
ATOM      4  O   UNL     1       9.934   1.780  23.053  0.00  0.00    -0.273 OA
ATOM      5  C   UNL     1       9.847   0.638  22.644  0.00  0.00    +0.242 C 
ATOM      6  N   UNL     1      10.249  -0.395  23.414  0.00  0.00    -0.276 N 
ATOM      7  C   UNL     1      10.126  -0.221  24.875  0.00  0.00    +0.113 C 
ATOM      8  C   UNL     1       8.852  -0.924  25.307  0.00  0.00    +0.117 C 
ATOM      9  N   UNL     1       8.581  -2.116  24.650  0.00  0.00    -0.152 NA
ATOM     10  C   UNL     1       9.740  -2.699  24.017  0.00  0.00    +0.117 C 
ATOM     11  C   UNL     1      10.193  -1.753  22.890  0.00  0.00    +0.113 C 
BRANCH   5  12
ATOM     12  C   UNL     1       9.281   0.313  21.289  0.00  0.00    +0.180 C 
ATOM     13 CL   UNL     1       7.839   1.317  20.980  0.00  0.00    -0.103 Cl
ENDBRANCH   5  12
ENDBRANCH   1   9
BRANCH   1  14
ATOM     14  C   UNL     1       6.008  -3.068  24.156  0.00  0.00    +0.128 A 
ATOM     15  C   UNL     1       6.397  -4.210  24.870  0.00  0.00    +0.095 A 
ATOM     16  C   UNL     1       6.492  -4.723  26.302  0.00  0.00    +0.291 A 
ATOM     17  C   UNL     1       5.743  -3.720  27.233  0.00  0.00    +0.075 A 
ATOM     18  C   UNL     1       5.339  -2.477  26.550  0.00  0.00    +0.008 A 
ATOM     19  C   UNL     1       5.271  -1.962  25.141  0.00  0.00    +0.020 A 
BRANCH  16  20
ATOM     20  N   UNL     1       7.348  -5.464  26.623  0.00  0.00    +0.081 N 
ATOM     21  O   UNL     1       8.500  -5.827  26.104  0.00  0.00    -0.576 OA
ATOM     22  O   UNL     1       7.388  -5.852  27.815  0.00  0.00    +0.041 OA
ENDBRANCH  16  20
ENDBRANCH   1  14
TORSDOF 4
ENDMDL
