
  xtb     06082023103D
xtb: 6.2.3 (830e466)
 43 45  0     0  0            999 V2000
    3.6260    8.0038    6.1501 O   0  0  0  0  0  0  0  0  0  0  0  0
    4.3024    8.9795    6.4108 C   0  0  0  0  0  0  0  0  0  0  0  0
    4.3295   10.1780    5.4716 C   0  0  0  0  0  0  0  0  0  0  0  0
    3.4481   11.5477    6.1978 Cl  0  0  0  0  0  0  0  0  0  0  0  0
    5.0536    9.0701    7.5266 N   0  0  0  0  0  0  0  0  0  0  0  0
    5.9471   10.1724    7.8366 C   0  0  0  0  0  0  0  0  0  0  0  0
    6.4301   10.0422    9.2802 C   0  0  0  0  0  0  0  0  0  0  0  0
    7.1378    8.8005    9.5082 N   0  0  0  0  0  0  0  0  0  0  0  0
    8.7941    8.9480    9.1833 S   0  0  0  0  0  0  0  0  0  0  0  0
    9.0033    9.6606    7.9503 O   0  0  0  0  0  0  0  0  0  0  0  0
    9.3578    7.6401    9.3025 O   0  0  0  0  0  0  0  0  0  0  0  0
    9.3072    9.9691   10.5542 C   0  0  0  0  0  0  0  0  0  0  0  0
    9.8656   11.2162   10.3479 C   0  0  0  0  0  0  0  0  0  0  0  0
   10.2461   11.9517   11.4496 C   0  0  0  0  0  0  0  0  0  0  0  0
   10.0971   11.4749   12.7567 C   0  0  0  0  0  0  0  0  0  0  0  0
    9.5282   10.2017   12.9531 C   0  0  0  0  0  0  0  0  0  0  0  0
    9.1377    9.4749   11.8261 C   0  0  0  0  0  0  0  0  0  0  0  0
    9.3785    9.5099   14.1214 O   0  0  0  0  0  0  0  0  0  0  0  0
    9.0669   10.1605   15.3324 C   0  0  0  0  0  0  0  0  0  0  0  0
   10.1315   11.1431   15.8058 C   0  0  0  0  0  0  0  0  0  0  0  0
   10.0838   12.4278   14.9876 C   0  0  0  0  0  0  0  0  0  0  0  0
   10.6298   12.3146   13.6924 O   0  0  0  0  0  0  0  0  0  0  0  0
    6.5537    7.6486    8.8210 C   0  0  0  0  0  0  0  0  0  0  0  0
    5.1129    7.9272    8.4193 C   0  0  0  0  0  0  0  0  0  0  0  0
    3.8046    9.9102    4.5550 H   0  0  0  0  0  0  0  0  0  0  0  0
    5.3432   10.5117    5.2536 H   0  0  0  0  0  0  0  0  0  0  0  0
    5.4278   11.1256    7.7129 H   0  0  0  0  0  0  0  0  0  0  0  0
    6.8293   10.1509    7.1840 H   0  0  0  0  0  0  0  0  0  0  0  0
    5.5852   10.1019    9.9731 H   0  0  0  0  0  0  0  0  0  0  0  0
    7.1209   10.8557    9.5075 H   0  0  0  0  0  0  0  0  0  0  0  0
    9.9960   11.5836    9.3433 H   0  0  0  0  0  0  0  0  0  0  0  0
   10.7009   12.9234   11.3380 H   0  0  0  0  0  0  0  0  0  0  0  0
    8.7230    8.4906   11.9659 H   0  0  0  0  0  0  0  0  0  0  0  0
    8.9606    9.3405   16.0468 H   0  0  0  0  0  0  0  0  0  0  0  0
    8.0995   10.6787   15.2442 H   0  0  0  0  0  0  0  0  0  0  0  0
   11.1183   10.6858   15.7132 H   0  0  0  0  0  0  0  0  0  0  0  0
    9.9529   11.3836   16.8537 H   0  0  0  0  0  0  0  0  0  0  0  0
   10.6943   13.2026   15.4582 H   0  0  0  0  0  0  0  0  0  0  0  0
    9.0449   12.7872   14.9259 H   0  0  0  0  0  0  0  0  0  0  0  0
    6.6042    6.7921    9.4975 H   0  0  0  0  0  0  0  0  0  0  0  0
    7.1462    7.4128    7.9297 H   0  0  0  0  0  0  0  0  0  0  0  0
    4.6942    7.0728    7.8827 H   0  0  0  0  0  0  0  0  0  0  0  0
    4.5011    8.1121    9.3088 H   0  0  0  0  0  0  0  0  0  0  0  0
  1  2  1  0  0  0  0
  2  3  1  0  0  0  0
  2  5  1  0  0  0  0
  3  4  1  0  0  0  0
  3 25  1  0  0  0  0
  3 26  1  0  0  0  0
  5  6  1  0  0  0  0
  5 24  1  0  0  0  0
  6  7  1  0  0  0  0
  6 27  1  0  0  0  0
  6 28  1  0  0  0  0
  7  8  1  0  0  0  0
  7 29  1  0  0  0  0
  7 30  1  0  0  0  0
  8  9  1  0  0  0  0
  8 23  1  0  0  0  0
  9 10  1  0  0  0  0
  9 11  1  0  0  0  0
  9 12  1  0  0  0  0
 12 13  1  0  0  0  0
 12 17  1  0  0  0  0
 13 14  1  0  0  0  0
 13 31  1  0  0  0  0
 14 15  1  0  0  0  0
 14 32  1  0  0  0  0
 15 16  1  0  0  0  0
 15 22  1  0  0  0  0
 16 17  1  0  0  0  0
 16 18  1  0  0  0  0
 17 33  1  0  0  0  0
 18 19  1  0  0  0  0
 19 20  1  0  0  0  0
 19 34  1  0  0  0  0
 19 35  1  0  0  0  0
 20 21  1  0  0  0  0
 20 36  1  0  0  0  0
 20 37  1  0  0  0  0
 21 22  1  0  0  0  0
 21 38  1  0  0  0  0
 21 39  1  0  0  0  0
 23 24  1  0  0  0  0
 23 40  1  0  0  0  0
 23 41  1  0  0  0  0
 24 42  1  0  0  0  0
 24 43  1  0  0  0  0
M  END
>  <name>


>  <Energy>
80.7207

> <total energy / Eh>
    -75.813615629081

> <gradient norm / Eh/a0>
      0.000636035045

$$$$
