MODEL 1
REMARK VINA RESULT:      -5.7      0.000      0.000
REMARK  Name = 
REMARK  3 active torsions:
REMARK  status: ('A' for Active; 'I' for Inactive)
REMARK    1  A    between atoms: C_2  and  C_3
REMARK    2  A    between atoms: N_8  and  C_9
REMARK    3  A    between atoms: C_9  and  C_10
REMARK                            x       y       z     vdW  Elec       q    Type
REMARK                         _______ _______ _______ _____ _____    ______ ____
ROOT
ATOM      1  O   UNL     1       8.059  -0.161  18.808  0.00  0.00    +0.000 OA
ATOM      2  C   UNL     1       7.380   0.175  19.782  0.00  0.00    +0.000 C 
ATOM      3  N   UNL     1       7.886   0.114  21.078  0.00  0.00    +0.000 N 
ATOM      4  C   UNL     1       7.081   0.295  22.293  0.00  0.00    +0.000 C 
ATOM      5  C   UNL     1       7.750  -0.182  23.607  0.00  0.00    +0.000 C 
ATOM      6  N   UNL     1       8.950  -1.025  23.441  0.00  0.00    +0.000 NA
ATOM      7  C   UNL     1       9.886  -0.278  22.587  0.00  0.00    +0.000 C 
ATOM      8  C   UNL     1       9.347   0.126  21.208  0.00  0.00    +0.000 C 
ENDROOT
BRANCH   2   9
ATOM      9  C   UNL     1       5.988   0.743  19.572  0.00  0.00    +0.000 C 
ATOM     10 CL   UNL     1       5.812   1.118  17.841  0.00  0.00    +0.000 Cl
ENDBRANCH   2   9
BRANCH   6  11
ATOM     11  C   UNL     1       8.582  -2.377  22.962  0.00  0.00    +0.000 C 
BRANCH  11  12
ATOM     12  C   UNL     1       8.630  -3.479  23.971  0.00  0.00    +0.000 A 
ATOM     13  C   UNL     1       7.640  -4.236  24.564  0.00  0.00    +0.000 A 
ATOM     14  C   UNL     1       8.299  -5.184  25.383  0.00  0.00    +0.000 A 
ATOM     15  C   UNL     1       9.643  -4.923  25.261  0.00  0.00    +0.000 A 
ATOM     16  O   UNL     1       9.855  -3.881  24.414  0.00  0.00    +0.000 OA
ENDBRANCH  11  12
ENDBRANCH   6  11
TORSDOF 3
ENDMDL
MODEL 2
REMARK VINA RESULT:      -5.6      3.575      6.661
REMARK  Name = 
REMARK  3 active torsions:
REMARK  status: ('A' for Active; 'I' for Inactive)
REMARK    1  A    between atoms: C_2  and  C_3
REMARK    2  A    between atoms: N_8  and  C_9
REMARK    3  A    between atoms: C_9  and  C_10
REMARK                            x       y       z     vdW  Elec       q    Type
REMARK                         _______ _______ _______ _____ _____    ______ ____
ROOT
ATOM      1  O   UNL     1       9.228  -5.221  24.231  0.00  0.00    +0.000 OA
ATOM      2  C   UNL     1       8.064  -5.067  24.611  0.00  0.00    +0.000 C 
ATOM      3  N   UNL     1       7.033  -4.808  23.712  0.00  0.00    +0.000 N 
ATOM      4  C   UNL     1       5.674  -4.409  24.100  0.00  0.00    +0.000 C 
ATOM      5  C   UNL     1       4.809  -3.812  22.960  0.00  0.00    +0.000 C 
ATOM      6  N   UNL     1       5.542  -3.435  21.736  0.00  0.00    +0.000 NA
ATOM      7  C   UNL     1       6.285  -4.625  21.295  0.00  0.00    +0.000 C 
ATOM      8  C   UNL     1       7.266  -5.212  22.320  0.00  0.00    +0.000 C 
ENDROOT
BRANCH   2   9
ATOM      9  C   UNL     1       7.721  -5.238  26.079  0.00  0.00    +0.000 C 
ATOM     10 CL   UNL     1       7.930  -3.658  26.872  0.00  0.00    +0.000 Cl
ENDBRANCH   2   9
BRANCH   6  11
ATOM     11  C   UNL     1       6.354  -2.217  21.960  0.00  0.00    +0.000 C 
BRANCH  11  12
ATOM     12  C   UNL     1       6.548  -1.317  20.783  0.00  0.00    +0.000 A 
ATOM     13  C   UNL     1       7.462  -0.316  20.522  0.00  0.00    +0.000 A 
ATOM     14  C   UNL     1       7.200   0.130  19.205  0.00  0.00    +0.000 A 
ATOM     15  C   UNL     1       6.125  -0.603  18.762  0.00  0.00    +0.000 A 
ATOM     16  O   UNL     1       5.713  -1.476  19.717  0.00  0.00    +0.000 OA
ENDBRANCH  11  12
ENDBRANCH   6  11
TORSDOF 3
ENDMDL
MODEL 3
REMARK VINA RESULT:      -5.5      3.379      6.345
REMARK  Name = 
REMARK  3 active torsions:
REMARK  status: ('A' for Active; 'I' for Inactive)
REMARK    1  A    between atoms: C_2  and  C_3
REMARK    2  A    between atoms: N_8  and  C_9
REMARK    3  A    between atoms: C_9  and  C_10
REMARK                            x       y       z     vdW  Elec       q    Type
REMARK                         _______ _______ _______ _____ _____    ______ ____
ROOT
ATOM      1  O   UNL     1       7.383  -2.658  26.723  0.00  0.00    +0.000 OA
ATOM      2  C   UNL     1       8.316  -3.066  26.025  0.00  0.00    +0.000 C 
ATOM      3  N   UNL     1       8.911  -2.256  25.060  0.00  0.00    +0.000 N 
ATOM      4  C   UNL     1       9.872  -2.730  24.057  0.00  0.00    +0.000 C 
ATOM      5  C   UNL     1      10.113  -1.768  22.865  0.00  0.00    +0.000 C 
ATOM      6  N   UNL     1       9.138  -0.670  22.726  0.00  0.00    +0.000 NA
ATOM      7  C   UNL     1       9.109   0.045  24.012  0.00  0.00    +0.000 C 
ATOM      8  C   UNL     1       8.751  -0.809  25.237  0.00  0.00    +0.000 C 
ENDROOT
BRANCH   2   9
ATOM      9  C   UNL     1       8.889  -4.450  26.264  0.00  0.00    +0.000 C 
ATOM     10 CL   UNL     1       7.665  -5.400  27.140  0.00  0.00    +0.000 Cl
ENDBRANCH   2   9
BRANCH   6  11
ATOM     11  C   UNL     1       7.834  -1.179  22.245  0.00  0.00    +0.000 C 
BRANCH  11  12
ATOM     12  C   UNL     1       7.366  -0.672  20.919  0.00  0.00    +0.000 A 
ATOM     13  C   UNL     1       7.891   0.259  20.045  0.00  0.00    +0.000 A 
ATOM     14  C   UNL     1       7.045   0.263  18.911  0.00  0.00    +0.000 A 
ATOM     15  C   UNL     1       6.044  -0.640  19.180  0.00  0.00    +0.000 A 
ATOM     16  O   UNL     1       6.223  -1.205  20.403  0.00  0.00    +0.000 OA
ENDBRANCH  11  12
ENDBRANCH   6  11
TORSDOF 3
ENDMDL
MODEL 4
REMARK VINA RESULT:      -5.5      3.374      5.143
REMARK  Name = 
REMARK  3 active torsions:
REMARK  status: ('A' for Active; 'I' for Inactive)
REMARK    1  A    between atoms: C_2  and  C_3
REMARK    2  A    between atoms: N_8  and  C_9
REMARK    3  A    between atoms: C_9  and  C_10
REMARK                            x       y       z     vdW  Elec       q    Type
REMARK                         _______ _______ _______ _____ _____    ______ ____
ROOT
ATOM      1  O   UNL     1       5.637  -3.027  21.381  0.00  0.00    +0.000 OA
ATOM      2  C   UNL     1       6.287  -3.871  22.004  0.00  0.00    +0.000 C 
ATOM      3  N   UNL     1       7.113  -3.513  23.068  0.00  0.00    +0.000 N 
ATOM      4  C   UNL     1       8.069  -4.419  23.717  0.00  0.00    +0.000 C 
ATOM      5  C   UNL     1       9.136  -3.728  24.604  0.00  0.00    +0.000 C 
ATOM      6  N   UNL     1       9.253  -2.267  24.439  0.00  0.00    +0.000 NA
ATOM      7  C   UNL     1       7.912  -1.701  24.652  0.00  0.00    +0.000 C 
ATOM      8  C   UNL     1       6.811  -2.237  23.725  0.00  0.00    +0.000 C 
ENDROOT
BRANCH   2   9
ATOM      9  C   UNL     1       6.133  -5.342  21.668  0.00  0.00    +0.000 C 
ATOM     10 CL   UNL     1       4.903  -6.022  22.759  0.00  0.00    +0.000 Cl
ENDBRANCH   2   9
BRANCH   6  11
ATOM     11  C   UNL     1       9.894  -1.931  23.147  0.00  0.00    +0.000 C 
BRANCH  11  12
ATOM     12  C   UNL     1       9.971  -0.480  22.796  0.00  0.00    +0.000 A 
ATOM     13  C   UNL     1       9.619   0.219  21.660  0.00  0.00    +0.000 A 
ATOM     14  C   UNL     1       9.851   1.585  21.943  0.00  0.00    +0.000 A 
ATOM     15  C   UNL     1      10.360   1.628  23.220  0.00  0.00    +0.000 A 
ATOM     16  O   UNL     1      10.448   0.377  23.743  0.00  0.00    +0.000 OA
ENDBRANCH  11  12
ENDBRANCH   6  11
TORSDOF 3
ENDMDL
MODEL 5
REMARK VINA RESULT:      -5.4      3.627      6.102
REMARK  Name = 
REMARK  3 active torsions:
REMARK  status: ('A' for Active; 'I' for Inactive)
REMARK    1  A    between atoms: C_2  and  C_3
REMARK    2  A    between atoms: N_8  and  C_9
REMARK    3  A    between atoms: C_9  and  C_10
REMARK                            x       y       z     vdW  Elec       q    Type
REMARK                         _______ _______ _______ _____ _____    ______ ____
ROOT
ATOM      1  O   UNL     1       9.331  -5.687  24.455  0.00  0.00    +0.000 OA
ATOM      2  C   UNL     1       8.812  -4.695  24.974  0.00  0.00    +0.000 C 
ATOM      3  N   UNL     1       8.073  -3.784  24.224  0.00  0.00    +0.000 N 
ATOM      4  C   UNL     1       7.606  -2.484  24.722  0.00  0.00    +0.000 C 
ATOM      5  C   UNL     1       7.143  -1.485  23.630  0.00  0.00    +0.000 C 
ATOM      6  N   UNL     1       7.515  -1.836  22.247  0.00  0.00    +0.000 NA
ATOM      7  C   UNL     1       7.012  -3.195  21.996  0.00  0.00    +0.000 C 
ATOM      8  C   UNL     1       7.522  -4.278  22.957  0.00  0.00    +0.000 C 
ENDROOT
BRANCH   2   9
ATOM      9  C   UNL     1       8.906  -4.492  26.475  0.00  0.00    +0.000 C 
ATOM     10 CL   UNL     1       7.538  -5.348  27.224  0.00  0.00    +0.000 Cl
ENDBRANCH   2   9
BRANCH   6  11
ATOM     11  C   UNL     1       8.966  -1.637  22.024  0.00  0.00    +0.000 C 
BRANCH  11  12
ATOM     12  C   UNL     1       9.500  -0.265  22.279  0.00  0.00    +0.000 A 
ATOM     13  C   UNL     1       9.374   0.922  21.586  0.00  0.00    +0.000 A 
ATOM     14  C   UNL     1      10.037   1.907  22.357  0.00  0.00    +0.000 A 
ATOM     15  C   UNL     1      10.550   1.252  23.451  0.00  0.00    +0.000 A 
ATOM     16  O   UNL     1      10.239  -0.071  23.408  0.00  0.00    +0.000 OA
ENDBRANCH  11  12
ENDBRANCH   6  11
TORSDOF 3
ENDMDL
MODEL 6
REMARK VINA RESULT:      -5.3      3.586      6.046
REMARK  Name = 
REMARK  3 active torsions:
REMARK  status: ('A' for Active; 'I' for Inactive)
REMARK    1  A    between atoms: C_2  and  C_3
REMARK    2  A    between atoms: N_8  and  C_9
REMARK    3  A    between atoms: C_9  and  C_10
REMARK                            x       y       z     vdW  Elec       q    Type
REMARK                         _______ _______ _______ _____ _____    ______ ____
ROOT
ATOM      1  O   UNL     1       7.749   1.155  25.689  0.00  0.00    +0.000 OA
ATOM      2  C   UNL     1       8.498   0.196  25.484  0.00  0.00    +0.000 C 
ATOM      3  N   UNL     1       9.180   0.050  24.278  0.00  0.00    +0.000 N 
ATOM      4  C   UNL     1       9.916  -1.157  23.883  0.00  0.00    +0.000 C 
ATOM      5  C   UNL     1      10.271  -1.251  22.376  0.00  0.00    +0.000 C 
ATOM      6  N   UNL     1       9.569  -0.298  21.496  0.00  0.00    +0.000 NA
ATOM      7  C   UNL     1       9.816   1.049  22.035  0.00  0.00    +0.000 C 
ATOM      8  C   UNL     1       9.376   1.271  23.489  0.00  0.00    +0.000 C 
ENDROOT
BRANCH   2   9
ATOM      9  C   UNL     1       8.752  -0.812  26.589  0.00  0.00    +0.000 C 
ATOM     10 CL   UNL     1       7.448  -2.022  26.529  0.00  0.00    +0.000 Cl
ENDBRANCH   2   9
BRANCH   6  11
ATOM     11  C   UNL     1       8.146  -0.675  21.337  0.00  0.00    +0.000 C 
BRANCH  11  12
ATOM     12  C   UNL     1       7.384   0.029  20.261  0.00  0.00    +0.000 A 
ATOM     13  C   UNL     1       7.493   0.013  18.886  0.00  0.00    +0.000 A 
ATOM     14  C   UNL     1       6.443   0.822  18.392  0.00  0.00    +0.000 A 
ATOM     15  C   UNL     1       5.782   1.304  19.497  0.00  0.00    +0.000 A 
ATOM     16  O   UNL     1       6.353   0.838  20.638  0.00  0.00    +0.000 OA
ENDBRANCH  11  12
ENDBRANCH   6  11
TORSDOF 3
ENDMDL
MODEL 7
REMARK VINA RESULT:      -5.2      2.168      2.557
REMARK  Name = 
REMARK  3 active torsions:
REMARK  status: ('A' for Active; 'I' for Inactive)
REMARK    1  A    between atoms: C_2  and  C_3
REMARK    2  A    between atoms: N_8  and  C_9
REMARK    3  A    between atoms: C_9  and  C_10
REMARK                            x       y       z     vdW  Elec       q    Type
REMARK                         _______ _______ _______ _____ _____    ______ ____
ROOT
ATOM      1  O   UNL     1       7.808   0.905  20.530  0.00  0.00    +0.000 OA
ATOM      2  C   UNL     1       8.231   1.304  21.619  0.00  0.00    +0.000 C 
ATOM      3  N   UNL     1       9.020   0.495  22.434  0.00  0.00    +0.000 N 
ATOM      4  C   UNL     1       9.381   0.815  23.821  0.00  0.00    +0.000 C 
ATOM      5  C   UNL     1       9.933  -0.373  24.651  0.00  0.00    +0.000 C 
ATOM      6  N   UNL     1       9.734  -1.710  24.060  0.00  0.00    +0.000 NA
ATOM      7  C   UNL     1      10.309  -1.673  22.707  0.00  0.00    +0.000 C 
ATOM      8  C   UNL     1       9.729  -0.604  21.769  0.00  0.00    +0.000 C 
ENDROOT
BRANCH   2   9
ATOM      9  C   UNL     1       7.958   2.730  22.059  0.00  0.00    +0.000 C 
ATOM     10 CL   UNL     1       6.203   3.006  21.943  0.00  0.00    +0.000 Cl
ENDBRANCH   2   9
BRANCH   6  11
ATOM     11  C   UNL     1       8.312  -2.117  24.143  0.00  0.00    +0.000 C 
BRANCH  11  12
ATOM     12  C   UNL     1       7.952  -3.421  23.506  0.00  0.00    +0.000 A 
ATOM     13  C   UNL     1       8.134  -4.729  23.905  0.00  0.00    +0.000 A 
ATOM     14  C   UNL     1       7.513  -5.536  22.923  0.00  0.00    +0.000 A 
ATOM     15  C   UNL     1       7.022  -4.671  21.974  0.00  0.00    +0.000 A 
ATOM     16  O   UNL     1       7.294  -3.383  22.313  0.00  0.00    +0.000 OA
ENDBRANCH  11  12
ENDBRANCH   6  11
TORSDOF 3
ENDMDL
MODEL 8
REMARK VINA RESULT:      -5.1      3.236      4.195
REMARK  Name = 
REMARK  3 active torsions:
REMARK  status: ('A' for Active; 'I' for Inactive)
REMARK    1  A    between atoms: C_2  and  C_3
REMARK    2  A    between atoms: N_8  and  C_9
REMARK    3  A    between atoms: C_9  and  C_10
REMARK                            x       y       z     vdW  Elec       q    Type
REMARK                         _______ _______ _______ _____ _____    ______ ____
ROOT
ATOM      1  O   UNL     1      10.630  -1.722  22.212  0.00  0.00    +0.000 OA
ATOM      2  C   UNL     1      10.155  -1.103  23.169  0.00  0.00    +0.000 C 
ATOM      3  N   UNL     1       9.416  -1.748  24.158  0.00  0.00    +0.000 N 
ATOM      4  C   UNL     1       8.649  -1.059  25.203  0.00  0.00    +0.000 C 
ATOM      5  C   UNL     1       7.614  -1.937  25.952  0.00  0.00    +0.000 C 
ATOM      6  N   UNL     1       7.311  -3.238  25.326  0.00  0.00    +0.000 NA
ATOM      7  C   UNL     1       8.593  -3.936  25.141  0.00  0.00    +0.000 C 
ATOM      8  C   UNL     1       9.639  -3.191  24.299  0.00  0.00    +0.000 C 
ENDROOT
BRANCH   2   9
ATOM      9  C   UNL     1      10.439   0.379  23.326  0.00  0.00    +0.000 C 
ATOM     10 CL   UNL     1       9.903   1.194  21.837  0.00  0.00    +0.000 Cl
ENDBRANCH   2   9
BRANCH   6  11
ATOM     11  C   UNL     1       6.496  -3.058  24.102  0.00  0.00    +0.000 C 
BRANCH  11  12
ATOM     12  C   UNL     1       6.320  -4.261  23.233  0.00  0.00    +0.000 A 
ATOM     13  C   UNL     1       6.848  -4.603  22.005  0.00  0.00    +0.000 A 
ATOM     14  C   UNL     1       6.377  -5.906  21.717  0.00  0.00    +0.000 A 
ATOM     15  C   UNL     1       5.568  -6.260  22.770  0.00  0.00    +0.000 A 
ATOM     16  O   UNL     1       5.517  -5.263  23.692  0.00  0.00    +0.000 OA
ENDBRANCH  11  12
ENDBRANCH   6  11
TORSDOF 3
ENDMDL
MODEL 9
REMARK VINA RESULT:      -5.1      3.305      4.162
REMARK  Name = 
REMARK  3 active torsions:
REMARK  status: ('A' for Active; 'I' for Inactive)
REMARK    1  A    between atoms: C_2  and  C_3
REMARK    2  A    between atoms: N_8  and  C_9
REMARK    3  A    between atoms: C_9  and  C_10
REMARK                            x       y       z     vdW  Elec       q    Type
REMARK                         _______ _______ _______ _____ _____    ______ ____
ROOT
ATOM      1  O   UNL     1      11.082   0.505  24.894  0.00  0.00    +0.000 OA
ATOM      2  C   UNL     1       9.971   0.825  24.463  0.00  0.00    +0.000 C 
ATOM      3  N   UNL     1       8.848   0.032  24.688  0.00  0.00    +0.000 N 
ATOM      4  C   UNL     1       7.547   0.232  24.038  0.00  0.00    +0.000 C 
ATOM      5  C   UNL     1       6.567  -0.965  24.136  0.00  0.00    +0.000 C 
ATOM      6  N   UNL     1       7.161  -2.239  24.584  0.00  0.00    +0.000 NA
ATOM      7  C   UNL     1       7.835  -1.974  25.864  0.00  0.00    +0.000 C 
ATOM      8  C   UNL     1       8.917  -0.885  25.831  0.00  0.00    +0.000 C 
ENDROOT
BRANCH   2   9
ATOM      9  C   UNL     1       9.793   2.145  23.737  0.00  0.00    +0.000 C 
ATOM     10 CL   UNL     1      10.143   1.867  22.014  0.00  0.00    +0.000 Cl
ENDBRANCH   2   9
BRANCH   6  11
ATOM     11  C   UNL     1       8.009  -2.828  23.522  0.00  0.00    +0.000 C 
BRANCH  11  12
ATOM     12  C   UNL     1       7.471  -4.041  22.834  0.00  0.00    +0.000 A 
ATOM     13  C   UNL     1       7.628  -5.391  23.077  0.00  0.00    +0.000 A 
ATOM     14  C   UNL     1       6.812  -6.063  22.137  0.00  0.00    +0.000 A 
ATOM     15  C   UNL     1       6.237  -5.084  21.363  0.00  0.00    +0.000 A 
ATOM     16  O   UNL     1       6.640  -3.852  21.770  0.00  0.00    +0.000 OA
ENDBRANCH  11  12
ENDBRANCH   6  11
TORSDOF 3
ENDMDL
