MODEL 1
REMARK VINA RESULT:      -6.5      0.000      0.000
REMARK  Name = 
REMARK  5 active torsions:
REMARK  status: ('A' for Active; 'I' for Inactive)
REMARK    1  A    between atoms: C_1  and  C_2
REMARK    2  A    between atoms: C_6  and  N_7
REMARK    3  A    between atoms: N_7  and  C_8
REMARK    4  A    between atoms: N_7  and  C_12
REMARK    5  A    between atoms: C_8  and  C_10
REMARK                            x       y       z     vdW  Elec       q    Type
REMARK                         _______ _______ _______ _____ _____    ______ ____
ROOT
ATOM      1  N   UNL     1       8.725  -3.388  23.976  0.00  0.00    +0.000 NA
ENDROOT
BRANCH   1   7
ATOM      2  C   UNL     1      10.936   0.991  24.450  0.00  0.00    +0.000 C 
ATOM      3  C   UNL     1      10.238  -0.029  23.606  0.00  0.00    +0.000 C 
ATOM      4  C   UNL     1       9.998   0.187  22.255  0.00  0.00    +0.000 C 
ATOM      5  C   UNL     1       9.341  -0.759  21.488  0.00  0.00    +0.000 C 
ATOM      6  C   UNL     1       8.916  -1.947  22.053  0.00  0.00    +0.000 C 
ATOM      7  C   UNL     1       9.172  -2.177  23.398  0.00  0.00    +0.000 C 
ATOM      8  C   UNL     1       9.817  -1.226  24.174  0.00  0.00    +0.000 C 
ENDBRANCH   1   7
BRANCH   1   9
ATOM      9  C   UNL     1       7.684  -4.181  23.448  0.00  0.00    +0.000 C 
ATOM     10  C   UNL     1       6.489  -3.326  23.547  0.00  0.00    +0.000 C 
ATOM     11  C   UNL     1       5.267  -3.698  23.127  0.00  0.00    +0.000 C 
ATOM     12  S   UNL     1       5.674  -5.362  22.525  0.00  0.00    +0.000 S 
ATOM     13  O   UNL     1       5.048  -6.395  23.309  0.00  0.00    +0.000 OA
ATOM     14  O   UNL     1       5.541  -5.452  21.094  0.00  0.00    +0.000 OA
ATOM     15  C   UNL     1       7.512  -5.375  22.919  0.00  0.00    +0.000 C 
ENDBRANCH   1   9
BRANCH   1  16
ATOM     16  C   UNL     1       9.194  -4.008  25.055  0.00  0.00    +0.000 C 
ATOM     17  O   UNL     1      10.238  -4.735  24.835  0.00  0.00    +0.000 OA
BRANCH  16  18
ATOM     18  C   UNL     1       8.667  -3.875  26.437  0.00  0.00    +0.000 C 
ATOM     19 CL   UNL     1       7.778  -5.371  26.884  0.00  0.00    +0.000 Cl
ENDBRANCH  16  18
ENDBRANCH   1  16
TORSDOF 4
ENDMDL
MODEL 2
REMARK VINA RESULT:      -6.3      1.462      2.328
REMARK  Name = 
REMARK  5 active torsions:
REMARK  status: ('A' for Active; 'I' for Inactive)
REMARK    1  A    between atoms: C_1  and  C_2
REMARK    2  A    between atoms: C_6  and  N_7
REMARK    3  A    between atoms: N_7  and  C_8
REMARK    4  A    between atoms: N_7  and  C_12
REMARK    5  A    between atoms: C_8  and  C_10
REMARK                            x       y       z     vdW  Elec       q    Type
REMARK                         _______ _______ _______ _____ _____    ______ ____
ROOT
ATOM      1  N   UNL     1       8.223  -3.738  23.990  0.00  0.00    +0.000 NA
ENDROOT
BRANCH   1   7
ATOM      2  C   UNL     1       7.111  -0.301  20.638  0.00  0.00    +0.000 C 
ATOM      3  C   UNL     1       8.103  -0.964  21.542  0.00  0.00    +0.000 C 
ATOM      4  C   UNL     1       9.424  -0.539  21.605  0.00  0.00    +0.000 C 
ATOM      5  C   UNL     1      10.335  -1.167  22.437  0.00  0.00    +0.000 C 
ATOM      6  C   UNL     1       9.943  -2.229  23.230  0.00  0.00    +0.000 C 
ATOM      7  C   UNL     1       8.618  -2.644  23.186  0.00  0.00    +0.000 C 
ATOM      8  C   UNL     1       7.706  -2.027  22.344  0.00  0.00    +0.000 C 
ENDBRANCH   1   7
BRANCH   1   9
ATOM      9  C   UNL     1       7.043  -4.484  23.789  0.00  0.00    +0.000 C 
ATOM     10  C   UNL     1       7.339  -5.324  22.615  0.00  0.00    +0.000 C 
ATOM     11  C   UNL     1       6.475  -6.211  22.093  0.00  0.00    +0.000 C 
ATOM     12  S   UNL     1       5.089  -5.956  23.238  0.00  0.00    +0.000 S 
ATOM     13  O   UNL     1       3.941  -5.379  22.586  0.00  0.00    +0.000 OA
ATOM     14  O   UNL     1       4.862  -7.115  24.061  0.00  0.00    +0.000 OA
ATOM     15  C   UNL     1       5.853  -4.631  24.333  0.00  0.00    +0.000 C 
ENDBRANCH   1   9
BRANCH   1  16
ATOM     16  C   UNL     1       8.868  -4.278  25.020  0.00  0.00    +0.000 C 
ATOM     17  O   UNL     1       9.765  -5.145  24.687  0.00  0.00    +0.000 OA
BRANCH  16  18
ATOM     18  C   UNL     1       8.684  -3.921  26.450  0.00  0.00    +0.000 C 
ATOM     19 CL   UNL     1       8.169  -2.203  26.575  0.00  0.00    +0.000 Cl
ENDBRANCH  16  18
ENDBRANCH   1  16
TORSDOF 4
ENDMDL
MODEL 3
REMARK VINA RESULT:      -6.2      2.431      3.921
REMARK  Name = 
REMARK  5 active torsions:
REMARK  status: ('A' for Active; 'I' for Inactive)
REMARK    1  A    between atoms: C_1  and  C_2
REMARK    2  A    between atoms: C_6  and  N_7
REMARK    3  A    between atoms: N_7  and  C_8
REMARK    4  A    between atoms: N_7  and  C_12
REMARK    5  A    between atoms: C_8  and  C_10
REMARK                            x       y       z     vdW  Elec       q    Type
REMARK                         _______ _______ _______ _____ _____    ______ ____
ROOT
ATOM      1  N   UNL     1       7.170  -3.291  22.664  0.00  0.00    +0.000 NA
ENDROOT
BRANCH   1   7
ATOM      2  C   UNL     1       6.746   0.956  20.198  0.00  0.00    +0.000 C 
ATOM      3  C   UNL     1       7.579  -0.033  20.951  0.00  0.00    +0.000 C 
ATOM      4  C   UNL     1       8.937   0.172  21.162  0.00  0.00    +0.000 C 
ATOM      5  C   UNL     1       9.699  -0.756  21.850  0.00  0.00    +0.000 C 
ATOM      6  C   UNL     1       9.119  -1.906  22.351  0.00  0.00    +0.000 C 
ATOM      7  C   UNL     1       7.758  -2.106  22.161  0.00  0.00    +0.000 C 
ATOM      8  C   UNL     1       6.993  -1.186  21.460  0.00  0.00    +0.000 C 
ENDBRANCH   1   7
BRANCH   1   9
ATOM      9  C   UNL     1       7.488  -3.864  23.913  0.00  0.00    +0.000 C 
ATOM     10  C   UNL     1       6.770  -3.029  24.891  0.00  0.00    +0.000 C 
ATOM     11  C   UNL     1       6.787  -3.247  26.216  0.00  0.00    +0.000 C 
ATOM     12  S   UNL     1       7.863  -4.710  26.243  0.00  0.00    +0.000 S 
ATOM     13  O   UNL     1       9.124  -4.450  26.887  0.00  0.00    +0.000 OA
ATOM     14  O   UNL     1       7.144  -5.887  26.659  0.00  0.00    +0.000 OA
ATOM     15  C   UNL     1       8.183  -4.872  24.397  0.00  0.00    +0.000 C 
ENDBRANCH   1   9
BRANCH   1  16
ATOM     16  C   UNL     1       6.224  -4.040  22.106  0.00  0.00    +0.000 C 
ATOM     17  O   UNL     1       5.020  -3.685  22.409  0.00  0.00    +0.000 OA
BRANCH  16  18
ATOM     18  C   UNL     1       6.445  -5.159  21.155  0.00  0.00    +0.000 C 
ATOM     19 CL   UNL     1       6.391  -6.720  22.045  0.00  0.00    +0.000 Cl
ENDBRANCH  16  18
ENDBRANCH   1  16
TORSDOF 4
ENDMDL
MODEL 4
REMARK VINA RESULT:      -6.1      3.252      5.265
REMARK  Name = 
REMARK  5 active torsions:
REMARK  status: ('A' for Active; 'I' for Inactive)
REMARK    1  A    between atoms: C_1  and  C_2
REMARK    2  A    between atoms: C_6  and  N_7
REMARK    3  A    between atoms: N_7  and  C_8
REMARK    4  A    between atoms: N_7  and  C_12
REMARK    5  A    between atoms: C_8  and  C_10
REMARK                            x       y       z     vdW  Elec       q    Type
REMARK                         _______ _______ _______ _____ _____    ______ ____
ROOT
ATOM      1  N   UNL     1       8.214  -3.027  23.355  0.00  0.00    +0.000 NA
ENDROOT
BRANCH   1   7
ATOM      2  C   UNL     1       4.626  -5.886  25.157  0.00  0.00    +0.000 C 
ATOM      3  C   UNL     1       5.529  -5.485  24.033  0.00  0.00    +0.000 C 
ATOM      4  C   UNL     1       5.483  -6.126  22.802  0.00  0.00    +0.000 C 
ATOM      5  C   UNL     1       6.331  -5.754  21.773  0.00  0.00    +0.000 C 
ATOM      6  C   UNL     1       7.239  -4.727  21.950  0.00  0.00    +0.000 C 
ATOM      7  C   UNL     1       7.275  -4.069  23.173  0.00  0.00    +0.000 C 
ATOM      8  C   UNL     1       6.437  -4.448  24.211  0.00  0.00    +0.000 C 
ENDBRANCH   1   7
BRANCH   1   9
ATOM      9  C   UNL     1       8.374  -1.941  22.469  0.00  0.00    +0.000 C 
ATOM     10  C   UNL     1       7.155  -1.134  22.657  0.00  0.00    +0.000 C 
ATOM     11  C   UNL     1       6.913   0.016  22.007  0.00  0.00    +0.000 C 
ATOM     12  S   UNL     1       8.430   0.099  21.012  0.00  0.00    +0.000 S 
ATOM     13  O   UNL     1       8.168  -0.040  19.603  0.00  0.00    +0.000 OA
ATOM     14  O   UNL     1       9.268   1.197  21.418  0.00  0.00    +0.000 OA
ATOM     15  C   UNL     1       9.254  -1.484  21.603  0.00  0.00    +0.000 C 
ENDBRANCH   1   9
BRANCH   1  16
ATOM     16  C   UNL     1       9.063  -2.851  24.363  0.00  0.00    +0.000 C 
ATOM     17  O   UNL     1      10.154  -3.535  24.260  0.00  0.00    +0.000 OA
BRANCH  16  18
ATOM     18  C   UNL     1       8.883  -1.920  25.505  0.00  0.00    +0.000 C 
ATOM     19 CL   UNL     1       9.784  -0.398  25.184  0.00  0.00    +0.000 Cl
ENDBRANCH  16  18
ENDBRANCH   1  16
TORSDOF 4
ENDMDL
MODEL 5
REMARK VINA RESULT:      -6.0      1.426      2.034
REMARK  Name = 
REMARK  5 active torsions:
REMARK  status: ('A' for Active; 'I' for Inactive)
REMARK    1  A    between atoms: C_1  and  C_2
REMARK    2  A    between atoms: C_6  and  N_7
REMARK    3  A    between atoms: N_7  and  C_8
REMARK    4  A    between atoms: N_7  and  C_12
REMARK    5  A    between atoms: C_8  and  C_10
REMARK                            x       y       z     vdW  Elec       q    Type
REMARK                         _______ _______ _______ _____ _____    ______ ____
ROOT
ATOM      1  N   UNL     1       8.004  -2.551  23.456  0.00  0.00    +0.000 NA
ENDROOT
BRANCH   1   7
ATOM      2  C   UNL     1      10.040   1.698  22.009  0.00  0.00    +0.000 C 
ATOM      3  C   UNL     1       9.039   0.603  21.815  0.00  0.00    +0.000 C 
ATOM      4  C   UNL     1       8.146   0.616  20.751  0.00  0.00    +0.000 C 
ATOM      5  C   UNL     1       7.216  -0.396  20.588  0.00  0.00    +0.000 C 
ATOM      6  C   UNL     1       7.164  -1.449  21.482  0.00  0.00    +0.000 C 
ATOM      7  C   UNL     1       8.068  -1.478  22.536  0.00  0.00    +0.000 C 
ATOM      8  C   UNL     1       8.992  -0.458  22.711  0.00  0.00    +0.000 C 
ENDBRANCH   1   7
BRANCH   1   9
ATOM      9  C   UNL     1       6.965  -3.504  23.490  0.00  0.00    +0.000 C 
ATOM     10  C   UNL     1       7.483  -4.636  22.702  0.00  0.00    +0.000 C 
ATOM     11  C   UNL     1       6.806  -5.778  22.499  0.00  0.00    +0.000 C 
ATOM     12  S   UNL     1       5.297  -5.376  23.427  0.00  0.00    +0.000 S 
ATOM     13  O   UNL     1       4.145  -5.257  22.572  0.00  0.00    +0.000 OA
ATOM     14  O   UNL     1       5.163  -6.201  24.600  0.00  0.00    +0.000 OA
ATOM     15  C   UNL     1       5.762  -3.649  24.007  0.00  0.00    +0.000 C 
ENDBRANCH   1   9
BRANCH   1  16
ATOM     16  C   UNL     1       8.881  -2.879  24.400  0.00  0.00    +0.000 C 
ATOM     17  O   UNL     1      10.057  -3.169  23.951  0.00  0.00    +0.000 OA
BRANCH  16  18
ATOM     18  C   UNL     1       8.633  -2.870  25.864  0.00  0.00    +0.000 C 
ATOM     19 CL   UNL     1       8.949  -4.508  26.533  0.00  0.00    +0.000 Cl
ENDBRANCH  16  18
ENDBRANCH   1  16
TORSDOF 4
ENDMDL
MODEL 6
REMARK VINA RESULT:      -6.0      3.168      4.164
REMARK  Name = 
REMARK  5 active torsions:
REMARK  status: ('A' for Active; 'I' for Inactive)
REMARK    1  A    between atoms: C_1  and  C_2
REMARK    2  A    between atoms: C_6  and  N_7
REMARK    3  A    between atoms: N_7  and  C_8
REMARK    4  A    between atoms: N_7  and  C_12
REMARK    5  A    between atoms: C_8  and  C_10
REMARK                            x       y       z     vdW  Elec       q    Type
REMARK                         _______ _______ _______ _____ _____    ______ ____
ROOT
ATOM      1  N   UNL     1       8.694  -0.608  23.943  0.00  0.00    +0.000 NA
ENDROOT
BRANCH   1   7
ATOM      2  C   UNL     1       7.657   0.039  19.168  0.00  0.00    +0.000 C 
ATOM      3  C   UNL     1       7.492   0.439  20.601  0.00  0.00    +0.000 C 
ATOM      4  C   UNL     1       6.681   1.506  20.968  0.00  0.00    +0.000 C 
ATOM      5  C   UNL     1       6.546   1.873  22.295  0.00  0.00    +0.000 C 
ATOM      6  C   UNL     1       7.210   1.177  23.287  0.00  0.00    +0.000 C 
ATOM      7  C   UNL     1       8.005   0.096  22.927  0.00  0.00    +0.000 C 
ATOM      8  C   UNL     1       8.155  -0.267  21.597  0.00  0.00    +0.000 C 
ENDBRANCH   1   7
BRANCH   1   9
ATOM      9  C   UNL     1       8.621  -2.005  24.128  0.00  0.00    +0.000 C 
ATOM     10  C   UNL     1       7.191  -2.267  24.361  0.00  0.00    +0.000 C 
ATOM     11  C   UNL     1       6.679  -3.493  24.565  0.00  0.00    +0.000 C 
ATOM     12  S   UNL     1       8.214  -4.457  24.451  0.00  0.00    +0.000 S 
ATOM     13  O   UNL     1       8.571  -5.066  25.706  0.00  0.00    +0.000 OA
ATOM     14  O   UNL     1       8.221  -5.304  23.286  0.00  0.00    +0.000 OA
ATOM     15  C   UNL     1       9.420  -3.051  24.130  0.00  0.00    +0.000 C 
ENDBRANCH   1   9
BRANCH   1  16
ATOM     16  C   UNL     1       9.530  -0.125  24.856  0.00  0.00    +0.000 C 
ATOM     17  O   UNL     1       9.107  -0.234  26.071  0.00  0.00    +0.000 OA
BRANCH  16  18
ATOM     18  C   UNL     1      10.877   0.441  24.594  0.00  0.00    +0.000 C 
ATOM     19 CL   UNL     1      10.708   2.097  23.916  0.00  0.00    +0.000 Cl
ENDBRANCH  16  18
ENDBRANCH   1  16
TORSDOF 4
ENDMDL
MODEL 7
REMARK VINA RESULT:      -6.0      2.645      5.168
REMARK  Name = 
REMARK  5 active torsions:
REMARK  status: ('A' for Active; 'I' for Inactive)
REMARK    1  A    between atoms: C_1  and  C_2
REMARK    2  A    between atoms: C_6  and  N_7
REMARK    3  A    between atoms: N_7  and  C_8
REMARK    4  A    between atoms: N_7  and  C_12
REMARK    5  A    between atoms: C_8  and  C_10
REMARK                            x       y       z     vdW  Elec       q    Type
REMARK                         _______ _______ _______ _____ _____    ______ ____
ROOT
ATOM      1  N   UNL     1       8.313  -3.854  24.231  0.00  0.00    +0.000 NA
ENDROOT
BRANCH   1   7
ATOM      2  C   UNL     1       3.458  -4.532  23.722  0.00  0.00    +0.000 C 
ATOM      3  C   UNL     1       4.866  -4.873  23.345  0.00  0.00    +0.000 C 
ATOM      4  C   UNL     1       5.146  -5.846  22.394  0.00  0.00    +0.000 C 
ATOM      5  C   UNL     1       6.453  -6.161  22.063  0.00  0.00    +0.000 C 
ATOM      6  C   UNL     1       7.507  -5.504  22.668  0.00  0.00    +0.000 C 
ATOM      7  C   UNL     1       7.231  -4.516  23.604  0.00  0.00    +0.000 C 
ATOM      8  C   UNL     1       5.925  -4.207  23.950  0.00  0.00    +0.000 C 
ENDBRANCH   1   7
BRANCH   1   9
ATOM      9  C   UNL     1       8.672  -2.512  23.984  0.00  0.00    +0.000 C 
ATOM     10  C   UNL     1       8.763  -2.425  22.516  0.00  0.00    +0.000 C 
ATOM     11  C   UNL     1       9.064  -1.296  21.852  0.00  0.00    +0.000 C 
ATOM     12  S   UNL     1       9.266  -0.183  23.272  0.00  0.00    +0.000 S 
ATOM     13  O   UNL     1      10.625   0.270  23.423  0.00  0.00    +0.000 OA
ATOM     14  O   UNL     1       8.233   0.820  23.309  0.00  0.00    +0.000 OA
ATOM     15  C   UNL     1       8.910  -1.405  24.656  0.00  0.00    +0.000 C 
ENDBRANCH   1   9
BRANCH   1  16
ATOM     16  C   UNL     1       9.143  -4.328  25.156  0.00  0.00    +0.000 C 
ATOM     17  O   UNL     1      10.278  -4.732  24.691  0.00  0.00    +0.000 OA
BRANCH  16  18
ATOM     18  C   UNL     1       8.893  -4.360  26.619  0.00  0.00    +0.000 C 
ATOM     19 CL   UNL     1       7.540  -5.489  26.970  0.00  0.00    +0.000 Cl
ENDBRANCH  16  18
ENDBRANCH   1  16
TORSDOF 4
ENDMDL
MODEL 8
REMARK VINA RESULT:      -5.7      2.845      4.080
REMARK  Name = 
REMARK  5 active torsions:
REMARK  status: ('A' for Active; 'I' for Inactive)
REMARK    1  A    between atoms: C_1  and  C_2
REMARK    2  A    between atoms: C_6  and  N_7
REMARK    3  A    between atoms: N_7  and  C_8
REMARK    4  A    between atoms: N_7  and  C_12
REMARK    5  A    between atoms: C_8  and  C_10
REMARK                            x       y       z     vdW  Elec       q    Type
REMARK                         _______ _______ _______ _____ _____    ______ ____
ROOT
ATOM      1  N   UNL     1       7.146  -1.662  24.199  0.00  0.00    +0.000 NA
ENDROOT
BRANCH   1   7
ATOM      2  C   UNL     1       7.668   0.086  19.621  0.00  0.00    +0.000 C 
ATOM      3  C   UNL     1       8.186  -0.086  21.014  0.00  0.00    +0.000 C 
ATOM      4  C   UNL     1       9.413   0.437  21.402  0.00  0.00    +0.000 C 
ATOM      5  C   UNL     1       9.886   0.261  22.691  0.00  0.00    +0.000 C 
ATOM      6  C   UNL     1       9.140  -0.433  23.623  0.00  0.00    +0.000 C 
ATOM      7  C   UNL     1       7.902  -0.940  23.246  0.00  0.00    +0.000 C 
ATOM      8  C   UNL     1       7.431  -0.780  21.952  0.00  0.00    +0.000 C 
ENDBRANCH   1   7
BRANCH   1   9
ATOM      9  C   UNL     1       7.613  -2.806  24.880  0.00  0.00    +0.000 C 
ATOM     10  C   UNL     1       7.775  -3.818  23.823  0.00  0.00    +0.000 C 
ATOM     11  C   UNL     1       8.227  -5.064  24.044  0.00  0.00    +0.000 C 
ATOM     12  S   UNL     1       8.484  -4.953  25.838  0.00  0.00    +0.000 S 
ATOM     13  O   UNL     1       7.586  -5.806  26.573  0.00  0.00    +0.000 OA
ATOM     14  O   UNL     1       9.882  -5.025  26.176  0.00  0.00    +0.000 OA
ATOM     15  C   UNL     1       7.934  -3.175  26.103  0.00  0.00    +0.000 C 
ENDBRANCH   1   9
BRANCH   1  16
ATOM     16  C   UNL     1       5.922  -1.400  24.647  0.00  0.00    +0.000 C 
ATOM     17  O   UNL     1       5.022  -2.233  24.241  0.00  0.00    +0.000 OA
BRANCH  16  18
ATOM     18  C   UNL     1       5.549  -0.313  25.586  0.00  0.00    +0.000 C 
ATOM     19 CL   UNL     1       5.505   1.251  24.702  0.00  0.00    +0.000 Cl
ENDBRANCH  16  18
ENDBRANCH   1  16
TORSDOF 4
ENDMDL
MODEL 9
REMARK VINA RESULT:      -5.7      2.604      3.683
REMARK  Name = 
REMARK  5 active torsions:
REMARK  status: ('A' for Active; 'I' for Inactive)
REMARK    1  A    between atoms: C_1  and  C_2
REMARK    2  A    between atoms: C_6  and  N_7
REMARK    3  A    between atoms: N_7  and  C_8
REMARK    4  A    between atoms: N_7  and  C_12
REMARK    5  A    between atoms: C_8  and  C_10
REMARK                            x       y       z     vdW  Elec       q    Type
REMARK                         _______ _______ _______ _____ _____    ______ ____
ROOT
ATOM      1  N   UNL     1       6.828  -1.997  23.656  0.00  0.00    +0.000 NA
ENDROOT
BRANCH   1   7
ATOM      2  C   UNL     1       9.922   1.455  21.984  0.00  0.00    +0.000 C 
ATOM      3  C   UNL     1       8.796   0.497  21.755  0.00  0.00    +0.000 C 
ATOM      4  C   UNL     1       8.183   0.381  20.513  0.00  0.00    +0.000 C 
ATOM      5  C   UNL     1       7.134  -0.500  20.317  0.00  0.00    +0.000 C 
ATOM      6  C   UNL     1       6.680  -1.292  21.355  0.00  0.00    +0.000 C 
ATOM      7  C   UNL     1       7.303  -1.194  22.593  0.00  0.00    +0.000 C 
ATOM      8  C   UNL     1       8.345  -0.302  22.798  0.00  0.00    +0.000 C 
ENDBRANCH   1   7
BRANCH   1   9
ATOM      9  C   UNL     1       7.558  -3.055  24.237  0.00  0.00    +0.000 C 
ATOM     10  C   UNL     1       7.997  -2.523  25.539  0.00  0.00    +0.000 C 
ATOM     11  C   UNL     1       8.714  -3.227  26.431  0.00  0.00    +0.000 C 
ATOM     12  S   UNL     1       8.862  -4.782  25.504  0.00  0.00    +0.000 S 
ATOM     13  O   UNL     1      10.221  -5.058  25.113  0.00  0.00    +0.000 OA
ATOM     14  O   UNL     1       8.133  -5.848  26.140  0.00  0.00    +0.000 OA
ATOM     15  C   UNL     1       7.908  -4.294  23.959  0.00  0.00    +0.000 C 
ENDBRANCH   1   9
BRANCH   1  16
ATOM     16  C   UNL     1       5.675  -1.897  24.311  0.00  0.00    +0.000 C 
ATOM     17  O   UNL     1       5.412  -0.707  24.739  0.00  0.00    +0.000 OA
BRANCH  16  18
ATOM     18  C   UNL     1       4.689  -2.988  24.514  0.00  0.00    +0.000 C 
ATOM     19 CL   UNL     1       4.494  -3.297  26.274  0.00  0.00    +0.000 Cl
ENDBRANCH  16  18
ENDBRANCH   1  16
TORSDOF 4
ENDMDL
