MODEL 1
REMARK VINA RESULT:      -6.6      0.000      0.000
REMARK  Name = 
REMARK  5 active torsions:
REMARK  status: ('A' for Active; 'I' for Inactive)
REMARK    1  A    between atoms: C_1  and  C_2
REMARK    2  A    between atoms: C_2  and  C_4
REMARK    3  A    between atoms: C_8  and  S_9
REMARK    4  A    between atoms: S_9  and  N_12
REMARK    5  A    between atoms: C_16  and  C_18
REMARK                            x       y       z     vdW  Elec       q    Type
REMARK                         _______ _______ _______ _____ _____    ______ ____
ROOT
ATOM      1  S   UNL     1       7.535  -2.033  23.405  0.00  0.00    +0.000 S 
ATOM      2  O   UNL     1       8.916  -2.437  23.225  0.00  0.00    +0.000 OA
ATOM      3  O   UNL     1       6.970  -1.888  24.725  0.00  0.00    +0.000 OA
ENDROOT
BRANCH   1   4
ATOM      4  N   UNL     1       6.535  -3.127  22.534  0.00  0.00    +0.000 NA
ATOM      5  C   UNL     1       7.091  -4.414  22.013  0.00  0.00    +0.000 C 
ATOM      6  C   UNL     1       7.327  -5.467  23.114  0.00  0.00    +0.000 C 
ATOM      7  N   UNL     1       6.412  -5.290  24.240  0.00  0.00    +0.000 N 
ATOM      8  C   UNL     1       6.758  -5.237  25.593  0.00  0.00    +0.000 C 
ATOM      9  O   UNL     1       5.891  -4.997  26.442  0.00  0.00    +0.000 OA
ATOM     10  C   UNL     1       5.097  -4.794  23.838  0.00  0.00    +0.000 C 
ATOM     11  C   UNL     1       5.201  -3.371  23.230  0.00  0.00    +0.000 C 
BRANCH   8  12
ATOM     12  C   UNL     1       8.218  -5.430  25.989  0.00  0.00    +0.000 C 
ATOM     13 CL   UNL     1       8.937  -3.913  26.572  0.00  0.00    +0.000 Cl
ENDBRANCH   8  12
ENDBRANCH   1   4
BRANCH   1  18
ATOM     14  C   UNL     1       7.153   0.603  20.407  0.00  0.00    +0.000 A 
ATOM     15  C   UNL     1       6.785   1.779  21.071  0.00  0.00    +0.000 A 
ATOM     16  C   UNL     1       6.787   1.836  22.470  0.00  0.00    +0.000 A 
ATOM     17  C   UNL     1       7.047   0.688  23.220  0.00  0.00    +0.000 A 
ATOM     18  C   UNL     1       7.377  -0.487  22.548  0.00  0.00    +0.000 A 
ATOM     19  C   UNL     1       7.556  -0.495  21.160  0.00  0.00    +0.000 A 
BRANCH  14  21
ATOM     20  C   UNL     1       5.665   1.048  18.318  0.00  0.00    +0.000 C 
ATOM     21  C   UNL     1       6.920   0.489  18.941  0.00  0.00    +0.000 C 
ATOM     22  O   UNL     1       7.787  -0.043  18.249  0.00  0.00    +0.000 OA
ENDBRANCH  14  21
ENDBRANCH   1  18
TORSDOF 4
ENDMDL
MODEL 2
REMARK VINA RESULT:      -6.5      2.259      2.787
REMARK  Name = 
REMARK  5 active torsions:
REMARK  status: ('A' for Active; 'I' for Inactive)
REMARK    1  A    between atoms: C_1  and  C_2
REMARK    2  A    between atoms: C_2  and  C_4
REMARK    3  A    between atoms: C_8  and  S_9
REMARK    4  A    between atoms: S_9  and  N_12
REMARK    5  A    between atoms: C_16  and  C_18
REMARK                            x       y       z     vdW  Elec       q    Type
REMARK                         _______ _______ _______ _____ _____    ______ ____
ROOT
ATOM      1  S   UNL     1       6.547  -2.289  23.383  0.00  0.00    +0.000 S 
ATOM      2  O   UNL     1       5.778  -1.341  24.166  0.00  0.00    +0.000 OA
ATOM      3  O   UNL     1       5.926  -3.467  22.826  0.00  0.00    +0.000 OA
ENDROOT
BRANCH   1   4
ATOM      4  N   UNL     1       7.885  -2.810  24.328  0.00  0.00    +0.000 NA
ATOM      5  C   UNL     1       7.978  -2.449  25.777  0.00  0.00    +0.000 C 
ATOM      6  C   UNL     1       7.007  -3.248  26.668  0.00  0.00    +0.000 C 
ATOM      7  N   UNL     1       6.703  -4.560  26.100  0.00  0.00    +0.000 N 
ATOM      8  C   UNL     1       5.433  -5.115  25.919  0.00  0.00    +0.000 C 
ATOM      9  O   UNL     1       5.313  -6.205  25.346  0.00  0.00    +0.000 OA
ATOM     10  C   UNL     1       7.828  -5.144  25.372  0.00  0.00    +0.000 C 
ATOM     11  C   UNL     1       8.192  -4.289  24.131  0.00  0.00    +0.000 C 
BRANCH   8  12
ATOM     12  C   UNL     1       4.213  -4.333  26.393  0.00  0.00    +0.000 C 
ATOM     13 CL   UNL     1       3.291  -3.678  25.022  0.00  0.00    +0.000 Cl
ENDBRANCH   8  12
ENDBRANCH   1   4
BRANCH   1  18
ATOM     14  C   UNL     1       6.902  -0.348  19.892  0.00  0.00    +0.000 A 
ATOM     15  C   UNL     1       8.078   0.391  20.064  0.00  0.00    +0.000 A 
ATOM     16  C   UNL     1       8.876   0.203  21.199  0.00  0.00    +0.000 A 
ATOM     17  C   UNL     1       8.450  -0.642  22.226  0.00  0.00    +0.000 A 
ATOM     18  C   UNL     1       7.260  -1.345  22.060  0.00  0.00    +0.000 A 
ATOM     19  C   UNL     1       6.560  -1.298  20.849  0.00  0.00    +0.000 A 
BRANCH  14  21
ATOM     20  C   UNL     1       5.011   1.194  18.984  0.00  0.00    +0.000 C 
ATOM     21  C   UNL     1       5.954   0.030  18.808  0.00  0.00    +0.000 C 
ATOM     22  O   UNL     1       5.981  -0.609  17.756  0.00  0.00    +0.000 OA
ENDBRANCH  14  21
ENDBRANCH   1  18
TORSDOF 4
ENDMDL
MODEL 3
REMARK VINA RESULT:      -6.4      2.766      6.928
REMARK  Name = 
REMARK  5 active torsions:
REMARK  status: ('A' for Active; 'I' for Inactive)
REMARK    1  A    between atoms: C_1  and  C_2
REMARK    2  A    between atoms: C_2  and  C_4
REMARK    3  A    between atoms: C_8  and  S_9
REMARK    4  A    between atoms: S_9  and  N_12
REMARK    5  A    between atoms: C_16  and  C_18
REMARK                            x       y       z     vdW  Elec       q    Type
REMARK                         _______ _______ _______ _____ _____    ______ ____
ROOT
ATOM      1  S   UNL     1       7.625  -2.052  23.427  0.00  0.00    +0.000 S 
ATOM      2  O   UNL     1       8.046  -2.788  22.251  0.00  0.00    +0.000 OA
ATOM      3  O   UNL     1       6.349  -1.378  23.464  0.00  0.00    +0.000 OA
ENDROOT
BRANCH   1   4
ATOM      4  N   UNL     1       8.834  -0.886  23.795  0.00  0.00    +0.000 NA
ATOM      5  C   UNL     1      10.027  -0.722  22.908  0.00  0.00    +0.000 C 
ATOM      6  C   UNL     1       9.706  -0.008  21.581  0.00  0.00    +0.000 C 
ATOM      7  N   UNL     1       8.572   0.905  21.714  0.00  0.00    +0.000 N 
ATOM      8  C   UNL     1       7.454   0.970  20.878  0.00  0.00    +0.000 C 
ATOM      9  O   UNL     1       6.521   1.734  21.156  0.00  0.00    +0.000 OA
ATOM     10  C   UNL     1       8.493   1.532  23.032  0.00  0.00    +0.000 C 
ATOM     11  C   UNL     1       8.240   0.475  24.138  0.00  0.00    +0.000 C 
BRANCH   8  12
ATOM     12  C   UNL     1       7.389   0.055  19.660  0.00  0.00    +0.000 C 
ATOM     13 CL   UNL     1       5.953  -0.991  19.711  0.00  0.00    +0.000 Cl
ENDBRANCH   8  12
ENDBRANCH   1   4
BRANCH   1  18
ATOM     14  C   UNL     1       6.624  -5.098  25.835  0.00  0.00    +0.000 A 
ATOM     15  C   UNL     1       7.797  -5.314  26.568  0.00  0.00    +0.000 A 
ATOM     16  C   UNL     1       8.882  -4.437  26.449  0.00  0.00    +0.000 A 
ATOM     17  C   UNL     1       8.849  -3.401  25.515  0.00  0.00    +0.000 A 
ATOM     18  C   UNL     1       7.690  -3.216  24.765  0.00  0.00    +0.000 A 
ATOM     19  C   UNL     1       6.541  -3.976  25.017  0.00  0.00    +0.000 A 
BRANCH  14  21
ATOM     20  C   UNL     1       4.816  -6.436  24.526  0.00  0.00    +0.000 C 
ATOM     21  C   UNL     1       5.581  -6.160  25.795  0.00  0.00    +0.000 C 
ATOM     22  O   UNL     1       5.382  -6.824  26.812  0.00  0.00    +0.000 OA
ENDBRANCH  14  21
ENDBRANCH   1  18
TORSDOF 4
ENDMDL
MODEL 4
REMARK VINA RESULT:      -6.2      3.424      6.805
REMARK  Name = 
REMARK  5 active torsions:
REMARK  status: ('A' for Active; 'I' for Inactive)
REMARK    1  A    between atoms: C_1  and  C_2
REMARK    2  A    between atoms: C_2  and  C_4
REMARK    3  A    between atoms: C_8  and  S_9
REMARK    4  A    between atoms: S_9  and  N_12
REMARK    5  A    between atoms: C_16  and  C_18
REMARK                            x       y       z     vdW  Elec       q    Type
REMARK                         _______ _______ _______ _____ _____    ______ ____
ROOT
ATOM      1  S   UNL     1       7.404  -0.630  22.515  0.00  0.00    +0.000 S 
ATOM      2  O   UNL     1       7.281  -0.268  21.116  0.00  0.00    +0.000 OA
ATOM      3  O   UNL     1       6.578  -0.003  23.519  0.00  0.00    +0.000 OA
ENDROOT
BRANCH   1   4
ATOM      4  N   UNL     1       9.043  -0.412  22.987  0.00  0.00    +0.000 NA
ATOM      5  C   UNL     1      10.002   0.308  22.091  0.00  0.00    +0.000 C 
ATOM      6  C   UNL     1       9.781   1.833  22.063  0.00  0.00    +0.000 C 
ATOM      7  N   UNL     1       9.199   2.322  23.312  0.00  0.00    +0.000 N 
ATOM      8  C   UNL     1       8.086   3.157  23.439  0.00  0.00    +0.000 C 
ATOM      9  O   UNL     1       7.645   3.427  24.563  0.00  0.00    +0.000 OA
ATOM     10  C   UNL     1       9.646   1.572  24.484  0.00  0.00    +0.000 C 
ATOM     11  C   UNL     1       9.171   0.097  24.417  0.00  0.00    +0.000 C 
BRANCH   8  12
ATOM     12  C   UNL     1       7.408   3.679  22.178  0.00  0.00    +0.000 C 
ATOM     13 CL   UNL     1       5.841   2.885  21.909  0.00  0.00    +0.000 Cl
ENDBRANCH   8  12
ENDBRANCH   1   4
BRANCH   1  18
ATOM     14  C   UNL     1       7.712  -4.459  23.667  0.00  0.00    +0.000 A 
ATOM     15  C   UNL     1       6.607  -5.058  23.052  0.00  0.00    +0.000 A 
ATOM     16  C   UNL     1       5.818  -4.338  22.147  0.00  0.00    +0.000 A 
ATOM     17  C   UNL     1       6.057  -2.979  21.933  0.00  0.00    +0.000 A 
ATOM     18  C   UNL     1       7.138  -2.384  22.577  0.00  0.00    +0.000 A 
ATOM     19  C   UNL     1       8.035  -3.147  23.334  0.00  0.00    +0.000 A 
BRANCH  14  21
ATOM     20  C   UNL     1       7.697  -5.328  26.120  0.00  0.00    +0.000 C 
ATOM     21  C   UNL     1       8.391  -5.158  24.792  0.00  0.00    +0.000 C 
ATOM     22  O   UNL     1       9.516  -5.619  24.602  0.00  0.00    +0.000 OA
ENDBRANCH  14  21
ENDBRANCH   1  18
TORSDOF 4
ENDMDL
MODEL 5
REMARK VINA RESULT:      -6.1      3.114      6.746
REMARK  Name = 
REMARK  5 active torsions:
REMARK  status: ('A' for Active; 'I' for Inactive)
REMARK    1  A    between atoms: C_1  and  C_2
REMARK    2  A    between atoms: C_2  and  C_4
REMARK    3  A    between atoms: C_8  and  S_9
REMARK    4  A    between atoms: S_9  and  N_12
REMARK    5  A    between atoms: C_16  and  C_18
REMARK                            x       y       z     vdW  Elec       q    Type
REMARK                         _______ _______ _______ _____ _____    ______ ____
ROOT
ATOM      1  S   UNL     1       7.451  -1.466  22.936  0.00  0.00    +0.000 S 
ATOM      2  O   UNL     1       7.075  -1.016  21.610  0.00  0.00    +0.000 OA
ATOM      3  O   UNL     1       6.945  -0.804  24.115  0.00  0.00    +0.000 OA
ENDROOT
BRANCH   1   4
ATOM      4  N   UNL     1       9.166  -1.466  23.041  0.00  0.00    +0.000 NA
ATOM      5  C   UNL     1       9.993  -0.830  21.968  0.00  0.00    +0.000 C 
ATOM      6  C   UNL     1       9.965   0.711  22.009  0.00  0.00    +0.000 C 
ATOM      7  N   UNL     1       9.732   1.214  23.362  0.00  0.00    +0.000 N 
ATOM      8  C   UNL     1       8.786   2.170  23.742  0.00  0.00    +0.000 C 
ATOM      9  O   UNL     1       8.635   2.445  24.939  0.00  0.00    +0.000 OA
ATOM     10  C   UNL     1      10.322   0.369  24.398  0.00  0.00    +0.000 C 
ATOM     11  C   UNL     1       9.662  -1.035  24.415  0.00  0.00    +0.000 C 
BRANCH   8  12
ATOM     12  C   UNL     1       7.923   2.822  22.667  0.00  0.00    +0.000 C 
ATOM     13 CL   UNL     1       6.244   2.247  22.748  0.00  0.00    +0.000 Cl
ENDBRANCH   8  12
ENDBRANCH   1   4
BRANCH   1  18
ATOM     14  C   UNL     1       6.617  -5.097  24.419  0.00  0.00    +0.000 A 
ATOM     15  C   UNL     1       5.968  -5.728  23.352  0.00  0.00    +0.000 A 
ATOM     16  C   UNL     1       5.898  -5.111  22.097  0.00  0.00    +0.000 A 
ATOM     17  C   UNL     1       6.375  -3.810  21.925  0.00  0.00    +0.000 A 
ATOM     18  C   UNL     1       6.987  -3.178  23.004  0.00  0.00    +0.000 A 
ATOM     19  C   UNL     1       7.224  -3.865  24.201  0.00  0.00    +0.000 A 
BRANCH  14  21
ATOM     20  C   UNL     1       5.129  -6.078  26.316  0.00  0.00    +0.000 C 
ATOM     21  C   UNL     1       6.479  -5.657  25.792  0.00  0.00    +0.000 C 
ATOM     22  O   UNL     1       7.494  -5.794  26.474  0.00  0.00    +0.000 OA
ENDBRANCH  14  21
ENDBRANCH   1  18
TORSDOF 4
ENDMDL
MODEL 6
REMARK VINA RESULT:      -6.0      3.335      6.710
REMARK  Name = 
REMARK  5 active torsions:
REMARK  status: ('A' for Active; 'I' for Inactive)
REMARK    1  A    between atoms: C_1  and  C_2
REMARK    2  A    between atoms: C_2  and  C_4
REMARK    3  A    between atoms: C_8  and  S_9
REMARK    4  A    between atoms: S_9  and  N_12
REMARK    5  A    between atoms: C_16  and  C_18
REMARK                            x       y       z     vdW  Elec       q    Type
REMARK                         _______ _______ _______ _____ _____    ______ ____
ROOT
ATOM      1  S   UNL     1       7.826  -0.887  24.062  0.00  0.00    +0.000 S 
ATOM      2  O   UNL     1       7.131  -0.847  22.791  0.00  0.00    +0.000 OA
ATOM      3  O   UNL     1       7.534   0.076  25.098  0.00  0.00    +0.000 OA
ENDROOT
BRANCH   1   4
ATOM      4  N   UNL     1       9.516  -0.816  23.756  0.00  0.00    +0.000 NA
ATOM      5  C   UNL     1      10.027  -0.546  22.376  0.00  0.00    +0.000 C 
ATOM      6  C   UNL     1       9.862   0.923  21.941  0.00  0.00    +0.000 C 
ATOM      7  N   UNL     1       9.879   1.834  23.085  0.00  0.00    +0.000 N 
ATOM      8  C   UNL     1       8.951   2.842  23.359  0.00  0.00    +0.000 C 
ATOM      9  O   UNL     1       9.036   3.487  24.412  0.00  0.00    +0.000 OA
ATOM     10  C   UNL     1      10.757   1.383  24.163  0.00  0.00    +0.000 C 
ATOM     11  C   UNL     1      10.253   0.048  24.771  0.00  0.00    +0.000 C 
BRANCH   8  12
ATOM     12  C   UNL     1       7.818   3.091  22.370  0.00  0.00    +0.000 C 
ATOM     13 CL   UNL     1       6.263   2.510  23.005  0.00  0.00    +0.000 Cl
ENDBRANCH   8  12
ENDBRANCH   1   4
BRANCH   1  18
ATOM     14  C   UNL     1       6.713  -4.734  24.253  0.00  0.00    +0.000 A 
ATOM     15  C   UNL     1       7.343  -5.183  25.419  0.00  0.00    +0.000 A 
ATOM     16  C   UNL     1       8.007  -4.283  26.261  0.00  0.00    +0.000 A 
ATOM     17  C   UNL     1       8.145  -2.944  25.889  0.00  0.00    +0.000 A 
ATOM     18  C   UNL     1       7.545  -2.516  24.708  0.00  0.00    +0.000 A 
ATOM     19  C   UNL     1       6.726  -3.373  23.965  0.00  0.00    +0.000 A 
BRANCH  14  21
ATOM     20  C   UNL     1       6.972  -5.965  21.974  0.00  0.00    +0.000 C 
ATOM     21  C   UNL     1       6.220  -5.728  23.260  0.00  0.00    +0.000 C 
ATOM     22  O   UNL     1       5.205  -6.370  23.527  0.00  0.00    +0.000 OA
ENDBRANCH  14  21
ENDBRANCH   1  18
TORSDOF 4
ENDMDL
MODEL 7
REMARK VINA RESULT:      -6.0      2.695      3.534
REMARK  Name = 
REMARK  5 active torsions:
REMARK  status: ('A' for Active; 'I' for Inactive)
REMARK    1  A    between atoms: C_1  and  C_2
REMARK    2  A    between atoms: C_2  and  C_4
REMARK    3  A    between atoms: C_8  and  S_9
REMARK    4  A    between atoms: S_9  and  N_12
REMARK    5  A    between atoms: C_16  and  C_18
REMARK                            x       y       z     vdW  Elec       q    Type
REMARK                         _______ _______ _______ _____ _____    ______ ____
ROOT
ATOM      1  S   UNL     1       6.570  -2.414  22.759  0.00  0.00    +0.000 S 
ATOM      2  O   UNL     1       6.174  -2.014  24.095  0.00  0.00    +0.000 OA
ATOM      3  O   UNL     1       5.585  -2.615  21.722  0.00  0.00    +0.000 OA
ENDROOT
BRANCH   1   4
ATOM      4  N   UNL     1       7.494  -3.859  22.879  0.00  0.00    +0.000 NA
ATOM      5  C   UNL     1       7.722  -4.506  24.209  0.00  0.00    +0.000 C 
ATOM      6  C   UNL     1       6.476  -5.228  24.757  0.00  0.00    +0.000 C 
ATOM      7  N   UNL     1       5.602  -5.697  23.683  0.00  0.00    +0.000 N 
ATOM      8  C   UNL     1       4.224  -5.492  23.583  0.00  0.00    +0.000 C 
ATOM      9  O   UNL     1       3.616  -5.872  22.574  0.00  0.00    +0.000 OA
ATOM     10  C   UNL     1       6.335  -6.105  22.486  0.00  0.00    +0.000 C 
ATOM     11  C   UNL     1       7.076  -4.901  21.849  0.00  0.00    +0.000 C 
BRANCH   8  12
ATOM     12  C   UNL     1       3.504  -4.756  24.708  0.00  0.00    +0.000 C 
ATOM     13 CL   UNL     1       1.764  -4.607  24.375  0.00  0.00    +0.000 Cl
ENDBRANCH   8  12
ENDBRANCH   1   4
BRANCH   1  18
ATOM     14  C   UNL     1       8.153   1.182  21.958  0.00  0.00    +0.000 A 
ATOM     15  C   UNL     1       9.503   0.887  21.741  0.00  0.00    +0.000 A 
ATOM     16  C   UNL     1       9.941  -0.442  21.689  0.00  0.00    +0.000 A 
ATOM     17  C   UNL     1       9.056  -1.486  21.965  0.00  0.00    +0.000 A 
ATOM     18  C   UNL     1       7.721  -1.178  22.215  0.00  0.00    +0.000 A 
ATOM     19  C   UNL     1       7.248   0.133  22.083  0.00  0.00    +0.000 A 
BRANCH  14  21
ATOM     20  C   UNL     1       8.540   3.431  23.211  0.00  0.00    +0.000 C 
ATOM     21  C   UNL     1       7.749   2.587  22.244  0.00  0.00    +0.000 C 
ATOM     22  O   UNL     1       6.776   3.049  21.649  0.00  0.00    +0.000 OA
ENDBRANCH  14  21
ENDBRANCH   1  18
TORSDOF 4
ENDMDL
MODEL 8
REMARK VINA RESULT:      -5.9      2.976      3.967
REMARK  Name = 
REMARK  5 active torsions:
REMARK  status: ('A' for Active; 'I' for Inactive)
REMARK    1  A    between atoms: C_1  and  C_2
REMARK    2  A    between atoms: C_2  and  C_4
REMARK    3  A    between atoms: C_8  and  S_9
REMARK    4  A    between atoms: S_9  and  N_12
REMARK    5  A    between atoms: C_16  and  C_18
REMARK                            x       y       z     vdW  Elec       q    Type
REMARK                         _______ _______ _______ _____ _____    ______ ____
ROOT
ATOM      1  S   UNL     1       8.043  -1.623  23.315  0.00  0.00    +0.000 S 
ATOM      2  O   UNL     1       6.666  -1.171  23.368  0.00  0.00    +0.000 OA
ATOM      3  O   UNL     1       8.523  -2.408  22.202  0.00  0.00    +0.000 OA
ENDROOT
BRANCH   1   4
ATOM      4  N   UNL     1       8.377  -2.506  24.751  0.00  0.00    +0.000 NA
ATOM      5  C   UNL     1       7.269  -2.892  25.680  0.00  0.00    +0.000 C 
ATOM      6  C   UNL     1       6.398  -4.044  25.145  0.00  0.00    +0.000 C 
ATOM      7  N   UNL     1       7.148  -4.924  24.249  0.00  0.00    +0.000 N 
ATOM      8  C   UNL     1       6.753  -5.349  22.978  0.00  0.00    +0.000 C 
ATOM      9  O   UNL     1       7.525  -6.026  22.288  0.00  0.00    +0.000 OA
ATOM     10  C   UNL     1       8.555  -5.055  24.622  0.00  0.00    +0.000 C 
ATOM     11  C   UNL     1       9.293  -3.697  24.498  0.00  0.00    +0.000 C 
BRANCH   8  12
ATOM     12  C   UNL     1       5.389  -4.923  22.449  0.00  0.00    +0.000 C 
ATOM     13 CL   UNL     1       4.097  -5.978  23.063  0.00  0.00    +0.000 Cl
ENDBRANCH   8  12
ENDBRANCH   1   4
BRANCH   1  18
ATOM     14  C   UNL     1       9.089   2.247  23.203  0.00  0.00    +0.000 A 
ATOM     15  C   UNL     1      10.301   2.262  23.902  0.00  0.00    +0.000 A 
ATOM     16  C   UNL     1      10.907   1.064  24.301  0.00  0.00    +0.000 A 
ATOM     17  C   UNL     1      10.254  -0.154  24.105  0.00  0.00    +0.000 A 
ATOM     18  C   UNL     1       9.030  -0.154  23.440  0.00  0.00    +0.000 A 
ATOM     19  C   UNL     1       8.517   1.021  22.878  0.00  0.00    +0.000 A 
BRANCH  14  21
ATOM     20  C   UNL     1       7.087   3.552  22.171  0.00  0.00    +0.000 C 
ATOM     21  C   UNL     1       8.348   3.522  22.997  0.00  0.00    +0.000 C 
ATOM     22  O   UNL     1       8.773   4.541  23.542  0.00  0.00    +0.000 OA
ENDBRANCH  14  21
ENDBRANCH   1  18
TORSDOF 4
ENDMDL
MODEL 9
REMARK VINA RESULT:      -5.9      2.951      7.091
REMARK  Name = 
REMARK  5 active torsions:
REMARK  status: ('A' for Active; 'I' for Inactive)
REMARK    1  A    between atoms: C_1  and  C_2
REMARK    2  A    between atoms: C_2  and  C_4
REMARK    3  A    between atoms: C_8  and  S_9
REMARK    4  A    between atoms: S_9  and  N_12
REMARK    5  A    between atoms: C_16  and  C_18
REMARK                            x       y       z     vdW  Elec       q    Type
REMARK                         _______ _______ _______ _____ _____    ______ ____
ROOT
ATOM      1  S   UNL     1       6.997  -2.706  23.725  0.00  0.00    +0.000 S 
ATOM      2  O   UNL     1       7.378  -2.940  22.346  0.00  0.00    +0.000 OA
ATOM      3  O   UNL     1       6.106  -1.626  24.077  0.00  0.00    +0.000 OA
ENDROOT
BRANCH   1   4
ATOM      4  N   UNL     1       8.430  -2.514  24.655  0.00  0.00    +0.000 NA
ATOM      5  C   UNL     1       9.765  -2.864  24.075  0.00  0.00    +0.000 C 
ATOM      6  C   UNL     1      10.268  -1.838  23.042  0.00  0.00    +0.000 C 
ATOM      7  N   UNL     1       9.740  -0.500  23.301  0.00  0.00    +0.000 N 
ATOM      8  C   UNL     1       9.124   0.345  22.375  0.00  0.00    +0.000 C 
ATOM      9  O   UNL     1       8.644   1.423  22.749  0.00  0.00    +0.000 OA
ATOM     10  C   UNL     1       9.562  -0.221  24.725  0.00  0.00    +0.000 C 
ATOM     11  C   UNL     1       8.494  -1.158  25.347  0.00  0.00    +0.000 C 
BRANCH   8  12
ATOM     12  C   UNL     1       9.015  -0.106  20.923  0.00  0.00    +0.000 C 
ATOM     13 CL   UNL     1       7.536   0.517  20.160  0.00  0.00    +0.000 Cl
ENDBRANCH   8  12
ENDBRANCH   1   4
BRANCH   1  18
ATOM     14  C   UNL     1       5.895  -5.684  26.175  0.00  0.00    +0.000 A 
ATOM     15  C   UNL     1       4.958  -6.387  25.408  0.00  0.00    +0.000 A 
ATOM     16  C   UNL     1       4.746  -6.055  24.065  0.00  0.00    +0.000 A 
ATOM     17  C   UNL     1       5.384  -4.947  23.505  0.00  0.00    +0.000 A 
ATOM     18  C   UNL     1       6.287  -4.233  24.287  0.00  0.00    +0.000 A 
ATOM     19  C   UNL     1       6.637  -4.676  25.568  0.00  0.00    +0.000 A 
BRANCH  14  21
ATOM     20  C   UNL     1       5.035  -6.906  28.306  0.00  0.00    +0.000 C 
ATOM     21  C   UNL     1       5.937  -5.892  27.649  0.00  0.00    +0.000 C 
ATOM     22  O   UNL     1       6.745  -5.240  28.310  0.00  0.00    +0.000 OA
ENDBRANCH  14  21
ENDBRANCH   1  18
TORSDOF 4
ENDMDL
