MODEL 1
REMARK VINA RESULT:      -6.8      0.000      0.000
REMARK  Name = 
REMARK  4 active torsions:
REMARK  status: ('A' for Active; 'I' for Inactive)
REMARK    1  A    between atoms: C_2  and  C_3
REMARK    2  A    between atoms: C_2  and  N_5
REMARK    3  A    between atoms: N_8  and  S_9
REMARK    4  A    between atoms: S_9  and  C_12
REMARK                            x       y       z     vdW  Elec       q    Type
REMARK                         _______ _______ _______ _____ _____    ______ ____
ROOT
ATOM      1  S   UNL     1       8.393  -2.046  22.699  0.00  0.00    +0.000 S 
ATOM      2  O   UNL     1       9.715  -2.149  22.159  0.00  0.00    +0.000 OA
ATOM      3  O   UNL     1       7.294  -2.274  21.801  0.00  0.00    +0.000 OA
ENDROOT
BRANCH   1   4
ATOM      4  C   UNL     1       8.220  -3.122  24.113  0.00  0.00    +0.000 C 
ATOM      5  C   UNL     1       9.315  -3.763  24.643  0.00  0.00    +0.000 C 
ATOM      6  C   UNL     1       9.149  -4.583  25.753  0.00  0.00    +0.000 C 
ATOM      7  C   UNL     1       7.894  -4.751  26.310  0.00  0.00    +0.000 C 
ATOM      8  C   UNL     1       6.784  -4.093  25.758  0.00  0.00    +0.000 C 
ATOM      9  C   UNL     1       6.953  -3.276  24.658  0.00  0.00    +0.000 C 
ATOM     10  O   UNL     1       5.519  -4.239  26.278  0.00  0.00    +0.000 OA
ATOM     11  C   UNL     1       5.452  -5.057  27.386  0.00  0.00    +0.000 C 
ATOM     12  C   UNL     1       6.499  -5.674  27.909  0.00  0.00    +0.000 C 
ATOM     13  O   UNL     1       7.778  -5.569  27.405  0.00  0.00    +0.000 OA
ENDBRANCH   1   4
BRANCH   1  17
ATOM     14  N   UNL     1       8.082   0.912  21.225  0.00  0.00    +0.000 NA
ATOM     15  C   UNL     1       9.448   0.694  21.661  0.00  0.00    +0.000 C 
ATOM     16  C   UNL     1       9.455   0.295  23.147  0.00  0.00    +0.000 C 
ATOM     17  N   UNL     1       8.311  -0.538  23.457  0.00  0.00    +0.000 NA
ATOM     18  C   UNL     1       7.038   0.139  23.272  0.00  0.00    +0.000 C 
ATOM     19  C   UNL     1       7.174   1.303  22.281  0.00  0.00    +0.000 C 
BRANCH  14  21
ATOM     20  O   UNL     1       8.147  -0.190  19.267  0.00  0.00    +0.000 OA
ATOM     21  C   UNL     1       7.547   0.527  20.044  0.00  0.00    +0.000 C 
BRANCH  21  22
ATOM     22  C   UNL     1       6.136   0.986  19.728  0.00  0.00    +0.000 C 
ATOM     23 CL   UNL     1       5.561   0.351  18.172  0.00  0.00    +0.000 Cl
ENDBRANCH  21  22
ENDBRANCH  14  21
ENDBRANCH   1  17
TORSDOF 4
ENDMDL
MODEL 2
REMARK VINA RESULT:      -6.6      1.684      2.398
REMARK  Name = 
REMARK  4 active torsions:
REMARK  status: ('A' for Active; 'I' for Inactive)
REMARK    1  A    between atoms: C_2  and  C_3
REMARK    2  A    between atoms: C_2  and  N_5
REMARK    3  A    between atoms: N_8  and  S_9
REMARK    4  A    between atoms: S_9  and  C_12
REMARK                            x       y       z     vdW  Elec       q    Type
REMARK                         _______ _______ _______ _____ _____    ______ ____
ROOT
ATOM      1  S   UNL     1       8.336  -3.091  24.014  0.00  0.00    +0.000 S 
ATOM      2  O   UNL     1       9.712  -3.435  24.214  0.00  0.00    +0.000 OA
ATOM      3  O   UNL     1       7.877  -2.977  22.656  0.00  0.00    +0.000 OA
ENDROOT
BRANCH   1   4
ATOM      4  C   UNL     1       7.283  -4.236  24.889  0.00  0.00    +0.000 C 
ATOM      5  C   UNL     1       6.301  -4.933  24.223  0.00  0.00    +0.000 C 
ATOM      6  C   UNL     1       5.507  -5.827  24.931  0.00  0.00    +0.000 C 
ATOM      7  C   UNL     1       5.705  -6.008  26.288  0.00  0.00    +0.000 C 
ATOM      8  C   UNL     1       6.709  -5.289  26.956  0.00  0.00    +0.000 C 
ATOM      9  C   UNL     1       7.498  -4.404  26.249  0.00  0.00    +0.000 C 
ATOM     10  O   UNL     1       6.933  -5.436  28.305  0.00  0.00    +0.000 OA
ATOM     11  C   UNL     1       6.110  -6.355  28.921  0.00  0.00    +0.000 C 
ATOM     12  C   UNL     1       5.167  -7.035  28.291  0.00  0.00    +0.000 C 
ATOM     13  O   UNL     1       4.898  -6.903  26.945  0.00  0.00    +0.000 OA
ENDBRANCH   1   4
BRANCH   1  17
ATOM     14  N   UNL     1       9.075   0.020  23.120  0.00  0.00    +0.000 NA
ATOM     15  C   UNL     1      10.040  -0.485  24.077  0.00  0.00    +0.000 C 
ATOM     16  C   UNL     1       9.302  -1.042  25.307  0.00  0.00    +0.000 C 
ATOM     17  N   UNL     1       8.067  -1.686  24.912  0.00  0.00    +0.000 NA
ATOM     18  C   UNL     1       7.112  -0.776  24.301  0.00  0.00    +0.000 C 
ATOM     19  C   UNL     1       7.823   0.447  23.705  0.00  0.00    +0.000 C 
BRANCH  14  21
ATOM     20  O   UNL     1       9.856  -0.942  21.245  0.00  0.00    +0.000 OA
ATOM     21  C   UNL     1       9.124  -0.131  21.777  0.00  0.00    +0.000 C 
BRANCH  21  22
ATOM     22  C   UNL     1       8.191   0.724  20.939  0.00  0.00    +0.000 C 
ATOM     23 CL   UNL     1       7.813  -0.036  19.379  0.00  0.00    +0.000 Cl
ENDBRANCH  21  22
ENDBRANCH  14  21
ENDBRANCH   1  17
TORSDOF 4
ENDMDL
MODEL 3
REMARK VINA RESULT:      -6.6      1.526      1.789
REMARK  Name = 
REMARK  4 active torsions:
REMARK  status: ('A' for Active; 'I' for Inactive)
REMARK    1  A    between atoms: C_2  and  C_3
REMARK    2  A    between atoms: C_2  and  N_5
REMARK    3  A    between atoms: N_8  and  S_9
REMARK    4  A    between atoms: S_9  and  C_12
REMARK                            x       y       z     vdW  Elec       q    Type
REMARK                         _______ _______ _______ _____ _____    ______ ____
ROOT
ATOM      1  S   UNL     1       7.656  -2.302  23.677  0.00  0.00    +0.000 S 
ATOM      2  O   UNL     1       7.853  -2.993  22.439  0.00  0.00    +0.000 OA
ATOM      3  O   UNL     1       6.562  -1.371  23.745  0.00  0.00    +0.000 OA
ENDROOT
BRANCH   1   4
ATOM      4  C   UNL     1       7.509  -3.471  25.018  0.00  0.00    +0.000 C 
ATOM      5  C   UNL     1       8.409  -4.501  25.150  0.00  0.00    +0.000 C 
ATOM      6  C   UNL     1       8.275  -5.387  26.213  0.00  0.00    +0.000 C 
ATOM      7  C   UNL     1       7.244  -5.228  27.123  0.00  0.00    +0.000 C 
ATOM      8  C   UNL     1       6.330  -4.173  26.975  0.00  0.00    +0.000 C 
ATOM      9  C   UNL     1       6.469  -3.294  25.919  0.00  0.00    +0.000 C 
ATOM     10  O   UNL     1       5.288  -3.985  27.852  0.00  0.00    +0.000 OA
ATOM     11  C   UNL     1       5.242  -4.899  28.884  0.00  0.00    +0.000 C 
ATOM     12  C   UNL     1       6.106  -5.891  29.025  0.00  0.00    +0.000 C 
ATOM     13  O   UNL     1       7.152  -6.125  28.156  0.00  0.00    +0.000 OA
ENDBRANCH   1   4
BRANCH   1  17
ATOM     14  N   UNL     1       9.115   0.234  22.106  0.00  0.00    +0.000 NA
ATOM     15  C   UNL     1       9.738  -1.025  21.744  0.00  0.00    +0.000 C 
ATOM     16  C   UNL     1      10.128  -1.791  23.020  0.00  0.00    +0.000 C 
ATOM     17  N   UNL     1       9.140  -1.590  24.058  0.00  0.00    +0.000 NA
ATOM     18  C   UNL     1       9.030  -0.206  24.490  0.00  0.00    +0.000 C 
ATOM     19  C   UNL     1       9.522   0.751  23.395  0.00  0.00    +0.000 C 
BRANCH  14  21
ATOM     20  O   UNL     1       7.741   1.960  21.680  0.00  0.00    +0.000 OA
ATOM     21  C   UNL     1       8.034   0.792  21.515  0.00  0.00    +0.000 C 
BRANCH  21  22
ATOM     22  C   UNL     1       7.208  -0.081  20.589  0.00  0.00    +0.000 C 
ATOM     23 CL   UNL     1       7.544   0.258  18.879  0.00  0.00    +0.000 Cl
ENDBRANCH  21  22
ENDBRANCH  14  21
ENDBRANCH   1  17
TORSDOF 4
ENDMDL
MODEL 4
REMARK VINA RESULT:      -6.5      1.519      1.770
REMARK  Name = 
REMARK  4 active torsions:
REMARK  status: ('A' for Active; 'I' for Inactive)
REMARK    1  A    between atoms: C_2  and  C_3
REMARK    2  A    between atoms: C_2  and  N_5
REMARK    3  A    between atoms: N_8  and  S_9
REMARK    4  A    between atoms: S_9  and  C_12
REMARK                            x       y       z     vdW  Elec       q    Type
REMARK                         _______ _______ _______ _____ _____    ______ ____
ROOT
ATOM      1  S   UNL     1       8.709  -2.697  23.877  0.00  0.00    +0.000 S 
ATOM      2  O   UNL     1      10.122  -2.929  23.865  0.00  0.00    +0.000 OA
ATOM      3  O   UNL     1       8.031  -2.693  22.609  0.00  0.00    +0.000 OA
ENDROOT
BRANCH   1   4
ATOM      4  C   UNL     1       7.904  -3.865  24.961  0.00  0.00    +0.000 C 
ATOM      5  C   UNL     1       8.527  -4.302  26.106  0.00  0.00    +0.000 C 
ATOM      6  C   UNL     1       7.868  -5.200  26.936  0.00  0.00    +0.000 C 
ATOM      7  C   UNL     1       6.600  -5.648  26.607  0.00  0.00    +0.000 C 
ATOM      8  C   UNL     1       5.976  -5.196  25.434  0.00  0.00    +0.000 C 
ATOM      9  C   UNL     1       6.633  -4.300  24.614  0.00  0.00    +0.000 C 
ATOM     10  O   UNL     1       4.720  -5.622  25.068  0.00  0.00    +0.000 OA
ATOM     11  C   UNL     1       4.136  -6.498  25.958  0.00  0.00    +0.000 C 
ATOM     12  C   UNL     1       4.723  -6.921  27.066  0.00  0.00    +0.000 C 
ATOM     13  O   UNL     1       5.987  -6.533  27.457  0.00  0.00    +0.000 OA
ENDBRANCH   1   4
BRANCH   1  17
ATOM     14  N   UNL     1       8.959   0.404  22.719  0.00  0.00    +0.000 NA
ATOM     15  C   UNL     1      10.130   0.047  23.496  0.00  0.00    +0.000 C 
ATOM     16  C   UNL     1       9.692  -0.493  24.868  0.00  0.00    +0.000 C 
ATOM     17  N   UNL     1       8.474  -1.268  24.745  0.00  0.00    +0.000 NA
ATOM     18  C   UNL     1       7.337  -0.486  24.286  0.00  0.00    +0.000 C 
ATOM     19  C   UNL     1       7.802   0.755  23.511  0.00  0.00    +0.000 C 
BRANCH  14  21
ATOM     20  O   UNL     1       9.478  -0.592  20.771  0.00  0.00    +0.000 OA
ATOM     21  C   UNL     1       8.773   0.174  21.399  0.00  0.00    +0.000 C 
BRANCH  21  22
ATOM     22  C   UNL     1       7.611   0.874  20.720  0.00  0.00    +0.000 C 
ATOM     23 CL   UNL     1       7.428   0.373  19.026  0.00  0.00    +0.000 Cl
ENDBRANCH  21  22
ENDBRANCH  14  21
ENDBRANCH   1  17
TORSDOF 4
ENDMDL
MODEL 5
REMARK VINA RESULT:      -6.4      3.066      3.872
REMARK  Name = 
REMARK  4 active torsions:
REMARK  status: ('A' for Active; 'I' for Inactive)
REMARK    1  A    between atoms: C_2  and  C_3
REMARK    2  A    between atoms: C_2  and  N_5
REMARK    3  A    between atoms: N_8  and  S_9
REMARK    4  A    between atoms: S_9  and  C_12
REMARK                            x       y       z     vdW  Elec       q    Type
REMARK                         _______ _______ _______ _____ _____    ______ ____
ROOT
ATOM      1  S   UNL     1       7.624  -3.777  23.657  0.00  0.00    +0.000 S 
ATOM      2  O   UNL     1       8.869  -4.265  24.168  0.00  0.00    +0.000 OA
ATOM      3  O   UNL     1       7.551  -3.507  22.247  0.00  0.00    +0.000 OA
ENDROOT
BRANCH   1   4
ATOM      4  C   UNL     1       6.298  -4.886  24.104  0.00  0.00    +0.000 C 
ATOM      5  C   UNL     1       6.322  -5.557  25.304  0.00  0.00    +0.000 C 
ATOM      6  C   UNL     1       5.267  -6.402  25.629  0.00  0.00    +0.000 C 
ATOM      7  C   UNL     1       4.211  -6.564  24.749  0.00  0.00    +0.000 C 
ATOM      8  C   UNL     1       4.200  -5.875  23.526  0.00  0.00    +0.000 C 
ATOM      9  C   UNL     1       5.248  -5.034  23.209  0.00  0.00    +0.000 C 
ATOM     10  O   UNL     1       3.173  -6.014  22.622  0.00  0.00    +0.000 OA
ATOM     11  C   UNL     1       2.164  -6.858  23.035  0.00  0.00    +0.000 C 
ATOM     12  C   UNL     1       2.172  -7.505  24.189  0.00  0.00    +0.000 C 
ATOM     13  O   UNL     1       3.192  -7.408  25.113  0.00  0.00    +0.000 OA
ENDBRANCH   1   4
BRANCH   1  17
ATOM     14  N   UNL     1       9.111  -0.809  23.630  0.00  0.00    +0.000 NA
ATOM     15  C   UNL     1       9.519  -1.581  24.789  0.00  0.00    +0.000 C 
ATOM     16  C   UNL     1       8.272  -2.086  25.534  0.00  0.00    +0.000 C 
ATOM     17  N   UNL     1       7.223  -2.433  24.598  0.00  0.00    +0.000 NA
ATOM     18  C   UNL     1       6.744  -1.300  23.824  0.00  0.00    +0.000 C 
ATOM     19  C   UNL     1       7.807  -0.195  23.752  0.00  0.00    +0.000 C 
BRANCH  14  21
ATOM     20  O   UNL     1      10.404  -1.756  22.054  0.00  0.00    +0.000 OA
ATOM     21  C   UNL     1       9.678  -0.846  22.403  0.00  0.00    +0.000 C 
BRANCH  21  22
ATOM     22  C   UNL     1       9.343   0.278  21.440  0.00  0.00    +0.000 C 
ATOM     23 CL   UNL     1      10.113   1.808  21.906  0.00  0.00    +0.000 Cl
ENDBRANCH  21  22
ENDBRANCH  14  21
ENDBRANCH   1  17
TORSDOF 4
ENDMDL
MODEL 6
REMARK VINA RESULT:      -6.3      3.032      3.636
REMARK  Name = 
REMARK  4 active torsions:
REMARK  status: ('A' for Active; 'I' for Inactive)
REMARK    1  A    between atoms: C_2  and  C_3
REMARK    2  A    between atoms: C_2  and  N_5
REMARK    3  A    between atoms: N_8  and  S_9
REMARK    4  A    between atoms: S_9  and  C_12
REMARK                            x       y       z     vdW  Elec       q    Type
REMARK                         _______ _______ _______ _____ _____    ______ ____
ROOT
ATOM      1  S   UNL     1       7.262  -1.468  22.995  0.00  0.00    +0.000 S 
ATOM      2  O   UNL     1       7.127  -1.266  21.585  0.00  0.00    +0.000 OA
ATOM      3  O   UNL     1       6.730  -0.451  23.861  0.00  0.00    +0.000 OA
ENDROOT
BRANCH   1   4
ATOM      4  C   UNL     1       6.568  -3.046  23.460  0.00  0.00    +0.000 C 
ATOM      5  C   UNL     1       7.281  -3.919  24.248  0.00  0.00    +0.000 C 
ATOM      6  C   UNL     1       6.707  -5.134  24.604  0.00  0.00    +0.000 C 
ATOM      7  C   UNL     1       5.435  -5.456  24.164  0.00  0.00    +0.000 C 
ATOM      8  C   UNL     1       4.719  -4.557  23.358  0.00  0.00    +0.000 C 
ATOM      9  C   UNL     1       5.291  -3.349  23.010  0.00  0.00    +0.000 C 
ATOM     10  O   UNL     1       3.456  -4.842  22.895  0.00  0.00    +0.000 OA
ATOM     11  C   UNL     1       2.960  -6.060  23.311  0.00  0.00    +0.000 C 
ATOM     12  C   UNL     1       3.633  -6.905  24.074  0.00  0.00    +0.000 C 
ATOM     13  O   UNL     1       4.909  -6.665  24.542  0.00  0.00    +0.000 OA
ENDBRANCH   1   4
BRANCH   1  17
ATOM     14  N   UNL     1       9.756   0.707  22.730  0.00  0.00    +0.000 NA
ATOM     15  C   UNL     1       9.722  -0.181  21.584  0.00  0.00    +0.000 C 
ATOM     16  C   UNL     1       9.693  -1.642  22.067  0.00  0.00    +0.000 C 
ATOM     17  N   UNL     1       8.901  -1.765  23.273  0.00  0.00    +0.000 NA
ATOM     18  C   UNL     1       9.447  -1.025  24.399  0.00  0.00    +0.000 C 
ATOM     19  C   UNL     1      10.342   0.126  23.918  0.00  0.00    +0.000 C 
BRANCH  14  21
ATOM     20  O   UNL     1       8.059   2.095  22.233  0.00  0.00    +0.000 OA
ATOM     21  C   UNL     1       9.070   1.864  22.868  0.00  0.00    +0.000 C 
BRANCH  21  22
ATOM     22  C   UNL     1       9.579   2.867  23.886  0.00  0.00    +0.000 C 
ATOM     23 CL   UNL     1      11.125   3.589  23.395  0.00  0.00    +0.000 Cl
ENDBRANCH  21  22
ENDBRANCH  14  21
ENDBRANCH   1  17
TORSDOF 4
ENDMDL
MODEL 7
REMARK VINA RESULT:      -6.2      3.951      7.588
REMARK  Name = 
REMARK  4 active torsions:
REMARK  status: ('A' for Active; 'I' for Inactive)
REMARK    1  A    between atoms: C_2  and  C_3
REMARK    2  A    between atoms: C_2  and  N_5
REMARK    3  A    between atoms: N_8  and  S_9
REMARK    4  A    between atoms: S_9  and  C_12
REMARK                            x       y       z     vdW  Elec       q    Type
REMARK                         _______ _______ _______ _____ _____    ______ ____
ROOT
ATOM      1  S   UNL     1       6.478  -4.091  23.841  0.00  0.00    +0.000 S 
ATOM      2  O   UNL     1       7.125  -5.317  23.485  0.00  0.00    +0.000 OA
ATOM      3  O   UNL     1       6.645  -3.625  25.191  0.00  0.00    +0.000 OA
ENDROOT
BRANCH   1   4
ATOM      4  C   UNL     1       6.959  -2.792  22.714  0.00  0.00    +0.000 C 
ATOM      5  C   UNL     1       8.108  -2.069  22.930  0.00  0.00    +0.000 C 
ATOM      6  C   UNL     1       8.462  -1.074  22.026  0.00  0.00    +0.000 C 
ATOM      7  C   UNL     1       7.662  -0.818  20.927  0.00  0.00    +0.000 C 
ATOM      8  C   UNL     1       6.490  -1.562  20.720  0.00  0.00    +0.000 C 
ATOM      9  C   UNL     1       6.144  -2.552  21.617  0.00  0.00    +0.000 C 
ATOM     10  O   UNL     1       5.664  -1.334  19.643  0.00  0.00    +0.000 OA
ATOM     11  C   UNL     1       6.102  -0.341  18.792  0.00  0.00    +0.000 C 
ATOM     12  C   UNL     1       7.209   0.357  18.985  0.00  0.00    +0.000 C 
ATOM     13  O   UNL     1       8.052   0.173  20.061  0.00  0.00    +0.000 OA
ENDBRANCH   1   4
BRANCH   1  17
ATOM     14  N   UNL     1       4.223  -6.004  25.350  0.00  0.00    +0.000 NA
ATOM     15  C   UNL     1       4.684  -6.622  24.121  0.00  0.00    +0.000 C 
ATOM     16  C   UNL     1       4.554  -5.618  22.962  0.00  0.00    +0.000 C 
ATOM     17  N   UNL     1       4.854  -4.276  23.413  0.00  0.00    +0.000 NA
ATOM     18  C   UNL     1       3.926  -3.785  24.419  0.00  0.00    +0.000 C 
ATOM     19  C   UNL     1       3.252  -4.949  25.159  0.00  0.00    +0.000 C 
BRANCH  14  21
ATOM     20  O   UNL     1       5.939  -6.509  26.711  0.00  0.00    +0.000 OA
ATOM     21  C   UNL     1       4.796  -6.120  26.569  0.00  0.00    +0.000 C 
BRANCH  21  22
ATOM     22  C   UNL     1       3.976  -5.702  27.775  0.00  0.00    +0.000 C 
ATOM     23 CL   UNL     1       2.754  -6.918  28.203  0.00  0.00    +0.000 Cl
ENDBRANCH  21  22
ENDBRANCH  14  21
ENDBRANCH   1  17
TORSDOF 4
ENDMDL
MODEL 8
REMARK VINA RESULT:      -6.1      3.486      6.892
REMARK  Name = 
REMARK  4 active torsions:
REMARK  status: ('A' for Active; 'I' for Inactive)
REMARK    1  A    between atoms: C_2  and  C_3
REMARK    2  A    between atoms: C_2  and  N_5
REMARK    3  A    between atoms: N_8  and  S_9
REMARK    4  A    between atoms: S_9  and  C_12
REMARK                            x       y       z     vdW  Elec       q    Type
REMARK                         _______ _______ _______ _____ _____    ______ ____
ROOT
ATOM      1  S   UNL     1       8.538  -1.456  23.148  0.00  0.00    +0.000 S 
ATOM      2  O   UNL     1       9.090  -1.877  21.897  0.00  0.00    +0.000 OA
ATOM      3  O   UNL     1       9.032  -2.097  24.337  0.00  0.00    +0.000 OA
ENDROOT
BRANCH   1   4
ATOM      4  C   UNL     1       8.705   0.312  23.331  0.00  0.00    +0.000 C 
ATOM      5  C   UNL     1       9.720   0.844  24.091  0.00  0.00    +0.000 C 
ATOM      6  C   UNL     1       9.831   2.225  24.202  0.00  0.00    +0.000 C 
ATOM      7  C   UNL     1       8.927   3.049  23.554  0.00  0.00    +0.000 C 
ATOM      8  C   UNL     1       7.894   2.493  22.783  0.00  0.00    +0.000 C 
ATOM      9  C   UNL     1       7.789   1.120  22.672  0.00  0.00    +0.000 C 
ATOM     10  O   UNL     1       6.972   3.276  22.129  0.00  0.00    +0.000 OA
ATOM     11  C   UNL     1       7.169   4.632  22.282  0.00  0.00    +0.000 C 
ATOM     12  C   UNL     1       8.145   5.156  23.005  0.00  0.00    +0.000 C 
ATOM     13  O   UNL     1       9.077   4.406  23.691  0.00  0.00    +0.000 OA
ENDBRANCH   1   4
BRANCH   1  17
ATOM     14  N   UNL     1       6.711  -4.209  23.468  0.00  0.00    +0.000 NA
ATOM     15  C   UNL     1       6.883  -3.864  22.071  0.00  0.00    +0.000 C 
ATOM     16  C   UNL     1       6.479  -2.395  21.851  0.00  0.00    +0.000 C 
ATOM     17  N   UNL     1       6.861  -1.585  22.989  0.00  0.00    +0.000 NA
ATOM     18  C   UNL     1       6.185  -1.964  24.220  0.00  0.00    +0.000 C 
ATOM     19  C   UNL     1       5.712  -3.424  24.159  0.00  0.00    +0.000 C 
BRANCH  14  21
ATOM     20  O   UNL     1       8.598  -5.392  23.776  0.00  0.00    +0.000 OA
ATOM     21  C   UNL     1       7.551  -4.959  24.217  0.00  0.00    +0.000 C 
BRANCH  21  22
ATOM     22  C   UNL     1       7.169  -5.213  25.664  0.00  0.00    +0.000 C 
ATOM     23 CL   UNL     1       8.435  -4.684  26.791  0.00  0.00    +0.000 Cl
ENDBRANCH  21  22
ENDBRANCH  14  21
ENDBRANCH   1  17
TORSDOF 4
ENDMDL
MODEL 9
REMARK VINA RESULT:      -6.1      3.272      7.172
REMARK  Name = 
REMARK  4 active torsions:
REMARK  status: ('A' for Active; 'I' for Inactive)
REMARK    1  A    between atoms: C_2  and  C_3
REMARK    2  A    between atoms: C_2  and  N_5
REMARK    3  A    between atoms: N_8  and  S_9
REMARK    4  A    between atoms: S_9  and  C_12
REMARK                            x       y       z     vdW  Elec       q    Type
REMARK                         _______ _______ _______ _____ _____    ______ ____
ROOT
ATOM      1  S   UNL     1       7.910  -2.288  24.494  0.00  0.00    +0.000 S 
ATOM      2  O   UNL     1       8.812  -1.649  25.404  0.00  0.00    +0.000 OA
ATOM      3  O   UNL     1       6.557  -2.489  24.939  0.00  0.00    +0.000 OA
ENDROOT
BRANCH   1   4
ATOM      4  C   UNL     1       7.885  -1.415  22.937  0.00  0.00    +0.000 C 
ATOM      5  C   UNL     1       8.878  -0.518  22.622  0.00  0.00    +0.000 C 
ATOM      6  C   UNL     1       8.837   0.135  21.396  0.00  0.00    +0.000 C 
ATOM      7  C   UNL     1       7.805  -0.117  20.509  0.00  0.00    +0.000 C 
ATOM      8  C   UNL     1       6.796  -1.033  20.844  0.00  0.00    +0.000 C 
ATOM      9  C   UNL     1       6.842  -1.683  22.061  0.00  0.00    +0.000 C 
ATOM     10  O   UNL     1       5.750  -1.306  19.994  0.00  0.00    +0.000 OA
ATOM     11  C   UNL     1       5.800  -0.626  18.795  0.00  0.00    +0.000 C 
ATOM     12  C   UNL     1       6.753   0.235  18.478  0.00  0.00    +0.000 C 
ATOM     13  O   UNL     1       7.807   0.550  19.310  0.00  0.00    +0.000 OA
ENDBRANCH   1   4
BRANCH   1  17
ATOM     14  N   UNL     1       7.827  -5.198  26.089  0.00  0.00    +0.000 NA
ATOM     15  C   UNL     1       9.096  -4.530  26.301  0.00  0.00    +0.000 C 
ATOM     16  C   UNL     1       9.700  -4.132  24.943  0.00  0.00    +0.000 C 
ATOM     17  N   UNL     1       8.659  -3.726  24.021  0.00  0.00    +0.000 NA
ATOM     18  C   UNL     1       7.725  -4.793  23.701  0.00  0.00    +0.000 C 
ATOM     19  C   UNL     1       7.707  -5.857  24.807  0.00  0.00    +0.000 C 
BRANCH  14  21
ATOM     20  O   UNL     1       6.645  -4.247  27.747  0.00  0.00    +0.000 OA
ATOM     21  C   UNL     1       6.701  -5.030  26.820  0.00  0.00    +0.000 C 
BRANCH  21  22
ATOM     22  C   UNL     1       5.475  -5.827  26.416  0.00  0.00    +0.000 C 
ATOM     23 CL   UNL     1       4.948  -6.935  27.699  0.00  0.00    +0.000 Cl
ENDBRANCH  21  22
ENDBRANCH  14  21
ENDBRANCH   1  17
TORSDOF 4
ENDMDL
