MODEL 1
REMARK VINA RESULT:      -6.5      0.000      0.000
REMARK  Name = 
REMARK  3 active torsions:
REMARK  status: ('A' for Active; 'I' for Inactive)
REMARK    1  A    between atoms: C_2  and  C_3
REMARK    2  A    between atoms: N_8  and  S_9
REMARK    3  A    between atoms: S_9  and  C_12
REMARK                            x       y       z     vdW  Elec       q    Type
REMARK                         _______ _______ _______ _____ _____    ______ ____
ROOT
ATOM      1  O   UNL     1      10.067  -3.408  24.147  0.00  0.00    +0.000 OA
ATOM      2  C   UNL     1       8.866  -3.136  24.085  0.00  0.00    +0.000 C 
ATOM      3  N   UNL     1       8.367  -1.958  24.642  0.00  0.00    +0.000 N 
ATOM      4  C   UNL     1       9.312  -0.877  24.975  0.00  0.00    +0.000 C 
ATOM      5  C   UNL     1       8.807   0.503  24.471  0.00  0.00    +0.000 C 
ATOM      6  N   UNL     1       8.021   0.361  23.218  0.00  0.00    +0.000 NA
ATOM      7  C   UNL     1       6.866  -0.578  23.304  0.00  0.00    +0.000 C 
ATOM      8  C   UNL     1       6.987  -1.490  24.536  0.00  0.00    +0.000 C 
ENDROOT
BRANCH   6   9
ATOM      9  S   UNL     1       8.691   0.753  21.711  0.00  0.00    +0.000 S 
ATOM     10  O   UNL     1       9.636  -0.288  21.371  0.00  0.00    +0.000 OA
ATOM     11  O   UNL     1       9.135   2.127  21.775  0.00  0.00    +0.000 OA
BRANCH   9  12
ATOM     12  C   UNL     1       7.315   0.673  20.586  0.00  0.00    +0.000 A 
ATOM     13  C   UNL     1       7.337  -0.318  19.594  0.00  0.00    +0.000 A 
ATOM     14  C   UNL     1       6.418  -0.282  18.543  0.00  0.00    +0.000 A 
ATOM     15  C   UNL     1       5.474   0.737  18.479  0.00  0.00    +0.000 A 
ATOM     16  C   UNL     1       5.376   1.650  19.526  0.00  0.00    +0.000 A 
ATOM     17  C   UNL     1       6.261   1.594  20.610  0.00  0.00    +0.000 A 
ATOM     18 CL   UNL     1       5.924   2.707  21.887  0.00  0.00    +0.000 Cl
ENDBRANCH   9  12
ENDBRANCH   6   9
BRANCH   2  19
ATOM     19  C   UNL     1       7.902  -4.099  23.402  0.00  0.00    +0.000 C 
ATOM     20 CL   UNL     1       7.106  -5.127  24.611  0.00  0.00    +0.000 Cl
ENDBRANCH   2  19
TORSDOF 3
ENDMDL
MODEL 2
REMARK VINA RESULT:      -6.4      2.321      3.292
REMARK  Name = 
REMARK  3 active torsions:
REMARK  status: ('A' for Active; 'I' for Inactive)
REMARK    1  A    between atoms: C_2  and  C_3
REMARK    2  A    between atoms: N_8  and  S_9
REMARK    3  A    between atoms: S_9  and  C_12
REMARK                            x       y       z     vdW  Elec       q    Type
REMARK                         _______ _______ _______ _____ _____    ______ ____
ROOT
ATOM      1  O   UNL     1       8.635  -4.638  23.832  0.00  0.00    +0.000 OA
ATOM      2  C   UNL     1       7.671  -4.429  23.091  0.00  0.00    +0.000 C 
ATOM      3  N   UNL     1       6.834  -3.332  23.294  0.00  0.00    +0.000 N 
ATOM      4  C   UNL     1       7.305  -2.231  24.153  0.00  0.00    +0.000 C 
ATOM      5  C   UNL     1       7.057  -0.844  23.498  0.00  0.00    +0.000 C 
ATOM      6  N   UNL     1       7.157  -0.926  22.018  0.00  0.00    +0.000 NA
ATOM      7  C   UNL     1       6.260  -1.932  21.381  0.00  0.00    +0.000 C 
ATOM      8  C   UNL     1       5.733  -2.936  22.420  0.00  0.00    +0.000 C 
ENDROOT
BRANCH   6   9
ATOM      9  S   UNL     1       8.534  -0.372  21.198  0.00  0.00    +0.000 S 
ATOM     10  O   UNL     1       8.176  -0.216  19.805  0.00  0.00    +0.000 OA
ATOM     11  O   UNL     1       9.634  -1.237  21.560  0.00  0.00    +0.000 OA
BRANCH   9  12
ATOM     12  C   UNL     1       8.845   1.234  21.898  0.00  0.00    +0.000 A 
ATOM     13  C   UNL     1      10.120   1.482  22.425  0.00  0.00    +0.000 A 
ATOM     14  C   UNL     1      10.353   2.623  23.196  0.00  0.00    +0.000 A 
ATOM     15  C   UNL     1       9.319   3.520  23.441  0.00  0.00    +0.000 A 
ATOM     16  C   UNL     1       8.088   3.335  22.819  0.00  0.00    +0.000 A 
ATOM     17  C   UNL     1       7.857   2.220  22.003  0.00  0.00    +0.000 A 
ATOM     18 CL   UNL     1       6.330   2.205  21.198  0.00  0.00    +0.000 Cl
ENDBRANCH   9  12
ENDBRANCH   6   9
BRANCH   2  19
ATOM     19  C   UNL     1       7.375  -5.385  21.941  0.00  0.00    +0.000 C 
ATOM     20 CL   UNL     1       6.042  -6.473  22.379  0.00  0.00    +0.000 Cl
ENDBRANCH   2  19
TORSDOF 3
ENDMDL
MODEL 3
REMARK VINA RESULT:      -6.2      2.725      4.484
REMARK  Name = 
REMARK  3 active torsions:
REMARK  status: ('A' for Active; 'I' for Inactive)
REMARK    1  A    between atoms: C_2  and  C_3
REMARK    2  A    between atoms: N_8  and  S_9
REMARK    3  A    between atoms: S_9  and  C_12
REMARK                            x       y       z     vdW  Elec       q    Type
REMARK                         _______ _______ _______ _____ _____    ______ ____
ROOT
ATOM      1  O   UNL     1       6.032   1.049  23.858  0.00  0.00    +0.000 OA
ATOM      2  C   UNL     1       7.156   1.538  23.723  0.00  0.00    +0.000 C 
ATOM      3  N   UNL     1       8.162   1.294  24.658  0.00  0.00    +0.000 N 
ATOM      4  C   UNL     1       7.998   0.170  25.597  0.00  0.00    +0.000 C 
ATOM      5  C   UNL     1       9.287  -0.693  25.692  0.00  0.00    +0.000 C 
ATOM      6  N   UNL     1      10.015  -0.712  24.398  0.00  0.00    +0.000 NA
ATOM      7  C   UNL     1      10.367   0.631  23.854  0.00  0.00    +0.000 C 
ATOM      8  C   UNL     1       9.549   1.736  24.543  0.00  0.00    +0.000 C 
ENDROOT
BRANCH   6   9
ATOM      9  S   UNL     1       9.940  -2.055  23.366  0.00  0.00    +0.000 S 
ATOM     10  O   UNL     1      10.174  -3.235  24.171  0.00  0.00    +0.000 OA
ATOM     11  O   UNL     1      10.794  -1.783  22.233  0.00  0.00    +0.000 OA
BRANCH   9  12
ATOM     12  C   UNL     1       8.256  -2.074  22.792  0.00  0.00    +0.000 A 
ATOM     13  C   UNL     1       7.331  -2.851  23.503  0.00  0.00    +0.000 A 
ATOM     14  C   UNL     1       6.063  -3.099  22.971  0.00  0.00    +0.000 A 
ATOM     15  C   UNL     1       5.714  -2.570  21.733  0.00  0.00    +0.000 A 
ATOM     16  C   UNL     1       6.588  -1.702  21.085  0.00  0.00    +0.000 A 
ATOM     17  C   UNL     1       7.842  -1.407  21.633  0.00  0.00    +0.000 A 
ATOM     18 CL   UNL     1       8.751  -0.212  20.780  0.00  0.00    +0.000 Cl
ENDBRANCH   9  12
ENDBRANCH   6   9
BRANCH   2  19
ATOM     19  C   UNL     1       7.457   2.434  22.527  0.00  0.00    +0.000 C 
ATOM     20 CL   UNL     1       6.209   2.229  21.282  0.00  0.00    +0.000 Cl
ENDBRANCH   2  19
TORSDOF 3
ENDMDL
MODEL 4
REMARK VINA RESULT:      -6.2      3.111      4.072
REMARK  Name = 
REMARK  3 active torsions:
REMARK  status: ('A' for Active; 'I' for Inactive)
REMARK    1  A    between atoms: C_2  and  C_3
REMARK    2  A    between atoms: N_8  and  S_9
REMARK    3  A    between atoms: S_9  and  C_12
REMARK                            x       y       z     vdW  Elec       q    Type
REMARK                         _______ _______ _______ _____ _____    ______ ____
ROOT
ATOM      1  O   UNL     1       7.365  -5.899  26.104  0.00  0.00    +0.000 OA
ATOM      2  C   UNL     1       6.539  -5.154  25.571  0.00  0.00    +0.000 C 
ATOM      3  N   UNL     1       6.492  -3.796  25.881  0.00  0.00    +0.000 N 
ATOM      4  C   UNL     1       7.648  -3.183  26.558  0.00  0.00    +0.000 C 
ATOM      5  C   UNL     1       8.061  -1.842  25.891  0.00  0.00    +0.000 C 
ATOM      6  N   UNL     1       7.794  -1.866  24.431  0.00  0.00    +0.000 NA
ATOM      7  C   UNL     1       6.386  -2.184  24.053  0.00  0.00    +0.000 C 
ATOM      8  C   UNL     1       5.628  -2.810  25.235  0.00  0.00    +0.000 C 
ENDROOT
BRANCH   6   9
ATOM      9  S   UNL     1       9.047  -2.089  23.311  0.00  0.00    +0.000 S 
ATOM     10  O   UNL     1       8.449  -2.547  22.075  0.00  0.00    +0.000 OA
ATOM     11  O   UNL     1      10.066  -2.891  23.951  0.00  0.00    +0.000 OA
BRANCH   9  12
ATOM     12  C   UNL     1       9.709  -0.457  23.062  0.00  0.00    +0.000 A 
ATOM     13  C   UNL     1      10.534   0.074  24.064  0.00  0.00    +0.000 A 
ATOM     14  C   UNL     1      10.886   1.426  24.043  0.00  0.00    +0.000 A 
ATOM     15  C   UNL     1      10.421   2.249  23.023  0.00  0.00    +0.000 A 
ATOM     16  C   UNL     1       9.702   1.696  21.967  0.00  0.00    +0.000 A 
ATOM     17  C   UNL     1       9.386   0.332  21.952  0.00  0.00    +0.000 A 
ATOM     18 CL   UNL     1       8.612  -0.224  20.512  0.00  0.00    +0.000 Cl
ENDBRANCH   9  12
ENDBRANCH   6   9
BRANCH   2  19
ATOM     19  C   UNL     1       5.545  -5.720  24.564  0.00  0.00    +0.000 C 
ATOM     20 CL   UNL     1       6.263  -5.737  22.940  0.00  0.00    +0.000 Cl
ENDBRANCH   2  19
TORSDOF 3
ENDMDL
MODEL 5
REMARK VINA RESULT:      -6.1      3.218      4.231
REMARK  Name = 
REMARK  3 active torsions:
REMARK  status: ('A' for Active; 'I' for Inactive)
REMARK    1  A    between atoms: C_2  and  C_3
REMARK    2  A    between atoms: N_8  and  S_9
REMARK    3  A    between atoms: S_9  and  C_12
REMARK                            x       y       z     vdW  Elec       q    Type
REMARK                         _______ _______ _______ _____ _____    ______ ____
ROOT
ATOM      1  O   UNL     1       5.714  -6.166  25.574  0.00  0.00    +0.000 OA
ATOM      2  C   UNL     1       5.348  -4.989  25.584  0.00  0.00    +0.000 C 
ATOM      3  N   UNL     1       6.061  -4.022  26.292  0.00  0.00    +0.000 N 
ATOM      4  C   UNL     1       7.438  -4.328  26.719  0.00  0.00    +0.000 C 
ATOM      5  C   UNL     1       8.412  -3.161  26.398  0.00  0.00    +0.000 C 
ATOM      6  N   UNL     1       8.000  -2.444  25.164  0.00  0.00    +0.000 NA
ATOM      7  C   UNL     1       6.603  -1.922  25.176  0.00  0.00    +0.000 C 
ATOM      8  C   UNL     1       5.776  -2.589  26.287  0.00  0.00    +0.000 C 
ENDROOT
BRANCH   6   9
ATOM      9  S   UNL     1       8.803  -2.694  23.692  0.00  0.00    +0.000 S 
ATOM     10  O   UNL     1       7.933  -3.486  22.851  0.00  0.00    +0.000 OA
ATOM     11  O   UNL     1      10.133  -3.173  23.996  0.00  0.00    +0.000 OA
BRANCH   9  12
ATOM     12  C   UNL     1       8.955  -1.065  22.993  0.00  0.00    +0.000 A 
ATOM     13  C   UNL     1       8.395  -0.841  21.727  0.00  0.00    +0.000 A 
ATOM     14  C   UNL     1       8.685   0.332  21.026  0.00  0.00    +0.000 A 
ATOM     15  C   UNL     1       9.529   1.285  21.585  0.00  0.00    +0.000 A 
ATOM     16  C   UNL     1       9.988   1.117  22.889  0.00  0.00    +0.000 A 
ATOM     17  C   UNL     1       9.662  -0.033  23.620  0.00  0.00    +0.000 A 
ATOM     18 CL   UNL     1      10.193  -0.029  25.263  0.00  0.00    +0.000 Cl
ENDBRANCH   9  12
ENDBRANCH   6   9
BRANCH   2  19
ATOM     19  C   UNL     1       4.093  -4.577  24.824  0.00  0.00    +0.000 C 
ATOM     20 CL   UNL     1       4.508  -4.129  23.157  0.00  0.00    +0.000 Cl
ENDBRANCH   2  19
TORSDOF 3
ENDMDL
MODEL 6
REMARK VINA RESULT:      -6.1      3.046      6.553
REMARK  Name = 
REMARK  3 active torsions:
REMARK  status: ('A' for Active; 'I' for Inactive)
REMARK    1  A    between atoms: C_2  and  C_3
REMARK    2  A    between atoms: N_8  and  S_9
REMARK    3  A    between atoms: S_9  and  C_12
REMARK                            x       y       z     vdW  Elec       q    Type
REMARK                         _______ _______ _______ _____ _____    ______ ____
ROOT
ATOM      1  O   UNL     1       7.365  -0.380  21.055  0.00  0.00    +0.000 OA
ATOM      2  C   UNL     1       8.180  -0.377  21.980  0.00  0.00    +0.000 C 
ATOM      3  N   UNL     1       7.769  -0.560  23.300  0.00  0.00    +0.000 N 
ATOM      4  C   UNL     1       6.428  -1.117  23.553  0.00  0.00    +0.000 C 
ATOM      5  C   UNL     1       6.467  -2.248  24.618  0.00  0.00    +0.000 C 
ATOM      6  N   UNL     1       7.747  -2.999  24.555  0.00  0.00    +0.000 NA
ATOM      7  C   UNL     1       8.975  -2.163  24.688  0.00  0.00    +0.000 C 
ATOM      8  C   UNL     1       8.657  -0.677  24.454  0.00  0.00    +0.000 C 
ENDROOT
BRANCH   6   9
ATOM      9  S   UNL     1       7.833  -4.530  23.831  0.00  0.00    +0.000 S 
ATOM     10  O   UNL     1       9.100  -5.118  24.209  0.00  0.00    +0.000 OA
ATOM     11  O   UNL     1       7.510  -4.370  22.431  0.00  0.00    +0.000 OA
BRANCH   9  12
ATOM     12  C   UNL     1       6.518  -5.451  24.596  0.00  0.00    +0.000 A 
ATOM     13  C   UNL     1       5.498  -5.944  23.770  0.00  0.00    +0.000 A 
ATOM     14  C   UNL     1       4.326  -6.460  24.329  0.00  0.00    +0.000 A 
ATOM     15  C   UNL     1       4.170  -6.490  25.711  0.00  0.00    +0.000 A 
ATOM     16  C   UNL     1       5.231  -6.113  26.530  0.00  0.00    +0.000 A 
ATOM     17  C   UNL     1       6.429  -5.640  25.980  0.00  0.00    +0.000 A 
ATOM     18 CL   UNL     1       7.690  -5.343  27.120  0.00  0.00    +0.000 Cl
ENDBRANCH   9  12
ENDBRANCH   6   9
BRANCH   2  19
ATOM     19  C   UNL     1       9.661  -0.161  21.688  0.00  0.00    +0.000 C 
ATOM     20 CL   UNL     1      10.079   1.552  21.896  0.00  0.00    +0.000 Cl
ENDBRANCH   2  19
TORSDOF 3
ENDMDL
MODEL 7
REMARK VINA RESULT:      -6.1      2.602      4.603
REMARK  Name = 
REMARK  3 active torsions:
REMARK  status: ('A' for Active; 'I' for Inactive)
REMARK    1  A    between atoms: C_2  and  C_3
REMARK    2  A    between atoms: N_8  and  S_9
REMARK    3  A    between atoms: S_9  and  C_12
REMARK                            x       y       z     vdW  Elec       q    Type
REMARK                         _______ _______ _______ _____ _____    ______ ____
ROOT
ATOM      1  O   UNL     1       6.907   1.562  23.456  0.00  0.00    +0.000 OA
ATOM      2  C   UNL     1       7.584   1.248  24.438  0.00  0.00    +0.000 C 
ATOM      3  N   UNL     1       7.141   0.274  25.333  0.00  0.00    +0.000 N 
ATOM      4  C   UNL     1       6.055  -0.630  24.916  0.00  0.00    +0.000 C 
ATOM      5  C   UNL     1       6.382  -2.112  25.249  0.00  0.00    +0.000 C 
ATOM      6  N   UNL     1       7.842  -2.372  25.160  0.00  0.00    +0.000 NA
ATOM      7  C   UNL     1       8.690  -1.484  26.006  0.00  0.00    +0.000 C 
ATOM      8  C   UNL     1       7.905  -0.244  26.465  0.00  0.00    +0.000 C 
ENDROOT
BRANCH   6   9
ATOM      9  S   UNL     1       8.513  -3.174  23.826  0.00  0.00    +0.000 S 
ATOM     10  O   UNL     1       7.607  -4.241  23.459  0.00  0.00    +0.000 OA
ATOM     11  O   UNL     1       9.887  -3.484  24.150  0.00  0.00    +0.000 OA
BRANCH   9  12
ATOM     12  C   UNL     1       8.517  -1.950  22.535  0.00  0.00    +0.000 A 
ATOM     13  C   UNL     1       9.680  -1.187  22.360  0.00  0.00    +0.000 A 
ATOM     14  C   UNL     1       9.665  -0.060  21.535  0.00  0.00    +0.000 A 
ATOM     15  C   UNL     1       8.495   0.306  20.880  0.00  0.00    +0.000 A 
ATOM     16  C   UNL     1       7.376  -0.518  20.959  0.00  0.00    +0.000 A 
ATOM     17  C   UNL     1       7.395  -1.678  21.744  0.00  0.00    +0.000 A 
ATOM     18 CL   UNL     1       5.981  -2.662  21.629  0.00  0.00    +0.000 Cl
ENDBRANCH   9  12
ENDBRANCH   6   9
BRANCH   2  19
ATOM     19  C   UNL     1       8.920   1.935  24.692  0.00  0.00    +0.000 C 
ATOM     20 CL   UNL     1       9.285   3.067  23.373  0.00  0.00    +0.000 Cl
ENDBRANCH   2  19
TORSDOF 3
ENDMDL
MODEL 8
REMARK VINA RESULT:      -6.1      3.202      4.514
REMARK  Name = 
REMARK  3 active torsions:
REMARK  status: ('A' for Active; 'I' for Inactive)
REMARK    1  A    between atoms: C_2  and  C_3
REMARK    2  A    between atoms: N_8  and  S_9
REMARK    3  A    between atoms: S_9  and  C_12
REMARK                            x       y       z     vdW  Elec       q    Type
REMARK                         _______ _______ _______ _____ _____    ______ ____
ROOT
ATOM      1  O   UNL     1       5.774  -6.034  24.256  0.00  0.00    +0.000 OA
ATOM      2  C   UNL     1       5.901  -5.222  25.176  0.00  0.00    +0.000 C 
ATOM      3  N   UNL     1       7.165  -4.819  25.607  0.00  0.00    +0.000 N 
ATOM      4  C   UNL     1       8.325  -5.074  24.736  0.00  0.00    +0.000 C 
ATOM      5  C   UNL     1       9.233  -3.819  24.605  0.00  0.00    +0.000 C 
ATOM      6  N   UNL     1       8.433  -2.570  24.681  0.00  0.00    +0.000 NA
ATOM      7  C   UNL     1       7.591  -2.436  25.904  0.00  0.00    +0.000 C 
ATOM      8  C   UNL     1       7.427  -3.791  26.611  0.00  0.00    +0.000 C 
ENDROOT
BRANCH   6   9
ATOM      9  S   UNL     1       8.060  -1.678  23.288  0.00  0.00    +0.000 S 
ATOM     10  O   UNL     1       6.736  -1.124  23.468  0.00  0.00    +0.000 OA
ATOM     11  O   UNL     1       8.333  -2.520  22.145  0.00  0.00    +0.000 OA
BRANCH   9  12
ATOM     12  C   UNL     1       9.246  -0.351  23.287  0.00  0.00    +0.000 A 
ATOM     13  C   UNL     1      10.081  -0.219  24.405  0.00  0.00    +0.000 A 
ATOM     14  C   UNL     1      10.857   0.930  24.572  0.00  0.00    +0.000 A 
ATOM     15  C   UNL     1      10.806   1.947  23.625  0.00  0.00    +0.000 A 
ATOM     16  C   UNL     1      10.069   1.763  22.458  0.00  0.00    +0.000 A 
ATOM     17  C   UNL     1       9.327   0.593  22.257  0.00  0.00    +0.000 A 
ATOM     18 CL   UNL     1       8.580   0.459  20.706  0.00  0.00    +0.000 Cl
ENDBRANCH   9  12
ENDBRANCH   6   9
BRANCH   2  19
ATOM     19  C   UNL     1       4.666  -4.654  25.865  0.00  0.00    +0.000 C 
ATOM     20 CL   UNL     1       4.088  -3.218  24.994  0.00  0.00    +0.000 Cl
ENDBRANCH   2  19
TORSDOF 3
ENDMDL
MODEL 9
REMARK VINA RESULT:      -6.0      2.464      5.503
REMARK  Name = 
REMARK  3 active torsions:
REMARK  status: ('A' for Active; 'I' for Inactive)
REMARK    1  A    between atoms: C_2  and  C_3
REMARK    2  A    between atoms: N_8  and  S_9
REMARK    3  A    between atoms: S_9  and  C_12
REMARK                            x       y       z     vdW  Elec       q    Type
REMARK                         _______ _______ _______ _____ _____    ______ ____
ROOT
ATOM      1  O   UNL     1       6.743   1.816  21.118  0.00  0.00    +0.000 OA
ATOM      2  C   UNL     1       7.609   0.979  20.857  0.00  0.00    +0.000 C 
ATOM      3  N   UNL     1       8.649   0.718  21.749  0.00  0.00    +0.000 N 
ATOM      4  C   UNL     1       8.512   1.168  23.146  0.00  0.00    +0.000 C 
ATOM      5  C   UNL     1       8.904   0.049  24.151  0.00  0.00    +0.000 C 
ATOM      6  N   UNL     1       8.576  -1.295  23.610  0.00  0.00    +0.000 NA
ATOM      7  C   UNL     1       9.177  -1.603  22.281  0.00  0.00    +0.000 C 
ATOM      8  C   UNL     1       9.663  -0.320  21.586  0.00  0.00    +0.000 C 
ENDROOT
BRANCH   6   9
ATOM      9  S   UNL     1       7.215  -2.150  24.149  0.00  0.00    +0.000 S 
ATOM     10  O   UNL     1       6.055  -1.320  23.906  0.00  0.00    +0.000 OA
ATOM     11  O   UNL     1       7.493  -2.614  25.490  0.00  0.00    +0.000 OA
BRANCH   9  12
ATOM     12  C   UNL     1       7.140  -3.572  23.082  0.00  0.00    +0.000 A 
ATOM     13  C   UNL     1       6.330  -3.492  21.941  0.00  0.00    +0.000 A 
ATOM     14  C   UNL     1       6.040  -4.641  21.201  0.00  0.00    +0.000 A 
ATOM     15  C   UNL     1       6.560  -5.870  21.593  0.00  0.00    +0.000 A 
ATOM     16  C   UNL     1       7.459  -5.929  22.655  0.00  0.00    +0.000 A 
ATOM     17  C   UNL     1       7.795  -4.774  23.373  0.00  0.00    +0.000 A 
ATOM     18 CL   UNL     1       9.023  -4.989  24.568  0.00  0.00    +0.000 Cl
ENDBRANCH   9  12
ENDBRANCH   6   9
BRANCH   2  19
ATOM     19  C   UNL     1       7.558   0.220  19.536  0.00  0.00    +0.000 C 
ATOM     20 CL   UNL     1       6.034  -0.683  19.409  0.00  0.00    +0.000 Cl
ENDBRANCH   2  19
TORSDOF 3
ENDMDL
