
 OpenBabel06082022513D

 38 40  0  0  0  0  0  0  0  0999 V2000
    8.2889   11.4246   10.1734 O   0  0  0  0  0  0  0  0  0  0  0  0
    7.5976   10.6123   10.8045 C   0  0  0  0  0  0  0  0  0  0  0  0
    8.2248    9.7514   11.8856 C   0  0  0  0  0  0  0  0  0  0  0  0
    7.2870    9.8596   13.3817 Cl  0  0  0  0  0  0  0  0  0  0  0  0
    6.2648   10.4117   10.4592 N   0  0  0  0  0  0  0  0  0  0  0  0
    5.6351    9.0820   10.4269 C   0  0  0  0  0  0  0  0  0  0  0  0
    5.1304    8.7333    8.9912 C   0  0  0  0  0  0  0  0  0  0  0  0
    6.0092    9.3706    7.9189 N   0  0  0  0  0  0  0  0  0  0  0  0
    7.4538    8.5288    7.7643 S   0  0  0  0  0  0  0  0  0  0  0  0
    7.1932    7.2842    7.0711 O   0  0  0  0  0  0  0  0  0  0  0  0
    8.1933    8.4933    9.0009 O   0  0  0  0  0  0  0  0  0  0  0  0
    8.5302    9.4178    6.6024 C   0  0  0  0  0  0  0  0  0  0  0  0
    9.7527    9.8852    7.1426 C   0  0  0  0  0  0  0  0  0  0  0  0
   10.9547    9.6558    6.4623 C   0  0  0  0  0  0  0  0  0  0  0  0
   10.9154    8.9515    5.2669 C   0  0  0  0  0  0  0  0  0  0  0  0
    9.6374    8.6306    4.6542 C   0  0  0  0  0  0  0  0  0  0  0  0
    8.4494    8.9500    5.2877 C   0  0  0  0  0  0  0  0  0  0  0  0
    9.5799    7.9124    3.6084 O   0  0  0  0  0  0  0  0  0  0  0  0
   10.6446    7.3072    3.2520 C   0  0  0  0  0  0  0  0  0  0  0  0
   11.8969    7.5912    3.8774 C   0  0  0  0  0  0  0  0  0  0  0  0
   11.9962    8.4744    4.7926 O   0  0  0  0  0  0  0  0  0  0  0  0
    6.0234   10.8737    8.0721 C   0  0  0  0  0  0  0  0  0  0  0  0
    5.6838   11.3388    9.4949 C   0  0  0  0  0  0  0  0  0  0  0  0
    9.2315   10.1280   12.0921 H   0  0  0  0  0  0  0  0  0  0  0  0
    8.3077    8.7087   11.5752 H   0  0  0  0  0  0  0  0  0  0  0  0
    4.7859    9.0855   11.1192 H   0  0  0  0  0  0  0  0  0  0  0  0
    6.3310    8.3127   10.7693 H   0  0  0  0  0  0  0  0  0  0  0  0
    4.1102    9.1083    8.8470 H   0  0  0  0  0  0  0  0  0  0  0  0
    5.0766    7.6473    8.8509 H   0  0  0  0  0  0  0  0  0  0  0  0
    9.7897   10.2594    8.1730 H   0  0  0  0  0  0  0  0  0  0  0  0
   11.9062    9.8909    6.9351 H   0  0  0  0  0  0  0  0  0  0  0  0
    7.5106    8.5809    4.8779 H   0  0  0  0  0  0  0  0  0  0  0  0
   10.5861    6.5532    2.4678 H   0  0  0  0  0  0  0  0  0  0  0  0
   12.7846    7.0336    3.5753 H   0  0  0  0  0  0  0  0  0  0  0  0
    5.2923   11.2891    7.3684 H   0  0  0  0  0  0  0  0  0  0  0  0
    6.9954   11.2741    7.7751 H   0  0  0  0  0  0  0  0  0  0  0  0
    6.0472   12.3574    9.6644 H   0  0  0  0  0  0  0  0  0  0  0  0
    4.5977   11.3527    9.6550 H   0  0  0  0  0  0  0  0  0  0  0  0
  1  2  2  0  0  0  0
  2  3  1  0  0  0  0
  2  5  1  0  0  0  0
  3  4  1  0  0  0  0
  3 24  1  0  0  0  0
  3 25  1  0  0  0  0
  5  6  1  0  0  0  0
  5 23  1  0  0  0  0
  6  7  1  0  0  0  0
  6 26  1  0  0  0  0
  6 27  1  0  0  0  0
  7  8  1  0  0  0  0
  7 28  1  0  0  0  0
  7 29  1  0  0  0  0
  8  9  1  0  0  0  0
  8 22  1  0  0  0  0
  9 10  2  0  0  0  0
  9 11  2  0  0  0  0
  9 12  1  0  0  0  0
 12 13  1  0  0  0  0
 12 17  2  0  0  0  0
 13 14  2  0  0  0  0
 13 30  1  0  0  0  0
 14 15  1  0  0  0  0
 14 31  1  0  0  0  0
 15 16  2  0  0  0  0
 15 21  1  0  0  0  0
 16 17  1  0  0  0  0
 16 18  1  0  0  0  0
 17 32  1  0  0  0  0
 18 19  2  0  0  0  0
 19 20  1  0  0  0  0
 19 33  1  0  0  0  0
 20 21  2  0  0  0  0
 20 34  1  0  0  0  0
 22 23  1  0  0  0  0
 22 35  1  0  0  0  0
 22 36  1  0  0  0  0
 23 37  1  0  0  0  0
 23 38  1  0  0  0  0
M  END
>  <name>


>  <Energy>
291.469

$$$$

 OpenBabel06082022513D

 43 45  0  0  0  0  0  0  0  0999 V2000
    3.2975    9.2616    8.2561 O   0  0  0  0  0  0  0  0  0  0  0  0
    4.2880    9.9812    8.0819 C   0  0  0  0  0  0  0  0  0  0  0  0
    4.0911   11.3964    7.5423 C   0  0  0  0  0  0  0  0  0  0  0  0
    4.9512   12.7060    8.3538 Cl  0  0  0  0  0  0  0  0  0  0  0  0
    5.5712    9.4377    8.1565 N   0  0  0  0  0  0  0  0  0  0  0  0
    6.5798   10.0952    8.9826 C   0  0  0  0  0  0  0  0  0  0  0  0
    7.1417    9.1337   10.0195 C   0  0  0  0  0  0  0  0  0  0  0  0
    7.8966    8.0173    9.3912 N   0  0  0  0  0  0  0  0  0  0  0  0
    9.5706    8.2594    9.0485 S   0  0  0  0  0  0  0  0  0  0  0  0
    9.6425    8.9918    7.8062 O   0  0  0  0  0  0  0  0  0  0  0  0
   10.2493    6.9911    9.2170 O   0  0  0  0  0  0  0  0  0  0  0  0
   10.1094    9.3658   10.3392 C   0  0  0  0  0  0  0  0  0  0  0  0
   10.4360   10.6829    9.9864 C   0  0  0  0  0  0  0  0  0  0  0  0
   10.4480   11.6726   10.9678 C   0  0  0  0  0  0  0  0  0  0  0  0
   10.0875   11.3499   12.2760 C   0  0  0  0  0  0  0  0  0  0  0  0
    9.8237   10.0196   12.6274 C   0  0  0  0  0  0  0  0  0  0  0  0
    9.8961    9.0059   11.6721 C   0  0  0  0  0  0  0  0  0  0  0  0
    9.4394    9.6519   13.8885 O   0  0  0  0  0  0  0  0  0  0  0  0
    8.1746   10.2271   14.2349 C   0  0  0  0  0  0  0  0  0  0  0  0
    8.3323   11.6424   14.7697 C   0  0  0  0  0  0  0  0  0  0  0  0
    8.7129   12.6096   13.6576 C   0  0  0  0  0  0  0  0  0  0  0  0
   10.0403   12.3777   13.1772 O   0  0  0  0  0  0  0  0  0  0  0  0
    7.1352    7.4373    8.2133 C   0  0  0  0  0  0  0  0  0  0  0  0
    5.6809    7.9631    8.1306 C   0  0  0  0  0  0  0  0  0  0  0  0
    3.0285   11.6412    7.6360 H   0  0  0  0  0  0  0  0  0  0  0  0
    4.3560   11.4079    6.4822 H   0  0  0  0  0  0  0  0  0  0  0  0
    6.1446   10.9118    9.5543 H   0  0  0  0  0  0  0  0  0  0  0  0
    7.3616   10.4828    8.3227 H   0  0  0  0  0  0  0  0  0  0  0  0
    6.3320    8.6871   10.6137 H   0  0  0  0  0  0  0  0  0  0  0  0
    7.7126    9.6986   10.7466 H   0  0  0  0  0  0  0  0  0  0  0  0
   10.6096   10.9599    8.9482 H   0  0  0  0  0  0  0  0  0  0  0  0
   10.6679   12.7033   10.7009 H   0  0  0  0  0  0  0  0  0  0  0  0
    9.6380    7.9829   11.9386 H   0  0  0  0  0  0  0  0  0  0  0  0
    7.7491    9.5948   15.0222 H   0  0  0  0  0  0  0  0  0  0  0  0
    7.4683   10.1863   13.3926 H   0  0  0  0  0  0  0  0  0  0  0  0
    9.1126   11.6521   15.5390 H   0  0  0  0  0  0  0  0  0  0  0  0
    7.3893   11.9666   15.2232 H   0  0  0  0  0  0  0  0  0  0  0  0
    8.7023   13.6285   14.0616 H   0  0  0  0  0  0  0  0  0  0  0  0
    7.9821   12.5960   12.8364 H   0  0  0  0  0  0  0  0  0  0  0  0
    7.1313    6.3461    8.3089 H   0  0  0  0  0  0  0  0  0  0  0  0
    7.6339    7.6895    7.2720 H   0  0  0  0  0  0  0  0  0  0  0  0
    5.2007    7.6067    7.2117 H   0  0  0  0  0  0  0  0  0  0  0  0
    5.0992    7.5657    8.9725 H   0  0  0  0  0  0  0  0  0  0  0  0
  1  2  2  0  0  0  0
  2  3  1  0  0  0  0
  2  5  1  0  0  0  0
  3  4  1  0  0  0  0
  3 25  1  0  0  0  0
  3 26  1  0  0  0  0
  5  6  1  0  0  0  0
  5 24  1  0  0  0  0
  6  7  1  0  0  0  0
  6 27  1  0  0  0  0
  6 28  1  0  0  0  0
  7  8  1  0  0  0  0
  7 29  1  0  0  0  0
  7 30  1  0  0  0  0
  8  9  1  0  0  0  0
  8 23  1  0  0  0  0
  9 10  2  0  0  0  0
  9 11  2  0  0  0  0
  9 12  1  0  0  0  0
 12 13  1  0  0  0  0
 12 17  2  0  0  0  0
 13 14  2  0  0  0  0
 13 31  1  0  0  0  0
 14 15  1  0  0  0  0
 14 32  1  0  0  0  0
 15 16  2  0  0  0  0
 15 22  1  0  0  0  0
 16 17  1  0  0  0  0
 16 18  1  0  0  0  0
 17 33  1  0  0  0  0
 18 19  1  0  0  0  0
 19 20  1  0  0  0  0
 19 34  1  0  0  0  0
 19 35  1  0  0  0  0
 20 21  1  0  0  0  0
 20 36  1  0  0  0  0
 20 37  1  0  0  0  0
 21 22  1  0  0  0  0
 21 38  1  0  0  0  0
 21 39  1  0  0  0  0
 23 24  1  0  0  0  0
 23 40  1  0  0  0  0
 23 41  1  0  0  0  0
 24 42  1  0  0  0  0
 24 43  1  0  0  0  0
M  END
>  <name>


>  <Energy>
80.7207

$$$$

 OpenBabel06082022513D

 40 42  0  0  0  0  0  0  0  0999 V2000
    8.5967   12.1480    9.6746 O   0  0  0  0  0  0  0  0  0  0  0  0
    7.9794   11.4982   10.5229 C   0  0  0  0  0  0  0  0  0  0  0  0
    8.7451   10.7718   11.6122 C   0  0  0  0  0  0  0  0  0  0  0  0
    8.4354   11.5239   13.1853 Cl  0  0  0  0  0  0  0  0  0  0  0  0
    6.5848   11.3807   10.4737 N   0  0  0  0  0  0  0  0  0  0  0  0
    5.8518   10.2926   11.1428 C   0  0  0  0  0  0  0  0  0  0  0  0
    5.5808    9.1207   10.1696 C   0  0  0  0  0  0  0  0  0  0  0  0
    6.4147    9.2949    8.9441 N   0  0  0  0  0  0  0  0  0  0  0  0
    6.6652    7.9221    8.0053 S   0  0  0  0  0  0  0  0  0  0  0  0
    5.7175    7.9475    6.9121 O   0  0  0  0  0  0  0  0  0  0  0  0
    6.7344    6.7744    8.8967 O   0  0  0  0  0  0  0  0  0  0  0  0
    8.3016    8.1572    7.3414 C   0  0  0  0  0  0  0  0  0  0  0  0
    8.4595    8.6132    6.0323 C   0  0  0  0  0  0  0  0  0  0  0  0
    9.6872    8.4373    5.3883 C   0  0  0  0  0  0  0  0  0  0  0  0
   10.7420    7.7658    6.0298 C   0  0  0  0  0  0  0  0  0  0  0  0
   11.9034    7.3952    5.3327 C   0  0  0  0  0  0  0  0  0  0  0  0
   12.9084    6.6581    5.9624 C   0  0  0  0  0  0  0  0  0  0  0  0
   12.7947    6.3359    7.3113 C   0  0  0  0  0  0  0  0  0  0  0  0
   11.6586    6.7175    8.0263 C   0  0  0  0  0  0  0  0  0  0  0  0
   10.6065    7.3925    7.3875 C   0  0  0  0  0  0  0  0  0  0  0  0
    9.3888    7.6216    8.0439 C   0  0  0  0  0  0  0  0  0  0  0  0
    6.0778   10.5624    8.2097 C   0  0  0  0  0  0  0  0  0  0  0  0
    5.9750   11.7502    9.1978 C   0  0  0  0  0  0  0  0  0  0  0  0
    9.8178   10.8468   11.4061 H   0  0  0  0  0  0  0  0  0  0  0  0
    8.4890    9.7065   11.6381 H   0  0  0  0  0  0  0  0  0  0  0  0
    4.8983   10.7027   11.4963 H   0  0  0  0  0  0  0  0  0  0  0  0
    6.3797    9.9300   12.0258 H   0  0  0  0  0  0  0  0  0  0  0  0
    4.5222    9.1008    9.8873 H   0  0  0  0  0  0  0  0  0  0  0  0
    5.8084    8.1851   10.6873 H   0  0  0  0  0  0  0  0  0  0  0  0
    7.6224    9.0355    5.4829 H   0  0  0  0  0  0  0  0  0  0  0  0
    9.7887    8.7544    4.3522 H   0  0  0  0  0  0  0  0  0  0  0  0
   12.0093    7.6298    4.2759 H   0  0  0  0  0  0  0  0  0  0  0  0
   13.7729    6.3236    5.3945 H   0  0  0  0  0  0  0  0  0  0  0  0
   13.5773    5.7624    7.8018 H   0  0  0  0  0  0  0  0  0  0  0  0
   11.5805    6.4375    9.0741 H   0  0  0  0  0  0  0  0  0  0  0  0
    9.2532    7.2768    9.0677 H   0  0  0  0  0  0  0  0  0  0  0  0
    5.1237   10.4537    7.6804 H   0  0  0  0  0  0  0  0  0  0  0  0
    6.8577   10.7761    7.4706 H   0  0  0  0  0  0  0  0  0  0  0  0
    6.4390   12.6453    8.7723 H   0  0  0  0  0  0  0  0  0  0  0  0
    4.9226   11.9961    9.3880 H   0  0  0  0  0  0  0  0  0  0  0  0
  1  2  2  0  0  0  0
  2  3  1  0  0  0  0
  2  5  1  0  0  0  0
  3  4  1  0  0  0  0
  3 24  1  0  0  0  0
  3 25  1  0  0  0  0
  5  6  1  0  0  0  0
  5 23  1  0  0  0  0
  6  7  1  0  0  0  0
  6 26  1  0  0  0  0
  6 27  1  0  0  0  0
  7  8  1  0  0  0  0
  7 28  1  0  0  0  0
  7 29  1  0  0  0  0
  8  9  1  0  0  0  0
  8 22  1  0  0  0  0
  9 10  2  0  0  0  0
  9 11  2  0  0  0  0
  9 12  1  0  0  0  0
 12 13  1  0  0  0  0
 12 21  2  0  0  0  0
 13 14  2  0  0  0  0
 13 30  1  0  0  0  0
 14 15  1  0  0  0  0
 14 31  1  0  0  0  0
 15 16  1  0  0  0  0
 15 20  2  0  0  0  0
 16 17  2  0  0  0  0
 16 32  1  0  0  0  0
 17 18  1  0  0  0  0
 17 33  1  0  0  0  0
 18 19  2  0  0  0  0
 18 34  1  0  0  0  0
 19 20  1  0  0  0  0
 19 35  1  0  0  0  0
 20 21  1  0  0  0  0
 21 36  1  0  0  0  0
 22 23  1  0  0  0  0
 22 37  1  0  0  0  0
 22 38  1  0  0  0  0
 23 39  1  0  0  0  0
 23 40  1  0  0  0  0
M  END
>  <name>


>  <Energy>
63.8581

$$$$

 OpenBabel06082022513D

 36 37  0  0  0  0  0  0  0  0999 V2000
    4.6935    9.1966    5.6753 O   0  0  0  0  0  0  0  0  0  0  0  0
    4.7277   10.3489    6.1163 C   0  0  0  0  0  0  0  0  0  0  0  0
    5.7842   11.3520    5.6751 C   0  0  0  0  0  0  0  0  0  0  0  0
    6.3948   10.9550    4.0535 Cl  0  0  0  0  0  0  0  0  0  0  0  0
    3.8175   10.7456    7.0929 N   0  0  0  0  0  0  0  0  0  0  0  0
    3.9803   11.9244    7.9692 C   0  0  0  0  0  0  0  0  0  0  0  0
    3.8308   11.5314    9.4624 C   0  0  0  0  0  0  0  0  0  0  0  0
    4.3242   10.1237    9.6654 N   0  0  0  0  0  0  0  0  0  0  0  0
    5.9969   10.0391    9.8819 S   0  0  0  0  0  0  0  0  0  0  0  0
    6.5732   11.1107    9.0827 O   0  0  0  0  0  0  0  0  0  0  0  0
    6.1845   10.0461   11.3167 O   0  0  0  0  0  0  0  0  0  0  0  0
    6.8209    8.5898    9.2699 C   0  0  0  0  0  0  0  0  0  0  0  0
    8.0875    8.3447    9.8443 C   0  0  0  0  0  0  0  0  0  0  0  0
    9.0022    7.4735    9.2444 C   0  0  0  0  0  0  0  0  0  0  0  0
    8.6560    6.8122    8.0724 C   0  0  0  0  0  0  0  0  0  0  0  0
    7.3826    7.0224    7.5380 C   0  0  0  0  0  0  0  0  0  0  0  0
    7.0241    6.3306    6.3150 N   0  3  0  0  0  0  0  0  0  0  0  0
    6.1325    5.4758    6.4026 O   0  0  0  0  0  0  0  0  0  0  0  0
    7.6622    6.6216    5.2965 O   0  5  0  0  0  0  0  0  0  0  0  0
    6.4595    7.9090    8.1113 C   0  0  0  0  0  0  0  0  0  0  0  0
    3.4621    9.1439    8.9552 C   0  0  0  0  0  0  0  0  0  0  0  0
    2.9070    9.7334    7.6348 C   0  0  0  0  0  0  0  0  0  0  0  0
    6.6279   11.3159    6.3683 H   0  0  0  0  0  0  0  0  0  0  0  0
    5.3725   12.3611    5.6226 H   0  0  0  0  0  0  0  0  0  0  0  0
    3.2060   12.6509    7.7017 H   0  0  0  0  0  0  0  0  0  0  0  0
    4.9447   12.4066    7.7981 H   0  0  0  0  0  0  0  0  0  0  0  0
    2.7748   11.5689    9.7582 H   0  0  0  0  0  0  0  0  0  0  0  0
    4.3498   12.2393   10.1172 H   0  0  0  0  0  0  0  0  0  0  0  0
    8.4053    8.9059   10.7245 H   0  0  0  0  0  0  0  0  0  0  0  0
    9.9968    7.3537    9.6695 H   0  0  0  0  0  0  0  0  0  0  0  0
    9.3743    6.1640    7.5757 H   0  0  0  0  0  0  0  0  0  0  0  0
    5.5326    8.0861    7.5892 H   0  0  0  0  0  0  0  0  0  0  0  0
    2.6117    8.9076    9.6081 H   0  0  0  0  0  0  0  0  0  0  0  0
    3.9557    8.1880    8.8024 H   0  0  0  0  0  0  0  0  0  0  0  0
    2.7002    8.9373    6.9125 H   0  0  0  0  0  0  0  0  0  0  0  0
    1.9501   10.2389    7.8236 H   0  0  0  0  0  0  0  0  0  0  0  0
  1  2  2  0  0  0  0
  2  3  1  0  0  0  0
  2  5  1  0  0  0  0
  3  4  1  0  0  0  0
  3 23  1  0  0  0  0
  3 24  1  0  0  0  0
  5  6  1  0  0  0  0
  5 22  1  0  0  0  0
  6  7  1  0  0  0  0
  6 25  1  0  0  0  0
  6 26  1  0  0  0  0
  7  8  1  0  0  0  0
  7 27  1  0  0  0  0
  7 28  1  0  0  0  0
  8  9  1  0  0  0  0
  8 21  1  0  0  0  0
  9 10  2  0  0  0  0
  9 11  2  0  0  0  0
  9 12  1  0  0  0  0
 12 13  1  0  0  0  0
 12 20  2  0  0  0  0
 13 14  2  0  0  0  0
 13 29  1  0  0  0  0
 14 15  1  0  0  0  0
 14 30  1  0  0  0  0
 15 16  2  0  0  0  0
 15 31  1  0  0  0  0
 16 17  1  0  0  0  0
 16 20  1  0  0  0  0
 17 18  2  0  0  0  0
 17 19  1  0  0  0  0
 20 32  1  0  0  0  0
 21 22  1  0  0  0  0
 21 33  1  0  0  0  0
 21 34  1  0  0  0  0
 22 35  1  0  0  0  0
 22 36  1  0  0  0  0
M  CHG  2  17   1  19  -1
M  END
>  <name>


>  <Energy>
96.1675

$$$$

 OpenBabel06082022513D

 40 42  0  0  0  0  0  0  0  0999 V2000
    7.9932   11.6452   10.3532 O   0  0  0  0  0  0  0  0  0  0  0  0
    7.5229   10.5533   10.7010 C   0  0  0  0  0  0  0  0  0  0  0  0
    8.3018    9.6806   11.6703 C   0  0  0  0  0  0  0  0  0  0  0  0
    7.6075    9.8483   13.2924 Cl  0  0  0  0  0  0  0  0  0  0  0  0
    6.2921   10.1286   10.2099 N   0  0  0  0  0  0  0  0  0  0  0  0
    5.7552    8.7576   10.2869 C   0  0  0  0  0  0  0  0  0  0  0  0
    5.2918    8.2454    8.8891 C   0  0  0  0  0  0  0  0  0  0  0  0
    6.0857    8.8963    7.7688 N   0  0  0  0  0  0  0  0  0  0  0  0
    7.6354    8.1945    7.6680 S   0  0  0  0  0  0  0  0  0  0  0  0
    7.4372    6.9340    6.9892 O   0  0  0  0  0  0  0  0  0  0  0  0
    8.2183    8.1850    8.9984 O   0  0  0  0  0  0  0  0  0  0  0  0
    8.7750    9.1732    6.7023 C   0  0  0  0  0  0  0  0  0  0  0  0
    9.2583   10.3673    7.2502 C   0  0  0  0  0  0  0  0  0  0  0  0
   10.5606   10.7883    6.9832 C   0  0  0  0  0  0  0  0  0  0  0  0
   11.4242    9.9577    6.2602 C   0  0  0  0  0  0  0  0  0  0  0  0
   10.9144    8.7918    5.6411 C   0  0  0  0  0  0  0  0  0  0  0  0
    9.5641    8.4516    5.7973 C   0  0  0  0  0  0  0  0  0  0  0  0
   11.7949    7.9142    4.9940 C   0  0  0  0  0  0  0  0  0  0  0  0
   13.1697    8.1454    5.0217 C   0  0  0  0  0  0  0  0  0  0  0  0
   13.6738    9.2859    5.6394 C   0  0  0  0  0  0  0  0  0  0  0  0
   12.8044   10.2061    6.2280 C   0  0  0  0  0  0  0  0  0  0  0  0
    5.8807   10.3784    7.7874 C   0  0  0  0  0  0  0  0  0  0  0  0
    5.6384   10.9470    9.1967 C   0  0  0  0  0  0  0  0  0  0  0  0
    9.3406   10.0286   11.6979 H   0  0  0  0  0  0  0  0  0  0  0  0
    8.3236    8.6276   11.3965 H   0  0  0  0  0  0  0  0  0  0  0  0
    4.8925    8.7813   10.9622 H   0  0  0  0  0  0  0  0  0  0  0  0
    6.4725    8.0655   10.7276 H   0  0  0  0  0  0  0  0  0  0  0  0
    4.2347    8.4886    8.7333 H   0  0  0  0  0  0  0  0  0  0  0  0
    5.3617    7.1519    8.8334 H   0  0  0  0  0  0  0  0  0  0  0  0
    8.7004   10.9164    8.0036 H   0  0  0  0  0  0  0  0  0  0  0  0
   10.9334   11.6857    7.4700 H   0  0  0  0  0  0  0  0  0  0  0  0
    9.2013    7.5081    5.3940 H   0  0  0  0  0  0  0  0  0  0  0  0
   11.4244    6.9994    4.5360 H   0  0  0  0  0  0  0  0  0  0  0  0
   13.8486    7.4162    4.5866 H   0  0  0  0  0  0  0  0  0  0  0  0
   14.7472    9.4476    5.6901 H   0  0  0  0  0  0  0  0  0  0  0  0
   13.2195   11.0770    6.7281 H   0  0  0  0  0  0  0  0  0  0  0  0
    4.9945   10.5895    7.1742 H   0  0  0  0  0  0  0  0  0  0  0  0
    6.6887   10.9009    7.2825 H   0  0  0  0  0  0  0  0  0  0  0  0
    5.9572   11.9933    9.2403 H   0  0  0  0  0  0  0  0  0  0  0  0
    4.5653   10.9398    9.4256 H   0  0  0  0  0  0  0  0  0  0  0  0
  1  2  2  0  0  0  0
  2  3  1  0  0  0  0
  2  5  1  0  0  0  0
  3  4  1  0  0  0  0
  3 24  1  0  0  0  0
  3 25  1  0  0  0  0
  5  6  1  0  0  0  0
  5 23  1  0  0  0  0
  6  7  1  0  0  0  0
  6 26  1  0  0  0  0
  6 27  1  0  0  0  0
  7  8  1  0  0  0  0
  7 28  1  0  0  0  0
  7 29  1  0  0  0  0
  8  9  1  0  0  0  0
  8 22  1  0  0  0  0
  9 10  2  0  0  0  0
  9 11  2  0  0  0  0
  9 12  1  0  0  0  0
 12 13  1  0  0  0  0
 12 17  2  0  0  0  0
 13 14  2  0  0  0  0
 13 30  1  0  0  0  0
 14 15  1  0  0  0  0
 14 31  1  0  0  0  0
 15 16  2  0  0  0  0
 15 21  1  0  0  0  0
 16 17  1  0  0  0  0
 16 18  1  0  0  0  0
 17 32  1  0  0  0  0
 18 19  2  0  0  0  0
 18 33  1  0  0  0  0
 19 20  1  0  0  0  0
 19 34  1  0  0  0  0
 20 21  2  0  0  0  0
 20 35  1  0  0  0  0
 21 36  1  0  0  0  0
 22 23  1  0  0  0  0
 22 37  1  0  0  0  0
 22 38  1  0  0  0  0
 23 39  1  0  0  0  0
 23 40  1  0  0  0  0
M  END
>  <name>


>  <Energy>
78.2349

$$$$

 OpenBabel06082022513D

 36 37  0  0  0  0  0  0  0  0999 V2000
    3.6971    9.1013    5.2773 O   0  0  0  0  0  0  0  0  0  0  0  0
    3.8075   10.2513    5.7118 C   0  0  0  0  0  0  0  0  0  0  0  0
    4.4916   11.3443    4.8973 C   0  0  0  0  0  0  0  0  0  0  0  0
    5.6885   10.6425    3.7776 Cl  0  0  0  0  0  0  0  0  0  0  0  0
    3.2210   10.5935    6.9338 N   0  0  0  0  0  0  0  0  0  0  0  0
    3.6669   11.6580    7.8459 C   0  0  0  0  0  0  0  0  0  0  0  0
    4.1244   11.0981    9.2296 C   0  0  0  0  0  0  0  0  0  0  0  0
    4.4341    9.6434    9.1999 N   0  0  0  0  0  0  0  0  0  0  0  0
    5.9425    9.0307    9.6010 S   0  0  0  0  0  0  0  0  0  0  0  0
    6.5259    9.9084   10.5899 O   0  0  0  0  0  0  0  0  0  0  0  0
    5.7921    7.6051    9.8407 O   0  0  0  0  0  0  0  0  0  0  0  0
    6.9735    9.2008    8.1522 C   0  0  0  0  0  0  0  0  0  0  0  0
    8.1027    8.3806    8.0368 C   0  0  0  0  0  0  0  0  0  0  0  0
    9.2224    8.8814    7.3742 C   0  0  0  0  0  0  0  0  0  0  0  0
    9.1534   10.1696    6.8308 C   0  0  0  0  0  0  0  0  0  0  0  0
   10.3497   10.9862    6.8888 N   0  3  0  0  0  0  0  0  0  0  0  0
   11.0365   11.0583    5.8615 O   0  0  0  0  0  0  0  0  0  0  0  0
   10.5659   11.5719    7.9572 O   0  5  0  0  0  0  0  0  0  0  0  0
    7.9584   10.8672    6.7170 C   0  0  0  0  0  0  0  0  0  0  0  0
    6.8667   10.3669    7.3988 C   0  0  0  0  0  0  0  0  0  0  0  0
    3.4688    8.7435    8.5226 C   0  0  0  0  0  0  0  0  0  0  0  0
    2.5022    9.5293    7.6350 C   0  0  0  0  0  0  0  0  0  0  0  0
    5.0386   12.0587    5.5066 H   0  0  0  0  0  0  0  0  0  0  0  0
    3.7395   11.8674    4.3032 H   0  0  0  0  0  0  0  0  0  0  0  0
    2.8194   12.3347    7.9995 H   0  0  0  0  0  0  0  0  0  0  0  0
    4.4547   12.2710    7.4074 H   0  0  0  0  0  0  0  0  0  0  0  0
    3.3113   11.2393    9.9530 H   0  0  0  0  0  0  0  0  0  0  0  0
    4.9638   11.6898    9.6099 H   0  0  0  0  0  0  0  0  0  0  0  0
    8.1775    7.4495    8.5964 H   0  0  0  0  0  0  0  0  0  0  0  0
   10.1677    8.3467    7.4176 H   0  0  0  0  0  0  0  0  0  0  0  0
    7.9135   11.8608    6.2789 H   0  0  0  0  0  0  0  0  0  0  0  0
    6.0025   10.9900    7.4787 H   0  0  0  0  0  0  0  0  0  0  0  0
    2.9076    8.1899    9.2837 H   0  0  0  0  0  0  0  0  0  0  0  0
    4.0144    8.0206    7.9085 H   0  0  0  0  0  0  0  0  0  0  0  0
    2.0017    8.8569    6.9317 H   0  0  0  0  0  0  0  0  0  0  0  0
    1.7217   10.0054    8.2407 H   0  0  0  0  0  0  0  0  0  0  0  0
  1  2  2  0  0  0  0
  2  3  1  0  0  0  0
  2  5  1  0  0  0  0
  3  4  1  0  0  0  0
  3 23  1  0  0  0  0
  3 24  1  0  0  0  0
  5  6  1  0  0  0  0
  5 22  1  0  0  0  0
  6  7  1  0  0  0  0
  6 25  1  0  0  0  0
  6 26  1  0  0  0  0
  7  8  1  0  0  0  0
  7 27  1  0  0  0  0
  7 28  1  0  0  0  0
  8  9  1  0  0  0  0
  8 21  1  0  0  0  0
  9 10  2  0  0  0  0
  9 11  2  0  0  0  0
  9 12  1  0  0  0  0
 12 13  1  0  0  0  0
 12 20  2  0  0  0  0
 13 14  2  0  0  0  0
 13 29  1  0  0  0  0
 14 15  1  0  0  0  0
 14 30  1  0  0  0  0
 15 16  1  0  0  0  0
 15 19  2  0  0  0  0
 16 17  2  0  0  0  0
 16 18  1  0  0  0  0
 19 20  1  0  0  0  0
 19 31  1  0  0  0  0
 20 32  1  0  0  0  0
 21 22  1  0  0  0  0
 21 33  1  0  0  0  0
 21 34  1  0  0  0  0
 22 35  1  0  0  0  0
 22 36  1  0  0  0  0
M  CHG  2  16   1  18  -1
M  END
>  <name>


>  <Energy>
115.316

$$$$

 OpenBabel06082022513D

 41 43  0  0  0  0  0  0  0  0999 V2000
    8.2160    7.5301    5.5170 O   0  0  0  0  0  0  0  0  0  0  0  0
    7.1563    8.1682    5.5686 C   0  0  0  0  0  0  0  0  0  0  0  0
    6.9759    9.4012    4.7046 C   0  0  0  0  0  0  0  0  0  0  0  0
    6.1942    8.9501    3.1825 Cl  0  0  0  0  0  0  0  0  0  0  0  0
    6.1461    7.8067    6.4611 N   0  0  0  0  0  0  0  0  0  0  0  0
    4.9520    8.6159    6.6777 C   0  0  0  0  0  0  0  0  0  0  0  0
    5.1401    9.5932    7.8540 C   0  0  0  0  0  0  0  0  0  0  0  0
    6.5768    9.6725    8.2827 N   0  0  0  0  0  0  0  0  0  0  0  0
    6.9902   10.9877    9.2987 S   0  0  0  0  0  0  0  0  0  0  0  0
    6.5599   12.1981    8.6325 O   0  0  0  0  0  0  0  0  0  0  0  0
    8.3490   10.8083    9.7585 O   0  0  0  0  0  0  0  0  0  0  0  0
    5.8878   10.6967   10.6716 C   0  0  0  0  0  0  0  0  0  0  0  0
    4.6052   11.2858   10.6319 C   0  0  0  0  0  0  0  0  0  0  0  0
    3.5608   10.6965   11.3382 C   0  0  0  0  0  0  0  0  0  0  0  0
    3.8349    9.5340   12.0390 C   0  0  0  0  0  0  0  0  0  0  0  0
    5.1426    9.0488   12.1801 C   0  0  0  0  0  0  0  0  0  0  0  0
    6.2035    9.6563   11.5450 C   0  0  0  0  0  0  0  0  0  0  0  0
    5.1569    7.7776   12.9683 C   0  0  0  0  0  0  0  0  0  0  0  0
    3.7143    7.3101   12.7409 C   0  0  0  0  0  0  0  0  0  0  0  0
    2.8588    8.5853   12.6683 C   0  0  0  0  0  0  0  0  0  0  0  0
    7.1958    8.3313    8.6083 C   0  0  0  0  0  0  0  0  0  0  0  0
    6.6288    7.2120    7.7006 C   0  0  0  0  0  0  0  0  0  0  0  0
    7.9610    9.8282    4.4888 H   0  0  0  0  0  0  0  0  0  0  0  0
    6.3967   10.1802    5.2036 H   0  0  0  0  0  0  0  0  0  0  0  0
    4.1272    7.9286    6.9127 H   0  0  0  0  0  0  0  0  0  0  0  0
    4.6461    9.1405    5.7671 H   0  0  0  0  0  0  0  0  0  0  0  0
    4.5368    9.2316    8.6922 H   0  0  0  0  0  0  0  0  0  0  0  0
    4.7652   10.5785    7.5625 H   0  0  0  0  0  0  0  0  0  0  0  0
    4.4003   12.1183    9.9619 H   0  0  0  0  0  0  0  0  0  0  0  0
    2.5545   11.0785   11.2537 H   0  0  0  0  0  0  0  0  0  0  0  0
    7.2025    9.2395   11.5924 H   0  0  0  0  0  0  0  0  0  0  0  0
    5.3544    7.9849   14.0247 H   0  0  0  0  0  0  0  0  0  0  0  0
    5.8812    7.0522   12.5830 H   0  0  0  0  0  0  0  0  0  0  0  0
    3.3688    6.6096   13.5052 H   0  0  0  0  0  0  0  0  0  0  0  0
    3.6611    6.7870   11.7737 H   0  0  0  0  0  0  0  0  0  0  0  0
    1.9780    8.4298   12.0398 H   0  0  0  0  0  0  0  0  0  0  0  0
    2.5656    8.9361   13.6622 H   0  0  0  0  0  0  0  0  0  0  0  0
    7.0368    8.0455    9.6484 H   0  0  0  0  0  0  0  0  0  0  0  0
    8.2718    8.4152    8.4325 H   0  0  0  0  0  0  0  0  0  0  0  0
    7.3919    6.4449    7.5163 H   0  0  0  0  0  0  0  0  0  0  0  0
    5.7852    6.7129    8.1934 H   0  0  0  0  0  0  0  0  0  0  0  0
  1  2  2  0  0  0  0
  2  3  1  0  0  0  0
  2  5  1  0  0  0  0
  3  4  1  0  0  0  0
  3 23  1  0  0  0  0
  3 24  1  0  0  0  0
  5  6  1  0  0  0  0
  5 22  1  0  0  0  0
  6  7  1  0  0  0  0
  6 25  1  0  0  0  0
  6 26  1  0  0  0  0
  7  8  1  0  0  0  0
  7 27  1  0  0  0  0
  7 28  1  0  0  0  0
  8  9  1  0  0  0  0
  8 21  1  0  0  0  0
  9 10  2  0  0  0  0
  9 11  2  0  0  0  0
  9 12  1  0  0  0  0
 12 13  1  0  0  0  0
 12 17  2  0  0  0  0
 13 14  2  0  0  0  0
 13 29  1  0  0  0  0
 14 15  1  0  0  0  0
 14 30  1  0  0  0  0
 15 16  2  0  0  0  0
 15 20  1  0  0  0  0
 16 17  1  0  0  0  0
 16 18  1  0  0  0  0
 17 31  1  0  0  0  0
 18 19  1  0  0  0  0
 18 32  1  0  0  0  0
 18 33  1  0  0  0  0
 19 20  1  0  0  0  0
 19 34  1  0  0  0  0
 19 35  1  0  0  0  0
 20 36  1  0  0  0  0
 20 37  1  0  0  0  0
 21 22  1  0  0  0  0
 21 38  1  0  0  0  0
 21 39  1  0  0  0  0
 22 40  1  0  0  0  0
 22 41  1  0  0  0  0
M  END
>  <name>


>  <Energy>
64.8278

$$$$

 OpenBabel06082022513D

 40 41  0  0  0  0  0  0  0  0999 V2000
   11.2591    6.2589    8.7397 C   0  0  0  0  0  0  0  0  0  0  0  0
    9.8128    6.1767    8.3379 C   0  0  0  0  0  0  0  0  0  0  0  0
    9.3208    7.1920    7.4950 C   0  0  0  0  0  0  0  0  0  0  0  0
    7.9733    7.2478    7.1294 C   0  0  0  0  0  0  0  0  0  0  0  0
    7.1124    6.2726    7.6140 C   0  0  0  0  0  0  0  0  0  0  0  0
    5.3585    6.4125    7.3846 S   0  0  0  0  0  0  0  0  0  0  0  0
    5.1257    6.9659    6.0631 O   0  0  0  0  0  0  0  0  0  0  0  0
    4.7631    5.1576    7.7909 O   0  0  0  0  0  0  0  0  0  0  0  0
    4.9300    7.5690    8.5506 N   0  0  0  0  0  0  0  0  0  0  0  0
    4.8534    8.9926    8.1390 C   0  0  0  0  0  0  0  0  0  0  0  0
    5.5821    9.9428    9.0920 C   0  0  0  0  0  0  0  0  0  0  0  0
    6.7892    9.3363    9.6440 N   0  0  0  0  0  0  0  0  0  0  0  0
    8.0460    9.9366    9.7027 C   0  0  0  0  0  0  0  0  0  0  0  0
    8.8980    9.5351   10.4956 O   0  0  0  0  0  0  0  0  0  0  0  0
    8.3121   11.0422    8.6875 C   0  0  0  0  0  0  0  0  0  0  0  0
    9.9688   11.6701    8.8086 Cl  0  0  0  0  0  0  0  0  0  0  0  0
    6.5680    8.1038   10.4038 C   0  0  0  0  0  0  0  0  0  0  0  0
    5.3062    7.3235    9.9720 C   0  0  0  0  0  0  0  0  0  0  0  0
    7.5942    5.2153    8.3926 C   0  0  0  0  0  0  0  0  0  0  0  0
    8.9341    5.1819    8.8093 C   0  0  0  0  0  0  0  0  0  0  0  0
    9.3220    4.0713    9.7453 C   0  0  0  0  0  0  0  0  0  0  0  0
   11.3973    7.0827    9.4526 H   0  0  0  0  0  0  0  0  0  0  0  0
   11.8861    6.4467    7.8612 H   0  0  0  0  0  0  0  0  0  0  0  0
   11.6347    5.3438    9.1972 H   0  0  0  0  0  0  0  0  0  0  0  0
    9.9915    7.9772    7.1485 H   0  0  0  0  0  0  0  0  0  0  0  0
    7.6070    8.0643    6.5137 H   0  0  0  0  0  0  0  0  0  0  0  0
    3.7960    9.2755    8.0838 H   0  0  0  0  0  0  0  0  0  0  0  0
    5.2728    9.1329    7.1384 H   0  0  0  0  0  0  0  0  0  0  0  0
    4.9392   10.1844    9.9482 H   0  0  0  0  0  0  0  0  0  0  0  0
    5.7865   10.8860    8.5835 H   0  0  0  0  0  0  0  0  0  0  0  0
    7.6379   11.8859    8.8417 H   0  0  0  0  0  0  0  0  0  0  0  0
    8.1904   10.6363    7.6788 H   0  0  0  0  0  0  0  0  0  0  0  0
    6.4887    8.3729   11.4638 H   0  0  0  0  0  0  0  0  0  0  0  0
    7.4602    7.4753   10.3135 H   0  0  0  0  0  0  0  0  0  0  0  0
    5.4401    6.2554   10.1764 H   0  0  0  0  0  0  0  0  0  0  0  0
    4.4574    7.6354   10.5912 H   0  0  0  0  0  0  0  0  0  0  0  0
    6.9087    4.4423    8.7396 H   0  0  0  0  0  0  0  0  0  0  0  0
   10.2422    4.2757   10.2925 H   0  0  0  0  0  0  0  0  0  0  0  0
    9.4290    3.1340    9.1928 H   0  0  0  0  0  0  0  0  0  0  0  0
    8.5409    3.9451   10.5044 H   0  0  0  0  0  0  0  0  0  0  0  0
  1  2  1  0  0  0  0
  1 22  1  0  0  0  0
  1 23  1  0  0  0  0
  1 24  1  0  0  0  0
  2  3  1  0  0  0  0
  2 20  2  0  0  0  0
  3  4  2  0  0  0  0
  3 25  1  0  0  0  0
  4  5  1  0  0  0  0
  4 26  1  0  0  0  0
  5  6  1  0  0  0  0
  5 19  2  0  0  0  0
  6  7  2  0  0  0  0
  6  8  2  0  0  0  0
  6  9  1  0  0  0  0
  9 10  1  0  0  0  0
  9 18  1  0  0  0  0
 10 11  1  0  0  0  0
 10 27  1  0  0  0  0
 10 28  1  0  0  0  0
 11 12  1  0  0  0  0
 11 29  1  0  0  0  0
 11 30  1  0  0  0  0
 12 13  1  0  0  0  0
 12 17  1  0  0  0  0
 13 14  2  0  0  0  0
 13 15  1  0  0  0  0
 15 16  1  0  0  0  0
 15 31  1  0  0  0  0
 15 32  1  0  0  0  0
 17 18  1  0  0  0  0
 17 33  1  0  0  0  0
 17 34  1  0  0  0  0
 18 35  1  0  0  0  0
 18 36  1  0  0  0  0
 19 20  1  0  0  0  0
 19 37  1  0  0  0  0
 20 21  1  0  0  0  0
 21 38  1  0  0  0  0
 21 39  1  0  0  0  0
 21 40  1  0  0  0  0
M  END
>  <name>


>  <Energy>
56.155

$$$$

 OpenBabel06082022513D

 34 35  0  0  0  0  0  0  0  0999 V2000
   10.4062    8.5715    9.5946 O   0  0  0  0  0  0  0  0  0  0  0  0
    9.2631    8.1666    9.8204 C   0  0  0  0  0  0  0  0  0  0  0  0
    8.2439    9.0753   10.4780 C   0  0  0  0  0  0  0  0  0  0  0  0
    7.0603    9.5812    9.2424 Cl  0  0  0  0  0  0  0  0  0  0  0  0
    8.8480    6.9072    9.4173 N   0  0  0  0  0  0  0  0  0  0  0  0
    9.5135    6.3068    8.2576 C   0  0  0  0  0  0  0  0  0  0  0  0
    8.4678    5.7161    7.2996 C   0  0  0  0  0  0  0  0  0  0  0  0
    7.6942    4.6521    7.9793 N   0  0  0  0  0  0  0  0  0  0  0  0
    6.5417    3.7860    7.1119 S   0  0  0  0  0  0  0  0  0  0  0  0
    6.6466    2.4090    7.5576 O   0  0  0  0  0  0  0  0  0  0  0  0
    6.6385    4.1403    5.7162 O   0  0  0  0  0  0  0  0  0  0  0  0
    4.9989    4.4176    7.7251 C   0  0  0  0  0  0  0  0  0  0  0  0
    4.7419    5.7913    7.6928 C   0  0  0  0  0  0  0  0  0  0  0  0
    3.6014    6.2869    8.3251 C   0  0  0  0  0  0  0  0  0  0  0  0
    2.7204    5.4128    8.9668 C   0  0  0  0  0  0  0  0  0  0  0  0
    2.9624    4.0391    8.9635 C   0  0  0  0  0  0  0  0  0  0  0  0
    4.1042    3.5368    8.3446 C   0  0  0  0  0  0  0  0  0  0  0  0
    7.6292    4.7149    9.4613 C   0  0  0  0  0  0  0  0  0  0  0  0
    7.6830    6.1804    9.9454 C   0  0  0  0  0  0  0  0  0  0  0  0
    8.7439    9.9773   10.8419 H   0  0  0  0  0  0  0  0  0  0  0  0
    7.7257    8.5907   11.3060 H   0  0  0  0  0  0  0  0  0  0  0  0
   10.1882    5.5283    8.6313 H   0  0  0  0  0  0  0  0  0  0  0  0
   10.1142    7.0541    7.7307 H   0  0  0  0  0  0  0  0  0  0  0  0
    8.9795    5.2979    6.4274 H   0  0  0  0  0  0  0  0  0  0  0  0
    7.7869    6.5066    6.9664 H   0  0  0  0  0  0  0  0  0  0  0  0
    5.4255    6.4768    7.1999 H   0  0  0  0  0  0  0  0  0  0  0  0
    3.4016    7.3566    8.3279 H   0  0  0  0  0  0  0  0  0  0  0  0
    1.8366    5.8042    9.4670 H   0  0  0  0  0  0  0  0  0  0  0  0
    2.2693    3.3608    9.4573 H   0  0  0  0  0  0  0  0  0  0  0  0
    4.2978    2.4675    8.3625 H   0  0  0  0  0  0  0  0  0  0  0  0
    8.4811    4.1523    9.8618 H   0  0  0  0  0  0  0  0  0  0  0  0
    6.7242    4.2376    9.8486 H   0  0  0  0  0  0  0  0  0  0  0  0
    6.7850    6.7106    9.6153 H   0  0  0  0  0  0  0  0  0  0  0  0
    7.7112    6.2239   11.0393 H   0  0  0  0  0  0  0  0  0  0  0  0
  1  2  2  0  0  0  0
  2  3  1  0  0  0  0
  2  5  1  0  0  0  0
  3  4  1  0  0  0  0
  3 20  1  0  0  0  0
  3 21  1  0  0  0  0
  5  6  1  0  0  0  0
  5 19  1  0  0  0  0
  6  7  1  0  0  0  0
  6 22  1  0  0  0  0
  6 23  1  0  0  0  0
  7  8  1  0  0  0  0
  7 24  1  0  0  0  0
  7 25  1  0  0  0  0
  8  9  1  0  0  0  0
  8 18  1  0  0  0  0
  9 10  2  0  0  0  0
  9 11  2  0  0  0  0
  9 12  1  0  0  0  0
 12 13  1  0  0  0  0
 12 17  2  0  0  0  0
 13 14  2  0  0  0  0
 13 26  1  0  0  0  0
 14 15  1  0  0  0  0
 14 27  1  0  0  0  0
 15 16  2  0  0  0  0
 15 28  1  0  0  0  0
 16 17  1  0  0  0  0
 16 29  1  0  0  0  0
 17 30  1  0  0  0  0
 18 19  1  0  0  0  0
 18 31  1  0  0  0  0
 18 32  1  0  0  0  0
 19 33  1  0  0  0  0
 19 34  1  0  0  0  0
M  END
>  <name>


>  <Energy>
47.6039

$$$$

 OpenBabel06082022513D

 34 35  0  0  0  0  0  0  0  0999 V2000
   11.3524    7.3206    7.5418 O   0  0  0  0  0  0  0  0  0  0  0  0
   10.8176    8.4156    7.7354 C   0  0  0  0  0  0  0  0  0  0  0  0
   11.4871    9.4297    8.6439 C   0  0  0  0  0  0  0  0  0  0  0  0
   10.5805    9.5799   10.1615 Cl  0  0  0  0  0  0  0  0  0  0  0  0
    9.6202    8.7452    7.1148 N   0  0  0  0  0  0  0  0  0  0  0  0
    8.8981   10.0162    7.2085 C   0  0  0  0  0  0  0  0  0  0  0  0
    7.4693    9.7985    7.7329 C   0  0  0  0  0  0  0  0  0  0  0  0
    6.7924    8.6235    7.1025 N   0  0  0  0  0  0  0  0  0  0  0  0
    5.8434    7.6427    8.1099 S   0  0  0  0  0  0  0  0  0  0  0  0
    5.2193    6.6154    7.3005 O   0  0  0  0  0  0  0  0  0  0  0  0
    5.0590    8.5100    8.9585 O   0  0  0  0  0  0  0  0  0  0  0  0
    7.0566    6.8456    9.1378 C   0  0  0  0  0  0  0  0  0  0  0  0
    7.3612    7.3804   10.3946 C   0  0  0  0  0  0  0  0  0  0  0  0
    8.4143    6.8388   11.1321 C   0  0  0  0  0  0  0  0  0  0  0  0
    9.1401    5.7683   10.6142 C   0  0  0  0  0  0  0  0  0  0  0  0
   10.1862    5.3050   11.3132 F   0  0  0  0  0  0  0  0  0  0  0  0
    8.7897    5.1960    9.3916 C   0  0  0  0  0  0  0  0  0  0  0  0
    9.6873    3.8772    8.7467 Cl  0  0  0  0  0  0  0  0  0  0  0  0
    7.7235    5.7143    8.6591 C   0  0  0  0  0  0  0  0  0  0  0  0
    7.5131    8.0032    5.9589 C   0  0  0  0  0  0  0  0  0  0  0  0
    9.0022    7.7490    6.2400 C   0  0  0  0  0  0  0  0  0  0  0  0
   11.5721   10.4041    8.1561 H   0  0  0  0  0  0  0  0  0  0  0  0
   12.4948    9.0813    8.8886 H   0  0  0  0  0  0  0  0  0  0  0  0
    8.8693   10.4391    6.1973 H   0  0  0  0  0  0  0  0  0  0  0  0
    9.4184   10.7416    7.8358 H   0  0  0  0  0  0  0  0  0  0  0  0
    6.8662   10.6924    7.5437 H   0  0  0  0  0  0  0  0  0  0  0  0
    7.5232    9.6704    8.8169 H   0  0  0  0  0  0  0  0  0  0  0  0
    6.8127    8.2343   10.7888 H   0  0  0  0  0  0  0  0  0  0  0  0
    8.6957    7.2637   12.0909 H   0  0  0  0  0  0  0  0  0  0  0  0
    7.4507    5.2745    7.7032 H   0  0  0  0  0  0  0  0  0  0  0  0
    7.4199    8.6976    5.1141 H   0  0  0  0  0  0  0  0  0  0  0  0
    7.0331    7.0775    5.6271 H   0  0  0  0  0  0  0  0  0  0  0  0
    9.1464    6.7549    6.6707 H   0  0  0  0  0  0  0  0  0  0  0  0
    9.5573    7.7512    5.2940 H   0  0  0  0  0  0  0  0  0  0  0  0
  1  2  2  0  0  0  0
  2  3  1  0  0  0  0
  2  5  1  0  0  0  0
  3  4  1  0  0  0  0
  3 22  1  0  0  0  0
  3 23  1  0  0  0  0
  5  6  1  0  0  0  0
  5 21  1  0  0  0  0
  6  7  1  0  0  0  0
  6 24  1  0  0  0  0
  6 25  1  0  0  0  0
  7  8  1  0  0  0  0
  7 26  1  0  0  0  0
  7 27  1  0  0  0  0
  8  9  1  0  0  0  0
  8 20  1  0  0  0  0
  9 10  2  0  0  0  0
  9 11  2  0  0  0  0
  9 12  1  0  0  0  0
 12 13  1  0  0  0  0
 12 19  2  0  0  0  0
 13 14  2  0  0  0  0
 13 28  1  0  0  0  0
 14 15  1  0  0  0  0
 14 29  1  0  0  0  0
 15 16  1  0  0  0  0
 15 17  2  0  0  0  0
 17 18  1  0  0  0  0
 17 19  1  0  0  0  0
 19 30  1  0  0  0  0
 20 21  1  0  0  0  0
 20 31  1  0  0  0  0
 20 32  1  0  0  0  0
 21 33  1  0  0  0  0
 21 34  1  0  0  0  0
M  END
>  <name>


>  <Energy>
39.1334

$$$$

 OpenBabel06082022513D

 39 40  0  0  0  0  0  0  0  0999 V2000
    6.3530    9.3422    5.2135 C   0  0  0  0  0  0  0  0  0  0  0  0
    6.8901   10.4925    6.0273 C   0  0  0  0  0  0  0  0  0  0  0  0
    6.8829   11.6399    5.5832 O   0  0  0  0  0  0  0  0  0  0  0  0
    7.4078   10.2679    7.4052 C   0  0  0  0  0  0  0  0  0  0  0  0
    8.3242   11.1748    7.9502 C   0  0  0  0  0  0  0  0  0  0  0  0
    8.6596   11.1171    9.3079 C   0  0  0  0  0  0  0  0  0  0  0  0
    8.0012   10.2274   10.1577 C   0  0  0  0  0  0  0  0  0  0  0  0
    7.0649    9.3532    9.6109 C   0  0  0  0  0  0  0  0  0  0  0  0
    6.0459    8.3239   10.6367 S   0  0  0  0  0  0  0  0  0  0  0  0
    5.8770    7.0870    9.9004 O   0  0  0  0  0  0  0  0  0  0  0  0
    6.5910    8.3232   11.9744 O   0  0  0  0  0  0  0  0  0  0  0  0
    4.5268    9.1263   10.7009 N   0  0  0  0  0  0  0  0  0  0  0  0
    3.9790    9.8129    9.4898 C   0  0  0  0  0  0  0  0  0  0  0  0
    3.4455    8.8357    8.4238 C   0  0  0  0  0  0  0  0  0  0  0  0
    2.9801    7.5837    9.0184 N   0  0  0  0  0  0  0  0  0  0  0  0
    3.3217    6.2917    8.6100 C   0  0  0  0  0  0  0  0  0  0  0  0
    2.9220    5.3160    9.2574 O   0  0  0  0  0  0  0  0  0  0  0  0
    4.2271    6.1174    7.3964 C   0  0  0  0  0  0  0  0  0  0  0  0
    3.8505    4.6189    6.5171 Cl  0  0  0  0  0  0  0  0  0  0  0  0
    2.3917    7.7633   10.3442 C   0  0  0  0  0  0  0  0  0  0  0  0
    3.4492    8.2733   11.3578 C   0  0  0  0  0  0  0  0  0  0  0  0
    6.8673    9.2847    8.2269 C   0  0  0  0  0  0  0  0  0  0  0  0
    5.7017    9.7426    4.4281 H   0  0  0  0  0  0  0  0  0  0  0  0
    5.7397    8.6575    5.7987 H   0  0  0  0  0  0  0  0  0  0  0  0
    7.1813    8.8054    4.7486 H   0  0  0  0  0  0  0  0  0  0  0  0
    8.7670   11.9431    7.3185 H   0  0  0  0  0  0  0  0  0  0  0  0
    9.3970   11.8083    9.7111 H   0  0  0  0  0  0  0  0  0  0  0  0
    8.2076   10.2327   11.2255 H   0  0  0  0  0  0  0  0  0  0  0  0
    4.6875   10.5305    9.0682 H   0  0  0  0  0  0  0  0  0  0  0  0
    3.1471   10.4428    9.8361 H   0  0  0  0  0  0  0  0  0  0  0  0
    4.1871    8.6628    7.6535 H   0  0  0  0  0  0  0  0  0  0  0  0
    2.5860    9.2931    7.9195 H   0  0  0  0  0  0  0  0  0  0  0  0
    5.2696    6.0584    7.7186 H   0  0  0  0  0  0  0  0  0  0  0  0
    4.1153    6.9212    6.6700 H   0  0  0  0  0  0  0  0  0  0  0  0
    1.9240    6.8469   10.7170 H   0  0  0  0  0  0  0  0  0  0  0  0
    1.5896    8.5043   10.2379 H   0  0  0  0  0  0  0  0  0  0  0  0
    2.9584    8.8759   12.1310 H   0  0  0  0  0  0  0  0  0  0  0  0
    3.9030    7.4173   11.8687 H   0  0  0  0  0  0  0  0  0  0  0  0
    6.2157    8.5239    7.8323 H   0  0  0  0  0  0  0  0  0  0  0  0
  1  2  1  0  0  0  0
  1 23  1  0  0  0  0
  1 24  1  0  0  0  0
  1 25  1  0  0  0  0
  2  3  2  0  0  0  0
  2  4  1  0  0  0  0
  4  5  1  0  0  0  0
  4 22  2  0  0  0  0
  5  6  2  0  0  0  0
  5 26  1  0  0  0  0
  6  7  1  0  0  0  0
  6 27  1  0  0  0  0
  7  8  2  0  0  0  0
  7 28  1  0  0  0  0
  8  9  1  0  0  0  0
  8 22  1  0  0  0  0
  9 10  2  0  0  0  0
  9 11  2  0  0  0  0
  9 12  1  0  0  0  0
 12 13  1  0  0  0  0
 12 21  1  0  0  0  0
 13 14  1  0  0  0  0
 13 29  1  0  0  0  0
 13 30  1  0  0  0  0
 14 15  1  0  0  0  0
 14 31  1  0  0  0  0
 14 32  1  0  0  0  0
 15 16  1  0  0  0  0
 15 20  1  0  0  0  0
 16 17  2  0  0  0  0
 16 18  1  0  0  0  0
 18 19  1  0  0  0  0
 18 33  1  0  0  0  0
 18 34  1  0  0  0  0
 20 21  1  0  0  0  0
 20 35  1  0  0  0  0
 20 36  1  0  0  0  0
 21 37  1  0  0  0  0
 21 38  1  0  0  0  0
 22 39  1  0  0  0  0
M  END
>  <name>


>  <Energy>
74.6844

$$$$

 OpenBabel06082022513D

 34 35  0  0  0  0  0  0  0  0999 V2000
    8.8495    7.0552    4.0675 O   0  0  0  0  0  0  0  0  0  0  0  0
    8.8680    8.2679    4.2885 C   0  0  0  0  0  0  0  0  0  0  0  0
   10.1985    9.0103    4.3490 C   0  0  0  0  0  0  0  0  0  0  0  0
   11.1713    8.4081    5.7067 Cl  0  0  0  0  0  0  0  0  0  0  0  0
    7.6836    8.9812    4.4753 N   0  0  0  0  0  0  0  0  0  0  0  0
    6.4479    8.2357    4.7717 C   0  0  0  0  0  0  0  0  0  0  0  0
    5.6665    8.8671    5.9580 C   0  0  0  0  0  0  0  0  0  0  0  0
    6.5944    9.4836    6.9408 N   0  0  0  0  0  0  0  0  0  0  0  0
    6.9616    8.7144    8.4056 S   0  0  0  0  0  0  0  0  0  0  0  0
    5.7369    8.6271    9.1709 O   0  0  0  0  0  0  0  0  0  0  0  0
    8.1119    9.3824    8.9727 O   0  0  0  0  0  0  0  0  0  0  0  0
    7.4610    7.0750    7.9269 C   0  0  0  0  0  0  0  0  0  0  0  0
    8.8311    6.8321    7.7552 C   0  0  0  0  0  0  0  0  0  0  0  0
    9.2660    5.6492    7.1527 C   0  0  0  0  0  0  0  0  0  0  0  0
    8.3388    4.7054    6.7253 C   0  0  0  0  0  0  0  0  0  0  0  0
    6.9876    4.8925    7.0037 C   0  0  0  0  0  0  0  0  0  0  0  0
    6.5453    6.0525    7.6521 C   0  0  0  0  0  0  0  0  0  0  0  0
    4.8643    6.0744    8.0460 Cl  0  0  0  0  0  0  0  0  0  0  0  0
    7.5249   10.5018    6.3749 C   0  0  0  0  0  0  0  0  0  0  0  0
    7.5957   10.3921    4.8425 C   0  0  0  0  0  0  0  0  0  0  0  0
   10.1149   10.0821    4.4916 H   0  0  0  0  0  0  0  0  0  0  0  0
   10.7503    8.8301    3.4226 H   0  0  0  0  0  0  0  0  0  0  0  0
    6.6728    7.1863    4.9787 H   0  0  0  0  0  0  0  0  0  0  0  0
    5.8223    8.2593    3.8721 H   0  0  0  0  0  0  0  0  0  0  0  0
    4.9845    8.1490    6.4075 H   0  0  0  0  0  0  0  0  0  0  0  0
    5.0146    9.6651    5.5818 H   0  0  0  0  0  0  0  0  0  0  0  0
    9.5725    7.5708    8.0545 H   0  0  0  0  0  0  0  0  0  0  0  0
   10.3265    5.4860    6.9722 H   0  0  0  0  0  0  0  0  0  0  0  0
    8.6667    3.8219    6.1834 H   0  0  0  0  0  0  0  0  0  0  0  0
    6.2739    4.1312    6.6955 H   0  0  0  0  0  0  0  0  0  0  0  0
    8.5336   10.3771    6.7755 H   0  0  0  0  0  0  0  0  0  0  0  0
    7.1636   11.4979    6.6514 H   0  0  0  0  0  0  0  0  0  0  0  0
    6.6815   10.7880    4.3817 H   0  0  0  0  0  0  0  0  0  0  0  0
    8.4105   10.9877    4.4299 H   0  0  0  0  0  0  0  0  0  0  0  0
  1  2  2  0  0  0  0
  2  3  1  0  0  0  0
  2  5  1  0  0  0  0
  3  4  1  0  0  0  0
  3 21  1  0  0  0  0
  3 22  1  0  0  0  0
  5  6  1  0  0  0  0
  5 20  1  0  0  0  0
  6  7  1  0  0  0  0
  6 23  1  0  0  0  0
  6 24  1  0  0  0  0
  7  8  1  0  0  0  0
  7 25  1  0  0  0  0
  7 26  1  0  0  0  0
  8  9  1  0  0  0  0
  8 19  1  0  0  0  0
  9 10  2  0  0  0  0
  9 11  2  0  0  0  0
  9 12  1  0  0  0  0
 12 13  1  0  0  0  0
 12 17  2  0  0  0  0
 13 14  2  0  0  0  0
 13 27  1  0  0  0  0
 14 15  1  0  0  0  0
 14 28  1  0  0  0  0
 15 16  2  0  0  0  0
 15 29  1  0  0  0  0
 16 17  1  0  0  0  0
 16 30  1  0  0  0  0
 17 18  1  0  0  0  0
 19 20  1  0  0  0  0
 19 31  1  0  0  0  0
 19 32  1  0  0  0  0
 20 33  1  0  0  0  0
 20 34  1  0  0  0  0
M  END
>  <name>


>  <Energy>
41.9079

$$$$

 OpenBabel06082022513D

 39 40  0  0  0  0  0  0  0  0999 V2000
    5.0758   10.3037    4.7193 C   0  0  0  0  0  0  0  0  0  0  0  0
    6.3989    9.6124    4.4618 C   0  0  0  0  0  0  0  0  0  0  0  0
    7.3015   10.0883    3.7782 O   0  0  0  0  0  0  0  0  0  0  0  0
    6.5874    8.3346    5.1773 C   0  0  0  0  0  0  0  0  0  0  0  0
    7.4824    8.3506    6.2451 C   0  0  0  0  0  0  0  0  0  0  0  0
    7.1696    7.5951    7.3686 C   0  0  0  0  0  0  0  0  0  0  0  0
    5.9360    6.9178    7.4047 C   0  0  0  0  0  0  0  0  0  0  0  0
    4.7706    7.6374    8.6233 S   0  0  0  0  0  0  0  0  0  0  0  0
    5.1635    9.0288    8.7352 O   0  0  0  0  0  0  0  0  0  0  0  0
    3.4305    7.3108    8.1934 O   0  0  0  0  0  0  0  0  0  0  0  0
    4.9972    6.8669   10.1171 N   0  0  0  0  0  0  0  0  0  0  0  0
    4.2113    7.5528   11.1991 C   0  0  0  0  0  0  0  0  0  0  0  0
    4.8410    8.9023   11.6047 C   0  0  0  0  0  0  0  0  0  0  0  0
    6.2857    9.0342   11.3497 N   0  0  0  0  0  0  0  0  0  0  0  0
    6.8143   10.3264   11.3607 C   0  0  0  0  0  0  0  0  0  0  0  0
    6.1231   11.3011   11.6708 O   0  0  0  0  0  0  0  0  0  0  0  0
    8.2738   10.5301   10.9844 C   0  0  0  0  0  0  0  0  0  0  0  0
    8.4107   10.7471    9.2290 Cl  0  0  0  0  0  0  0  0  0  0  0  0
    7.0842    7.8217   11.1807 C   0  0  0  0  0  0  0  0  0  0  0  0
    6.3556    6.5925   10.6230 C   0  0  0  0  0  0  0  0  0  0  0  0
    5.2886    6.5926    6.2040 C   0  0  0  0  0  0  0  0  0  0  0  0
    5.5834    7.3647    5.0849 C   0  0  0  0  0  0  0  0  0  0  0  0
    5.1878   11.3832    4.6009 H   0  0  0  0  0  0  0  0  0  0  0  0
    4.7463   10.1259    5.7502 H   0  0  0  0  0  0  0  0  0  0  0  0
    4.3172    9.9305    4.0271 H   0  0  0  0  0  0  0  0  0  0  0  0
    8.2675    9.1031    6.3010 H   0  0  0  0  0  0  0  0  0  0  0  0
    7.7158    7.8118    8.2808 H   0  0  0  0  0  0  0  0  0  0  0  0
    4.1786    6.8862   12.0681 H   0  0  0  0  0  0  0  0  0  0  0  0
    3.1669    7.6926   10.8916 H   0  0  0  0  0  0  0  0  0  0  0  0
    4.6676    9.0888   12.6704 H   0  0  0  0  0  0  0  0  0  0  0  0
    4.3264    9.7115   11.0698 H   0  0  0  0  0  0  0  0  0  0  0  0
    8.9132    9.7026   11.2950 H   0  0  0  0  0  0  0  0  0  0  0  0
    8.6491   11.4335   11.4732 H   0  0  0  0  0  0  0  0  0  0  0  0
    7.4961    7.5791   12.1678 H   0  0  0  0  0  0  0  0  0  0  0  0
    7.9414    8.0257   10.5371 H   0  0  0  0  0  0  0  0  0  0  0  0
    6.9606    6.0763    9.8722 H   0  0  0  0  0  0  0  0  0  0  0  0
    6.2493    5.8554   11.4317 H   0  0  0  0  0  0  0  0  0  0  0  0
    4.3648    6.0175    6.2116 H   0  0  0  0  0  0  0  0  0  0  0  0
    4.9086    7.3446    4.2313 H   0  0  0  0  0  0  0  0  0  0  0  0
  1  2  1  0  0  0  0
  1 23  1  0  0  0  0
  1 24  1  0  0  0  0
  1 25  1  0  0  0  0
  2  3  2  0  0  0  0
  2  4  1  0  0  0  0
  4  5  1  0  0  0  0
  4 22  2  0  0  0  0
  5  6  2  0  0  0  0
  5 26  1  0  0  0  0
  6  7  1  0  0  0  0
  6 27  1  0  0  0  0
  7  8  1  0  0  0  0
  7 21  2  0  0  0  0
  8  9  2  0  0  0  0
  8 10  2  0  0  0  0
  8 11  1  0  0  0  0
 11 12  1  0  0  0  0
 11 20  1  0  0  0  0
 12 13  1  0  0  0  0
 12 28  1  0  0  0  0
 12 29  1  0  0  0  0
 13 14  1  0  0  0  0
 13 30  1  0  0  0  0
 13 31  1  0  0  0  0
 14 15  1  0  0  0  0
 14 19  1  0  0  0  0
 15 16  2  0  0  0  0
 15 17  1  0  0  0  0
 17 18  1  0  0  0  0
 17 32  1  0  0  0  0
 17 33  1  0  0  0  0
 19 20  1  0  0  0  0
 19 34  1  0  0  0  0
 19 35  1  0  0  0  0
 20 36  1  0  0  0  0
 20 37  1  0  0  0  0
 21 22  1  0  0  0  0
 21 38  1  0  0  0  0
 22 39  1  0  0  0  0
M  END
>  <name>


>  <Energy>
120.815

$$$$

 OpenBabel06082022513D

 36 38  0  0  0  0  0  0  0  0999 V2000
   10.2442    6.4120    4.9467 O   0  0  0  0  0  0  0  0  0  0  0  0
    9.3695    7.2160    4.6196 C   0  0  0  0  0  0  0  0  0  0  0  0
    9.7333    8.5928    4.0723 C   0  0  0  0  0  0  0  0  0  0  0  0
   10.9133    9.3947    5.1283 Cl  0  0  0  0  0  0  0  0  0  0  0  0
    8.0237    6.8756    4.6825 N   0  0  0  0  0  0  0  0  0  0  0  0
    6.9353    7.8134    4.9287 C   0  0  0  0  0  0  0  0  0  0  0  0
    5.9306    7.2616    5.9698 C   0  0  0  0  0  0  0  0  0  0  0  0
    6.4559    6.2502    6.9126 N   0  0  0  0  0  0  0  0  0  0  0  0
    7.5077    6.6579    7.8713 C   0  0  0  0  0  0  0  0  0  0  0  0
    7.5039    8.1190    8.2485 C   0  0  0  0  0  0  0  0  0  0  0  0
    6.3502    8.6881    8.9623 C   0  0  0  0  0  0  0  0  0  0  0  0
    6.1210   10.0210    8.9494 C   0  0  0  0  0  0  0  0  0  0  0  0
    7.0533   10.8453    8.2173 C   0  0  0  0  0  0  0  0  0  0  0  0
    8.1934   10.3396    7.7443 C   0  0  0  0  0  0  0  0  0  0  0  0
    8.4858    8.9410    7.8075 C   0  0  0  0  0  0  0  0  0  0  0  0
    8.6239   11.1716    6.8049 O   0  0  0  0  0  0  0  0  0  0  0  0
    7.7491   12.1315    6.8261 C   0  0  0  0  0  0  0  0  0  0  0  0
    6.6886   12.0664    7.7027 O   0  0  0  0  0  0  0  0  0  0  0  0
    6.9475    5.0934    6.1137 C   0  0  0  0  0  0  0  0  0  0  0  0
    7.6418    5.4601    4.7751 C   0  0  0  0  0  0  0  0  0  0  0  0
    8.8782    9.2612    3.9668 H   0  0  0  0  0  0  0  0  0  0  0  0
   10.1874    8.4613    3.0863 H   0  0  0  0  0  0  0  0  0  0  0  0
    6.4248    7.9942    3.9766 H   0  0  0  0  0  0  0  0  0  0  0  0
    7.3353    8.7668    5.2789 H   0  0  0  0  0  0  0  0  0  0  0  0
    5.1047    6.7893    5.4189 H   0  0  0  0  0  0  0  0  0  0  0  0
    5.4415    8.0905    6.4913 H   0  0  0  0  0  0  0  0  0  0  0  0
    8.5034    6.4030    7.4846 H   0  0  0  0  0  0  0  0  0  0  0  0
    7.3881    6.0558    8.7824 H   0  0  0  0  0  0  0  0  0  0  0  0
    5.6813    8.0011    9.4819 H   0  0  0  0  0  0  0  0  0  0  0  0
    5.2630   10.4615    9.4482 H   0  0  0  0  0  0  0  0  0  0  0  0
    9.3511    8.5718    7.2745 H   0  0  0  0  0  0  0  0  0  0  0  0
    7.6904   13.0203    6.1850 H   0  0  0  0  0  0  0  0  0  0  0  0
    6.0860    4.4551    5.8791 H   0  0  0  0  0  0  0  0  0  0  0  0
    7.6097    4.4559    6.7130 H   0  0  0  0  0  0  0  0  0  0  0  0
    8.5009    4.8058    4.5987 H   0  0  0  0  0  0  0  0  0  0  0  0
    6.9365    5.2920    3.9508 H   0  0  0  0  0  0  0  0  0  0  0  0
  1  2  2  0  0  0  0
  2  3  1  0  0  0  0
  2  5  1  0  0  0  0
  3  4  1  0  0  0  0
  3 21  1  0  0  0  0
  3 22  1  0  0  0  0
  5  6  1  0  0  0  0
  5 20  1  0  0  0  0
  6  7  1  0  0  0  0
  6 23  1  0  0  0  0
  6 24  1  0  0  0  0
  7  8  1  0  0  0  0
  7 25  1  0  0  0  0
  7 26  1  0  0  0  0
  8  9  1  0  0  0  0
  8 19  1  0  0  0  0
  9 10  1  0  0  0  0
  9 27  1  0  0  0  0
  9 28  1  0  0  0  0
 10 11  1  0  0  0  0
 10 15  2  0  0  0  0
 11 12  2  0  0  0  0
 11 29  1  0  0  0  0
 12 13  1  0  0  0  0
 12 30  1  0  0  0  0
 13 14  3  0  0  0  0
 13 18  1  0  0  0  0
 14 15  1  0  0  0  0
 14 16  1  0  0  0  0
 15 31  1  0  0  0  0
 16 17  2  0  0  0  0
 17 18  1  0  0  0  0
 17 32  1  0  0  0  0
 19 20  1  0  0  0  0
 19 33  1  0  0  0  0
 19 34  1  0  0  0  0
 20 35  1  0  0  0  0
 20 36  1  0  0  0  0
M  END
>  <name>


>  <Energy>
133.103

$$$$

 OpenBabel06082022513D

 29 30  0  0  0  0  0  0  0  0999 V2000
   10.0459    7.4622   10.1657 C   0  0  0  0  0  0  0  0  0  0  0  0
    9.0245    7.4892    9.0645 C   0  0  0  0  0  0  0  0  0  0  0  0
    9.3315    8.0467    7.8182 C   0  0  0  0  0  0  0  0  0  0  0  0
    8.4641    7.8817    6.7377 C   0  0  0  0  0  0  0  0  0  0  0  0
    7.3415    7.0641    6.8663 C   0  0  0  0  0  0  0  0  0  0  0  0
    7.0725    6.4357    8.0909 C   0  0  0  0  0  0  0  0  0  0  0  0
    6.3792    5.1768    8.0655 N   0  0  0  0  0  0  0  0  0  0  0  0
    7.2185    4.0870    7.6957 C   0  0  0  0  0  0  0  0  0  0  0  0
    7.0331    3.3978    6.6881 O   0  0  0  0  0  0  0  0  0  0  0  0
    8.3361    3.7469    8.6661 C   0  0  0  0  0  0  0  0  0  0  0  0
    9.9138    3.9953    7.9036 Cl  0  0  0  0  0  0  0  0  0  0  0  0
    5.0214    5.0805    7.7671 C   0  0  0  0  0  0  0  0  0  0  0  0
    4.4136    3.8398    7.3979 C   0  0  0  0  0  0  0  0  0  0  0  0
    3.2315    3.8017    7.2187 C   0  0  0  0  0  0  0  0  0  0  0  0
    2.4943    5.3725    7.5268 S   0  0  0  0  0  0  0  0  0  0  0  0
    2.0235    5.6511    6.1906 O   0  0  0  0  0  0  0  0  0  0  0  0
    1.7033    5.0029    8.6722 O   0  0  0  0  0  0  0  0  0  0  0  0
    4.0775    6.0437    7.8998 C   0  0  0  0  0  0  0  0  0  0  0  0
    7.8428    6.7535    9.2134 C   0  0  0  0  0  0  0  0  0  0  0  0
   10.8044    8.2387   10.0341 H   0  0  0  0  0  0  0  0  0  0  0  0
   10.5500    6.4877   10.1569 H   0  0  0  0  0  0  0  0  0  0  0  0
    9.5745    7.6022   11.1426 H   0  0  0  0  0  0  0  0  0  0  0  0
   10.2769    8.5638    7.6645 H   0  0  0  0  0  0  0  0  0  0  0  0
    8.7254    8.2954    5.7660 H   0  0  0  0  0  0  0  0  0  0  0  0
    6.7677    6.8179    5.9750 H   0  0  0  0  0  0  0  0  0  0  0  0
    8.2363    2.6913    8.9334 H   0  0  0  0  0  0  0  0  0  0  0  0
    8.2921    4.3042    9.6004 H   0  0  0  0  0  0  0  0  0  0  0  0
    4.1852    7.0618    8.2272 H   0  0  0  0  0  0  0  0  0  0  0  0
    7.6206    6.2938   10.1740 H   0  0  0  0  0  0  0  0  0  0  0  0
  1  2  1  0  0  0  0
  1 20  1  0  0  0  0
  1 21  1  0  0  0  0
  1 22  1  0  0  0  0
  2  3  1  0  0  0  0
  2 19  2  0  0  0  0
  3  4  2  0  0  0  0
  3 23  1  0  0  0  0
  4  5  1  0  0  0  0
  4 24  1  0  0  0  0
  5  6  2  0  0  0  0
  5 25  1  0  0  0  0
  6  7  1  0  0  0  0
  6 19  1  0  0  0  0
  7  8  1  0  0  0  0
  7 12  1  0  0  0  0
  8  9  2  0  0  0  0
  8 10  1  0  0  0  0
 10 11  1  0  0  0  0
 10 26  1  0  0  0  0
 10 27  1  0  0  0  0
 12 13  1  0  0  0  0
 12 18  2  0  0  0  0
 13 14  3  0  0  0  0
 14 15  1  0  0  0  0
 15 16  2  0  0  0  0
 15 17  2  0  0  0  0
 15 18  1  0  0  0  0
 18 28  1  0  0  0  0
 19 29  1  0  0  0  0
M  END
>  <name>


>  <Energy>
156.177

$$$$

 OpenBabel06082022513D

 38 40  0  0  0  0  0  0  0  0999 V2000
    8.7602    7.9053   10.9183 O   0  0  0  0  0  0  0  0  0  0  0  0
    9.6282    8.3527   10.1443 C   0  0  0  0  0  0  0  0  0  0  0  0
   11.1077    8.3539   10.5168 C   0  0  0  0  0  0  0  0  0  0  0  0
   11.8676    9.9045   10.1193 Cl  0  0  0  0  0  0  0  0  0  0  0  0
    9.2439    8.7894    8.8873 N   0  0  0  0  0  0  0  0  0  0  0  0
    8.5504   10.0849    8.7975 C   0  0  0  0  0  0  0  0  0  0  0  0
    7.6998   10.2302    7.5043 C   0  0  0  0  0  0  0  0  0  0  0  0
    7.7688    9.0711    6.6216 N   0  0  0  0  0  0  0  0  0  0  0  0
    6.7803    7.9933    6.6447 C   0  0  0  0  0  0  0  0  0  0  0  0
    6.2745    7.4019    7.9639 C   0  0  0  0  0  0  0  0  0  0  0  0
    5.9948    6.0219    8.0197 C   0  0  0  0  0  0  0  0  0  0  0  0
    5.7514    5.3598    9.2301 C   0  0  0  0  0  0  0  0  0  0  0  0
    5.8304    6.0893   10.4072 C   0  0  0  0  0  0  0  0  0  0  0  0
    5.9207    7.5274   10.3420 C   0  0  0  0  0  0  0  0  0  0  0  0
    6.0376    8.1608    9.1197 C   0  0  0  0  0  0  0  0  0  0  0  0
    5.9783    8.2184   11.4122 O   0  0  0  0  0  0  0  0  0  0  0  0
    6.3576    7.5935   12.4531 C   0  0  0  0  0  0  0  0  0  0  0  0
    6.2946    6.1671   12.5166 C   0  0  0  0  0  0  0  0  0  0  0  0
    5.8800    5.4825   11.5200 O   0  0  0  0  0  0  0  0  0  0  0  0
    9.1720    8.7016    6.3852 C   0  0  0  0  0  0  0  0  0  0  0  0
    9.9788    8.4056    7.6700 C   0  0  0  0  0  0  0  0  0  0  0  0
   11.6382    7.5335   10.0299 H   0  0  0  0  0  0  0  0  0  0  0  0
   11.1846    8.2475   11.6029 H   0  0  0  0  0  0  0  0  0  0  0  0
    9.3172   10.8680    8.8205 H   0  0  0  0  0  0  0  0  0  0  0  0
    7.9410   10.2233    9.6970 H   0  0  0  0  0  0  0  0  0  0  0  0
    8.0963   11.0955    6.9581 H   0  0  0  0  0  0  0  0  0  0  0  0
    6.6674   10.5338    7.7165 H   0  0  0  0  0  0  0  0  0  0  0  0
    7.2290    7.1486    6.1014 H   0  0  0  0  0  0  0  0  0  0  0  0
    5.9120    8.2835    6.0451 H   0  0  0  0  0  0  0  0  0  0  0  0
    6.0015    5.4298    7.0959 H   0  0  0  0  0  0  0  0  0  0  0  0
    5.5715    4.2907    9.2579 H   0  0  0  0  0  0  0  0  0  0  0  0
    6.0443    9.2368    9.1325 H   0  0  0  0  0  0  0  0  0  0  0  0
    6.7358    8.1604   13.3095 H   0  0  0  0  0  0  0  0  0  0  0  0
    6.6172    5.6504   13.4191 H   0  0  0  0  0  0  0  0  0  0  0  0
    9.6501    9.5598    5.8878 H   0  0  0  0  0  0  0  0  0  0  0  0
    9.2760    7.8870    5.6594 H   0  0  0  0  0  0  0  0  0  0  0  0
   10.2022    7.3356    7.7397 H   0  0  0  0  0  0  0  0  0  0  0  0
   10.9303    8.9458    7.6363 H   0  0  0  0  0  0  0  0  0  0  0  0
  1  2  2  0  0  0  0
  2  3  1  0  0  0  0
  2  5  1  0  0  0  0
  3  4  1  0  0  0  0
  3 22  1  0  0  0  0
  3 23  1  0  0  0  0
  5  6  1  0  0  0  0
  5 21  1  0  0  0  0
  6  7  1  0  0  0  0
  6 24  1  0  0  0  0
  6 25  1  0  0  0  0
  7  8  1  0  0  0  0
  7 26  1  0  0  0  0
  7 27  1  0  0  0  0
  8  9  1  0  0  0  0
  8 20  1  0  0  0  0
  9 10  1  0  0  0  0
  9 28  1  0  0  0  0
  9 29  1  0  0  0  0
 10 11  1  0  0  0  0
 10 15  2  0  0  0  0
 11 12  2  0  0  0  0
 11 30  1  0  0  0  0
 12 13  1  0  0  0  0
 12 31  1  0  0  0  0
 13 14  2  0  0  0  0
 13 19  1  0  0  0  0
 14 15  1  0  0  0  0
 14 16  1  0  0  0  0
 15 32  1  0  0  0  0
 16 17  2  0  0  0  0
 17 18  1  0  0  0  0
 17 33  1  0  0  0  0
 18 19  2  0  0  0  0
 18 34  1  0  0  0  0
 20 21  1  0  0  0  0
 20 35  1  0  0  0  0
 20 36  1  0  0  0  0
 21 37  1  0  0  0  0
 21 38  1  0  0  0  0
M  END
>  <name>


>  <Energy>
354.41

$$$$

 OpenBabel06082022513D

 38 39  0  0  0  0  0  0  0  0999 V2000
   11.9584    7.6508    9.3374 C   0  0  0  0  0  0  0  0  0  0  0  0
   11.7938    7.7531    7.9136 O   0  0  0  0  0  0  0  0  0  0  0  0
   10.5223    7.4197    7.5345 C   0  0  0  0  0  0  0  0  0  0  0  0
    9.7447    8.3773    6.8859 C   0  0  0  0  0  0  0  0  0  0  0  0
    8.3659    8.1672    6.7452 C   0  0  0  0  0  0  0  0  0  0  0  0
    7.7980    6.9815    7.2221 C   0  0  0  0  0  0  0  0  0  0  0  0
    6.0199    6.8095    7.3542 S   0  0  0  0  0  0  0  0  0  0  0  0
    5.6869    5.6038    6.6229 O   0  0  0  0  0  0  0  0  0  0  0  0
    5.4348    8.0798    7.0048 O   0  0  0  0  0  0  0  0  0  0  0  0
    5.6817    6.5095    8.9811 N   0  0  0  0  0  0  0  0  0  0  0  0
    4.8082    7.4017    9.7925 C   0  0  0  0  0  0  0  0  0  0  0  0
    5.5096    7.7886   11.1226 C   0  0  0  0  0  0  0  0  0  0  0  0
    6.9573    7.6050   11.0082 N   0  0  0  0  0  0  0  0  0  0  0  0
    7.8262    8.5897   10.5490 C   0  0  0  0  0  0  0  0  0  0  0  0
    8.9526    8.2880   10.1437 O   0  0  0  0  0  0  0  0  0  0  0  0
    7.4977   10.0653   10.6861 C   0  0  0  0  0  0  0  0  0  0  0  0
    6.1314   10.6009    9.7061 Cl  0  0  0  0  0  0  0  0  0  0  0  0
    7.3314    6.1889   10.7892 C   0  0  0  0  0  0  0  0  0  0  0  0
    6.3607    5.4889    9.8016 C   0  0  0  0  0  0  0  0  0  0  0  0
    8.6349    5.9301    7.6114 C   0  0  0  0  0  0  0  0  0  0  0  0
    9.9963    6.1597    7.8052 C   0  0  0  0  0  0  0  0  0  0  0  0
   12.1279    8.6506    9.7504 H   0  0  0  0  0  0  0  0  0  0  0  0
   12.8382    7.0343    9.5404 H   0  0  0  0  0  0  0  0  0  0  0  0
   11.1127    7.2035    9.8723 H   0  0  0  0  0  0  0  0  0  0  0  0
   10.1927    9.3132    6.5638 H   0  0  0  0  0  0  0  0  0  0  0  0
    7.7501    8.9428    6.2976 H   0  0  0  0  0  0  0  0  0  0  0  0
    3.8880    6.8505   10.0283 H   0  0  0  0  0  0  0  0  0  0  0  0
    4.5010    8.2912    9.2435 H   0  0  0  0  0  0  0  0  0  0  0  0
    5.1711    7.1170   11.9242 H   0  0  0  0  0  0  0  0  0  0  0  0
    5.2409    8.7942   11.4492 H   0  0  0  0  0  0  0  0  0  0  0  0
    8.3598   10.6318   10.3172 H   0  0  0  0  0  0  0  0  0  0  0  0
    7.3469   10.3185   11.7379 H   0  0  0  0  0  0  0  0  0  0  0  0
    7.2856    5.6823   11.7608 H   0  0  0  0  0  0  0  0  0  0  0  0
    8.3635    6.0976   10.4421 H   0  0  0  0  0  0  0  0  0  0  0  0
    6.8388    4.7002    9.2246 H   0  0  0  0  0  0  0  0  0  0  0  0
    5.5909    4.9602   10.3789 H   0  0  0  0  0  0  0  0  0  0  0  0
    8.2421    4.9437    7.8217 H   0  0  0  0  0  0  0  0  0  0  0  0
   10.6251    5.3825    8.2293 H   0  0  0  0  0  0  0  0  0  0  0  0
  1  2  1  0  0  0  0
  1 22  1  0  0  0  0
  1 23  1  0  0  0  0
  1 24  1  0  0  0  0
  2  3  1  0  0  0  0
  3  4  1  0  0  0  0
  3 21  2  0  0  0  0
  4  5  2  0  0  0  0
  4 25  1  0  0  0  0
  5  6  1  0  0  0  0
  5 26  1  0  0  0  0
  6  7  1  0  0  0  0
  6 20  2  0  0  0  0
  7  8  2  0  0  0  0
  7  9  2  0  0  0  0
  7 10  1  0  0  0  0
 10 11  1  0  0  0  0
 10 19  1  0  0  0  0
 11 12  1  0  0  0  0
 11 27  1  0  0  0  0
 11 28  1  0  0  0  0
 12 13  1  0  0  0  0
 12 29  1  0  0  0  0
 12 30  1  0  0  0  0
 13 14  1  0  0  0  0
 13 18  1  0  0  0  0
 14 15  2  0  0  0  0
 14 16  1  0  0  0  0
 16 17  1  0  0  0  0
 16 31  1  0  0  0  0
 16 32  1  0  0  0  0
 18 19  1  0  0  0  0
 18 33  1  0  0  0  0
 18 34  1  0  0  0  0
 19 35  1  0  0  0  0
 19 36  1  0  0  0  0
 20 21  1  0  0  0  0
 20 37  1  0  0  0  0
 21 38  1  0  0  0  0
M  END
>  <name>


>  <Energy>
75.4334

$$$$

 OpenBabel06082022513D

 39 41  0  0  0  0  0  0  0  0999 V2000
   10.2784    6.1823    4.3590 O   0  0  0  0  0  0  0  0  0  0  0  0
    9.3876    7.0364    4.3279 C   0  0  0  0  0  0  0  0  0  0  0  0
    9.7215    8.4640    3.9116 C   0  0  0  0  0  0  0  0  0  0  0  0
   11.0028    9.1258    4.9508 Cl  0  0  0  0  0  0  0  0  0  0  0  0
    8.0706    6.7021    4.6089 N   0  0  0  0  0  0  0  0  0  0  0  0
    6.9590    7.6359    4.8092 C   0  0  0  0  0  0  0  0  0  0  0  0
    5.9562    7.1241    5.8708 C   0  0  0  0  0  0  0  0  0  0  0  0
    6.4888    6.1635    6.8640 N   0  0  0  0  0  0  0  0  0  0  0  0
    7.5247    6.6817    7.7945 C   0  0  0  0  0  0  0  0  0  0  0  0
    7.3591    8.1404    8.1661 C   0  0  0  0  0  0  0  0  0  0  0  0
    6.2995    8.5695    8.9932 C   0  0  0  0  0  0  0  0  0  0  0  0
    5.9505    9.9239    9.0479 C   0  0  0  0  0  0  0  0  0  0  0  0
    6.6441   10.7972    8.2387 C   0  0  0  0  0  0  0  0  0  0  0  0
    7.7336   10.3959    7.4878 C   0  0  0  0  0  0  0  0  0  0  0  0
    8.1545    9.0847    7.5031 C   0  0  0  0  0  0  0  0  0  0  0  0
    8.2316   11.5302    6.6821 C   0  0  0  0  0  0  0  0  0  0  0  0
    6.9898   12.4163    6.7858 C   0  0  0  0  0  0  0  0  0  0  0  0
    6.3067   12.1112    8.0283 O   0  0  0  0  0  0  0  0  0  0  0  0
    7.0246    4.9887    6.1354 C   0  0  0  0  0  0  0  0  0  0  0  0
    7.7055    5.2923    4.7737 C   0  0  0  0  0  0  0  0  0  0  0  0
    8.8806    9.1532    3.9379 H   0  0  0  0  0  0  0  0  0  0  0  0
   10.0998    8.4389    2.8856 H   0  0  0  0  0  0  0  0  0  0  0  0
    6.4516    7.7476    3.8447 H   0  0  0  0  0  0  0  0  0  0  0  0
    7.3310    8.6191    5.0907 H   0  0  0  0  0  0  0  0  0  0  0  0
    5.1395    6.6146    5.3390 H   0  0  0  0  0  0  0  0  0  0  0  0
    5.4531    7.9721    6.3480 H   0  0  0  0  0  0  0  0  0  0  0  0
    8.5347    6.5404    7.3870 H   0  0  0  0  0  0  0  0  0  0  0  0
    7.4918    6.0830    8.7137 H   0  0  0  0  0  0  0  0  0  0  0  0
    5.6966    7.8362    9.5253 H   0  0  0  0  0  0  0  0  0  0  0  0
    5.1050   10.2584    9.6377 H   0  0  0  0  0  0  0  0  0  0  0  0
    8.9976    8.7676    6.9026 H   0  0  0  0  0  0  0  0  0  0  0  0
    8.4577   11.2724    5.6472 H   0  0  0  0  0  0  0  0  0  0  0  0
    9.1020   11.9923    7.1627 H   0  0  0  0  0  0  0  0  0  0  0  0
    6.2917   12.2103    5.9625 H   0  0  0  0  0  0  0  0  0  0  0  0
    7.2413   13.4819    6.7548 H   0  0  0  0  0  0  0  0  0  0  0  0
    6.1897    4.3013    5.9437 H   0  0  0  0  0  0  0  0  0  0  0  0
    7.7129    4.4176    6.7717 H   0  0  0  0  0  0  0  0  0  0  0  0
    8.5613    4.6289    4.6301 H   0  0  0  0  0  0  0  0  0  0  0  0
    6.9941    5.0727    3.9639 H   0  0  0  0  0  0  0  0  0  0  0  0
  1  2  2  0  0  0  0
  2  3  1  0  0  0  0
  2  5  1  0  0  0  0
  3  4  1  0  0  0  0
  3 21  1  0  0  0  0
  3 22  1  0  0  0  0
  5  6  1  0  0  0  0
  5 20  1  0  0  0  0
  6  7  1  0  0  0  0
  6 23  1  0  0  0  0
  6 24  1  0  0  0  0
  7  8  1  0  0  0  0
  7 25  1  0  0  0  0
  7 26  1  0  0  0  0
  8  9  1  0  0  0  0
  8 19  1  0  0  0  0
  9 10  1  0  0  0  0
  9 27  1  0  0  0  0
  9 28  1  0  0  0  0
 10 11  1  0  0  0  0
 10 15  2  0  0  0  0
 11 12  2  0  0  0  0
 11 29  1  0  0  0  0
 12 13  1  0  0  0  0
 12 30  1  0  0  0  0
 13 14  2  0  0  0  0
 13 18  1  0  0  0  0
 14 15  1  0  0  0  0
 14 16  1  0  0  0  0
 15 31  1  0  0  0  0
 16 17  1  0  0  0  0
 16 32  1  0  0  0  0
 16 33  1  0  0  0  0
 17 18  1  0  0  0  0
 17 34  1  0  0  0  0
 17 35  1  0  0  0  0
 19 20  1  0  0  0  0
 19 36  1  0  0  0  0
 19 37  1  0  0  0  0
 20 38  1  0  0  0  0
 20 39  1  0  0  0  0
M  END
>  <name>


>  <Energy>
114.746

$$$$

 OpenBabel06082022513D

 42 43  0  0  0  0  0  0  0  0999 V2000
    7.1541   12.5079    9.9685 C   0  0  0  0  0  0  0  0  0  0  0  0
    8.3091   12.8499    9.1817 O   0  0  0  0  0  0  0  0  0  0  0  0
    9.2020   11.8126    9.2100 C   0  0  0  0  0  0  0  0  0  0  0  0
    9.4533   11.1595    8.0112 C   0  0  0  0  0  0  0  0  0  0  0  0
   10.0770    9.9159    8.0355 C   0  0  0  0  0  0  0  0  0  0  0  0
   10.3399    9.3056    9.2645 C   0  0  0  0  0  0  0  0  0  0  0  0
   10.5845    7.5482    9.3180 S   0  0  0  0  0  0  0  0  0  0  0  0
   10.3630    7.1345   10.6888 O   0  0  0  0  0  0  0  0  0  0  0  0
   11.8241    7.2661    8.6317 O   0  0  0  0  0  0  0  0  0  0  0  0
    9.3010    6.9314    8.4140 N   0  0  0  0  0  0  0  0  0  0  0  0
    7.9028    7.0515    8.8664 C   0  0  0  0  0  0  0  0  0  0  0  0
    7.1278    8.0591    8.0101 C   0  0  0  0  0  0  0  0  0  0  0  0
    7.3098    7.9314    6.5551 N   0  0  0  0  0  0  0  0  0  0  0  0
    6.4762    8.7568    5.7819 C   0  0  0  0  0  0  0  0  0  0  0  0
    5.5030    9.3313    6.2797 O   0  0  0  0  0  0  0  0  0  0  0  0
    6.7975    8.9620    4.3093 C   0  0  0  0  0  0  0  0  0  0  0  0
    7.9093   10.3391    4.1455 Cl  0  0  0  0  0  0  0  0  0  0  0  0
    8.6121    7.4665    6.0573 C   0  0  0  0  0  0  0  0  0  0  0  0
    9.4338    6.5683    6.9946 C   0  0  0  0  0  0  0  0  0  0  0  0
   10.2615   10.0396   10.4496 C   0  0  0  0  0  0  0  0  0  0  0  0
    9.7669   11.3376   10.4026 C   0  0  0  0  0  0  0  0  0  0  0  0
    9.8088   12.0715   11.5592 O   0  0  0  0  0  0  0  0  0  0  0  0
   10.2964   13.4010   11.3218 C   0  0  0  0  0  0  0  0  0  0  0  0
    6.2787   12.9836    9.5181 H   0  0  0  0  0  0  0  0  0  0  0  0
    7.2678   12.8905   10.9877 H   0  0  0  0  0  0  0  0  0  0  0  0
    6.9595   11.4263   10.0009 H   0  0  0  0  0  0  0  0  0  0  0  0
    9.0906   11.5738    7.0730 H   0  0  0  0  0  0  0  0  0  0  0  0
   10.2825    9.4049    7.1115 H   0  0  0  0  0  0  0  0  0  0  0  0
    7.8404    7.3372    9.9211 H   0  0  0  0  0  0  0  0  0  0  0  0
    7.4336    6.0636    8.7813 H   0  0  0  0  0  0  0  0  0  0  0  0
    7.4182    9.0784    8.2815 H   0  0  0  0  0  0  0  0  0  0  0  0
    6.0587    7.9751    8.2389 H   0  0  0  0  0  0  0  0  0  0  0  0
    5.8764    9.2012    3.7697 H   0  0  0  0  0  0  0  0  0  0  0  0
    7.2390    8.0814    3.8426 H   0  0  0  0  0  0  0  0  0  0  0  0
    9.1933    8.3471    5.7813 H   0  0  0  0  0  0  0  0  0  0  0  0
    8.4452    6.9177    5.1244 H   0  0  0  0  0  0  0  0  0  0  0  0
    9.0817    5.5334    6.8937 H   0  0  0  0  0  0  0  0  0  0  0  0
   10.4779    6.5630    6.6692 H   0  0  0  0  0  0  0  0  0  0  0  0
   10.5620    9.6068   11.4017 H   0  0  0  0  0  0  0  0  0  0  0  0
   10.8038   13.7440   12.2280 H   0  0  0  0  0  0  0  0  0  0  0  0
    9.4629   14.0827   11.1272 H   0  0  0  0  0  0  0  0  0  0  0  0
   11.0235   13.4484   10.5004 H   0  0  0  0  0  0  0  0  0  0  0  0
  1  2  1  0  0  0  0
  1 24  1  0  0  0  0
  1 25  1  0  0  0  0
  1 26  1  0  0  0  0
  2  3  1  0  0  0  0
  3  4  1  0  0  0  0
  3 21  2  0  0  0  0
  4  5  2  0  0  0  0
  4 27  1  0  0  0  0
  5  6  1  0  0  0  0
  5 28  1  0  0  0  0
  6  7  1  0  0  0  0
  6 20  2  0  0  0  0
  7  8  2  0  0  0  0
  7  9  2  0  0  0  0
  7 10  1  0  0  0  0
 10 11  1  0  0  0  0
 10 19  1  0  0  0  0
 11 12  1  0  0  0  0
 11 29  1  0  0  0  0
 11 30  1  0  0  0  0
 12 13  1  0  0  0  0
 12 31  1  0  0  0  0
 12 32  1  0  0  0  0
 13 14  1  0  0  0  0
 13 18  1  0  0  0  0
 14 15  2  0  0  0  0
 14 16  1  0  0  0  0
 16 17  1  0  0  0  0
 16 33  1  0  0  0  0
 16 34  1  0  0  0  0
 18 19  1  0  0  0  0
 18 35  1  0  0  0  0
 18 36  1  0  0  0  0
 19 37  1  0  0  0  0
 19 38  1  0  0  0  0
 20 21  1  0  0  0  0
 20 39  1  0  0  0  0
 21 22  1  0  0  0  0
 22 23  1  0  0  0  0
 23 40  1  0  0  0  0
 23 41  1  0  0  0  0
 23 42  1  0  0  0  0
M  END
>  <name>


>  <Energy>
69.0761

$$$$

 OpenBabel06082022513D

 37 38  0  0  0  0  0  0  0  0999 V2000
    8.0657    5.2131    8.6306 C   0  0  0  0  0  0  0  0  0  0  0  0
    9.5119    4.8041    8.7324 C   0  0  0  0  0  0  0  0  0  0  0  0
    9.8038    3.4379    8.5683 C   0  0  0  0  0  0  0  0  0  0  0  0
   11.1083    2.9609    8.6684 C   0  0  0  0  0  0  0  0  0  0  0  0
   12.1462    3.8445    8.9283 C   0  0  0  0  0  0  0  0  0  0  0  0
   11.8805    5.2083    9.0752 C   0  0  0  0  0  0  0  0  0  0  0  0
   10.5700    5.7195    8.9716 C   0  0  0  0  0  0  0  0  0  0  0  0
   10.3854    7.2087    9.2598 C   0  0  0  0  0  0  0  0  0  0  0  0
    9.2801    7.8152    8.5337 N   0  0  0  0  0  0  0  0  0  0  0  0
    9.6243    8.3519    7.2168 C   0  0  0  0  0  0  0  0  0  0  0  0
    8.3346    8.6193    6.4124 C   0  0  0  0  0  0  0  0  0  0  0  0
    7.2866    9.3478    7.1494 N   0  0  0  0  0  0  0  0  0  0  0  0
    6.0755    9.7121    6.5450 C   0  0  0  0  0  0  0  0  0  0  0  0
    5.0889   10.0332    7.2160 O   0  0  0  0  0  0  0  0  0  0  0  0
    5.9849    9.7227    5.0302 C   0  0  0  0  0  0  0  0  0  0  0  0
    5.6012    8.0948    4.4367 Cl  0  0  0  0  0  0  0  0  0  0  0  0
    7.1913    9.0809    8.5913 C   0  0  0  0  0  0  0  0  0  0  0  0
    8.5353    8.8217    9.2898 C   0  0  0  0  0  0  0  0  0  0  0  0
    7.7689    5.8220    9.4897 H   0  0  0  0  0  0  0  0  0  0  0  0
    7.4016    4.3417    8.6252 H   0  0  0  0  0  0  0  0  0  0  0  0
    7.8860    5.7502    7.6954 H   0  0  0  0  0  0  0  0  0  0  0  0
    9.0029    2.7276    8.3721 H   0  0  0  0  0  0  0  0  0  0  0  0
   11.3059    1.8985    8.5624 H   0  0  0  0  0  0  0  0  0  0  0  0
   13.1641    3.4759    9.0252 H   0  0  0  0  0  0  0  0  0  0  0  0
   12.7115    5.8759    9.2946 H   0  0  0  0  0  0  0  0  0  0  0  0
   11.3146    7.7579    9.0563 H   0  0  0  0  0  0  0  0  0  0  0  0
   10.2227    7.2746   10.3436 H   0  0  0  0  0  0  0  0  0  0  0  0
   10.2389    7.6423    6.6490 H   0  0  0  0  0  0  0  0  0  0  0  0
   10.2022    9.2791    7.3126 H   0  0  0  0  0  0  0  0  0  0  0  0
    7.9054    7.6601    6.1013 H   0  0  0  0  0  0  0  0  0  0  0  0
    8.5908    9.1799    5.5090 H   0  0  0  0  0  0  0  0  0  0  0  0
    6.9028   10.0851    4.5637 H   0  0  0  0  0  0  0  0  0  0  0  0
    5.1702   10.3883    4.7294 H   0  0  0  0  0  0  0  0  0  0  0  0
    6.5470    8.2000    8.7089 H   0  0  0  0  0  0  0  0  0  0  0  0
    6.6844    9.9204    9.0805 H   0  0  0  0  0  0  0  0  0  0  0  0
    9.1112    9.7518    9.3800 H   0  0  0  0  0  0  0  0  0  0  0  0
    8.3197    8.4698   10.3061 H   0  0  0  0  0  0  0  0  0  0  0  0
  1  2  1  0  0  0  0
  1 19  1  0  0  0  0
  1 20  1  0  0  0  0
  1 21  1  0  0  0  0
  2  3  1  0  0  0  0
  2  7  2  0  0  0  0
  3  4  2  0  0  0  0
  3 22  1  0  0  0  0
  4  5  1  0  0  0  0
  4 23  1  0  0  0  0
  5  6  2  0  0  0  0
  5 24  1  0  0  0  0
  6  7  1  0  0  0  0
  6 25  1  0  0  0  0
  7  8  1  0  0  0  0
  8  9  1  0  0  0  0
  8 26  1  0  0  0  0
  8 27  1  0  0  0  0
  9 10  1  0  0  0  0
  9 18  1  0  0  0  0
 10 11  1  0  0  0  0
 10 28  1  0  0  0  0
 10 29  1  0  0  0  0
 11 12  1  0  0  0  0
 11 30  1  0  0  0  0
 11 31  1  0  0  0  0
 12 13  1  0  0  0  0
 12 17  1  0  0  0  0
 13 14  2  0  0  0  0
 13 15  1  0  0  0  0
 15 16  1  0  0  0  0
 15 32  1  0  0  0  0
 15 33  1  0  0  0  0
 17 18  1  0  0  0  0
 17 34  1  0  0  0  0
 17 35  1  0  0  0  0
 18 36  1  0  0  0  0
 18 37  1  0  0  0  0
M  END
>  <name>


>  <Energy>
97.2924

$$$$

 OpenBabel06082022513D

 40 41  0  0  0  0  0  0  0  0999 V2000
    7.4137    9.2786   10.8103 C   0  0  0  0  0  0  0  0  0  0  0  0
    6.5058    8.3622   10.0460 C   0  0  0  0  0  0  0  0  0  0  0  0
    6.3240    8.5367    8.6688 C   0  0  0  0  0  0  0  0  0  0  0  0
    5.5158    7.6578    7.9447 C   0  0  0  0  0  0  0  0  0  0  0  0
    4.8693    6.5894    8.5872 C   0  0  0  0  0  0  0  0  0  0  0  0
    4.1593    5.5207    7.7781 C   0  0  0  0  0  0  0  0  0  0  0  0
    5.1472    4.5619    7.3094 N   0  0  0  0  0  0  0  0  0  0  0  0
    5.4015    4.5367    5.8844 C   0  0  0  0  0  0  0  0  0  0  0  0
    6.7805    3.9733    5.5256 C   0  0  0  0  0  0  0  0  0  0  0  0
    7.8548    4.3641    6.5487 C   0  0  0  0  0  0  0  0  0  0  0  0
    7.7478    3.6988    7.8582 N   0  0  0  0  0  0  0  0  0  0  0  0
    8.4875    4.0765    8.9741 C   0  0  0  0  0  0  0  0  0  0  0  0
    8.7707    3.2747    9.8689 O   0  0  0  0  0  0  0  0  0  0  0  0
    8.8066    5.5476    9.1352 C   0  0  0  0  0  0  0  0  0  0  0  0
   10.3114    5.9859    8.3245 Cl  0  0  0  0  0  0  0  0  0  0  0  0
    6.7011    2.6905    8.0510 C   0  0  0  0  0  0  0  0  0  0  0  0
    5.2818    3.3236    8.0717 C   0  0  0  0  0  0  0  0  0  0  0  0
    5.0140    6.4469    9.9705 C   0  0  0  0  0  0  0  0  0  0  0  0
    5.8209    7.3356   10.7037 C   0  0  0  0  0  0  0  0  0  0  0  0
    8.2825    9.5610   10.2056 H   0  0  0  0  0  0  0  0  0  0  0  0
    7.7976    8.7877   11.7125 H   0  0  0  0  0  0  0  0  0  0  0  0
    6.8750   10.1842   11.1042 H   0  0  0  0  0  0  0  0  0  0  0  0
    6.8444    9.3345    8.1432 H   0  0  0  0  0  0  0  0  0  0  0  0
    5.4343    7.7743    6.8670 H   0  0  0  0  0  0  0  0  0  0  0  0
    3.6262    6.0025    6.9466 H   0  0  0  0  0  0  0  0  0  0  0  0
    3.3748    5.0427    8.3778 H   0  0  0  0  0  0  0  0  0  0  0  0
    5.3719    5.5618    5.4921 H   0  0  0  0  0  0  0  0  0  0  0  0
    4.6196    3.9810    5.3537 H   0  0  0  0  0  0  0  0  0  0  0  0
    7.0692    4.3654    4.5421 H   0  0  0  0  0  0  0  0  0  0  0  0
    6.7270    2.8858    5.4045 H   0  0  0  0  0  0  0  0  0  0  0  0
    7.8605    5.4504    6.6783 H   0  0  0  0  0  0  0  0  0  0  0  0
    8.8393    4.0883    6.1533 H   0  0  0  0  0  0  0  0  0  0  0  0
    8.9027    5.7680   10.2040 H   0  0  0  0  0  0  0  0  0  0  0  0
    7.9882    6.1539    8.7496 H   0  0  0  0  0  0  0  0  0  0  0  0
    6.8497    2.1692    9.0045 H   0  0  0  0  0  0  0  0  0  0  0  0
    6.7948    1.9300    7.2698 H   0  0  0  0  0  0  0  0  0  0  0  0
    4.5414    2.5821    7.7492 H   0  0  0  0  0  0  0  0  0  0  0  0
    5.0585    3.5325    9.1262 H   0  0  0  0  0  0  0  0  0  0  0  0
    4.5347    5.6244   10.4938 H   0  0  0  0  0  0  0  0  0  0  0  0
    5.9387    7.1840   11.7693 H   0  0  0  0  0  0  0  0  0  0  0  0
  1  2  1  0  0  0  0
  1 20  1  0  0  0  0
  1 21  1  0  0  0  0
  1 22  1  0  0  0  0
  2  3  1  0  0  0  0
  2 19  2  0  0  0  0
  3  4  2  0  0  0  0
  3 23  1  0  0  0  0
  4  5  1  0  0  0  0
  4 24  1  0  0  0  0
  5  6  1  0  0  0  0
  5 18  2  0  0  0  0
  6  7  1  0  0  0  0
  6 25  1  0  0  0  0
  6 26  1  0  0  0  0
  7  8  1  0  0  0  0
  7 17  1  0  0  0  0
  8  9  1  0  0  0  0
  8 27  1  0  0  0  0
  8 28  1  0  0  0  0
  9 10  1  0  0  0  0
  9 29  1  0  0  0  0
  9 30  1  0  0  0  0
 10 11  1  0  0  0  0
 10 31  1  0  0  0  0
 10 32  1  0  0  0  0
 11 12  1  0  0  0  0
 11 16  1  0  0  0  0
 12 13  2  0  0  0  0
 12 14  1  0  0  0  0
 14 15  1  0  0  0  0
 14 33  1  0  0  0  0
 14 34  1  0  0  0  0
 16 17  1  0  0  0  0
 16 35  1  0  0  0  0
 16 36  1  0  0  0  0
 17 37  1  0  0  0  0
 17 38  1  0  0  0  0
 18 19  1  0  0  0  0
 18 39  1  0  0  0  0
 19 40  1  0  0  0  0
M  END
>  <name>


>  <Energy>
76.0236

$$$$

 OpenBabel06082022513D

 41 42  0  0  0  0  0  0  0  0999 V2000
    6.8264   10.5070    3.1097 C   0  0  0  0  0  0  0  0  0  0  0  0
    7.5276   10.9283    4.3858 C   0  0  0  0  0  0  0  0  0  0  0  0
    6.5558   11.1470    5.4092 O   0  0  0  0  0  0  0  0  0  0  0  0
    6.6025   10.2647    6.4512 C   0  0  0  0  0  0  0  0  0  0  0  0
    6.6081    8.8743    6.3009 C   0  0  0  0  0  0  0  0  0  0  0  0
    6.4655    8.0487    7.4212 C   0  0  0  0  0  0  0  0  0  0  0  0
    6.3208    8.6322    8.6795 C   0  0  0  0  0  0  0  0  0  0  0  0
    5.9334    7.6455   10.1018 S   0  0  0  0  0  0  0  0  0  0  0  0
    6.0155    6.2511    9.7241 O   0  0  0  0  0  0  0  0  0  0  0  0
    6.7467    8.1501   11.1880 O   0  0  0  0  0  0  0  0  0  0  0  0
    4.2828    7.9478   10.4660 N   0  0  0  0  0  0  0  0  0  0  0  0
    3.5348    9.0805    9.8380 C   0  0  0  0  0  0  0  0  0  0  0  0
    3.5160   10.3595   10.7056 C   0  0  0  0  0  0  0  0  0  0  0  0
    4.5140   10.3145   11.7766 N   0  0  0  0  0  0  0  0  0  0  0  0
    5.3371   11.4155   11.9777 C   0  0  0  0  0  0  0  0  0  0  0  0
    5.0657   12.5046   11.4660 O   0  0  0  0  0  0  0  0  0  0  0  0
    6.6204   11.1910   12.7753 C   0  0  0  0  0  0  0  0  0  0  0  0
    7.9039   12.2883   12.1983 Cl  0  0  0  0  0  0  0  0  0  0  0  0
    4.4366    9.1394   12.6610 C   0  0  0  0  0  0  0  0  0  0  0  0
    3.9627    7.8659   11.9233 C   0  0  0  0  0  0  0  0  0  0  0  0
    6.4454   10.0154    8.8363 C   0  0  0  0  0  0  0  0  0  0  0  0
    6.5318   10.8332    7.7172 C   0  0  0  0  0  0  0  0  0  0  0  0
    7.5507   10.3673    2.3012 H   0  0  0  0  0  0  0  0  0  0  0  0
    6.0973   11.2640    2.8026 H   0  0  0  0  0  0  0  0  0  0  0  0
    6.2724    9.5743    3.2517 H   0  0  0  0  0  0  0  0  0  0  0  0
    8.0251   11.8888    4.2203 H   0  0  0  0  0  0  0  0  0  0  0  0
    8.3036   10.2116    4.6753 H   0  0  0  0  0  0  0  0  0  0  0  0
    6.6723    8.4180    5.3177 H   0  0  0  0  0  0  0  0  0  0  0  0
    6.4340    6.9686    7.3006 H   0  0  0  0  0  0  0  0  0  0  0  0
    2.4994    8.7488    9.6862 H   0  0  0  0  0  0  0  0  0  0  0  0
    3.8827    9.2945    8.8247 H   0  0  0  0  0  0  0  0  0  0  0  0
    2.5346   10.4722   11.1848 H   0  0  0  0  0  0  0  0  0  0  0  0
    3.6552   11.2306   10.0644 H   0  0  0  0  0  0  0  0  0  0  0  0
    7.0132   10.1878   12.6222 H   0  0  0  0  0  0  0  0  0  0  0  0
    6.4474   11.3760   13.8346 H   0  0  0  0  0  0  0  0  0  0  0  0
    3.7209    9.3844   13.4554 H   0  0  0  0  0  0  0  0  0  0  0  0
    5.3892    8.9634   13.1633 H   0  0  0  0  0  0  0  0  0  0  0  0
    4.3815    6.9616   12.3745 H   0  0  0  0  0  0  0  0  0  0  0  0
    2.8721    7.7752   12.0192 H   0  0  0  0  0  0  0  0  0  0  0  0
    6.4103   10.4721    9.8159 H   0  0  0  0  0  0  0  0  0  0  0  0
    6.5263   11.9152    7.8347 H   0  0  0  0  0  0  0  0  0  0  0  0
  1  2  1  0  0  0  0
  1 23  1  0  0  0  0
  1 24  1  0  0  0  0
  1 25  1  0  0  0  0
  2  3  1  0  0  0  0
  2 26  1  0  0  0  0
  2 27  1  0  0  0  0
  3  4  1  0  0  0  0
  4  5  1  0  0  0  0
  4 22  2  0  0  0  0
  5  6  2  0  0  0  0
  5 28  1  0  0  0  0
  6  7  1  0  0  0  0
  6 29  1  0  0  0  0
  7  8  1  0  0  0  0
  7 21  2  0  0  0  0
  8  9  2  0  0  0  0
  8 10  2  0  0  0  0
  8 11  1  0  0  0  0
 11 12  1  0  0  0  0
 11 20  1  0  0  0  0
 12 13  1  0  0  0  0
 12 30  1  0  0  0  0
 12 31  1  0  0  0  0
 13 14  1  0  0  0  0
 13 32  1  0  0  0  0
 13 33  1  0  0  0  0
 14 15  1  0  0  0  0
 14 19  1  0  0  0  0
 15 16  2  0  0  0  0
 15 17  1  0  0  0  0
 17 18  1  0  0  0  0
 17 34  1  0  0  0  0
 17 35  1  0  0  0  0
 19 20  1  0  0  0  0
 19 36  1  0  0  0  0
 19 37  1  0  0  0  0
 20 38  1  0  0  0  0
 20 39  1  0  0  0  0
 21 22  1  0  0  0  0
 21 40  1  0  0  0  0
 22 41  1  0  0  0  0
M  END
>  <name>


>  <Energy>
65.3959

$$$$

 OpenBabel06082022513D

 37 38  0  0  0  0  0  0  0  0999 V2000
    9.2088    7.3533    3.5212 O   0  0  0  0  0  0  0  0  0  0  0  0
    8.7849    8.4658    3.8339 C   0  0  0  0  0  0  0  0  0  0  0  0
    9.4993    9.7525    3.4507 C   0  0  0  0  0  0  0  0  0  0  0  0
   11.1636    9.4517    2.9150 Cl  0  0  0  0  0  0  0  0  0  0  0  0
    7.6093    8.5974    4.5791 N   0  0  0  0  0  0  0  0  0  0  0  0
    7.0443    7.3841    5.1755 C   0  0  0  0  0  0  0  0  0  0  0  0
    5.8771    7.6391    6.1363 C   0  0  0  0  0  0  0  0  0  0  0  0
    6.1662    8.7909    7.0168 N   0  0  0  0  0  0  0  0  0  0  0  0
    6.0605    8.6852    8.6724 S   0  0  0  0  0  0  0  0  0  0  0  0
    5.0207    7.7256    8.9756 O   0  0  0  0  0  0  0  0  0  0  0  0
    5.9311   10.0617    9.1538 O   0  0  0  0  0  0  0  0  0  0  0  0
    7.6104    8.0418    9.3525 C   0  0  0  0  0  0  0  0  0  0  0  0
    8.7775    8.0832    8.4034 C   0  0  0  0  0  0  0  0  0  0  0  0
    9.2240    6.9036    7.7948 C   0  0  0  0  0  0  0  0  0  0  0  0
   10.2349    6.9422    6.8305 C   0  0  0  0  0  0  0  0  0  0  0  0
   10.8334    8.1492    6.4946 C   0  0  0  0  0  0  0  0  0  0  0  0
   10.4548    9.3182    7.1548 C   0  0  0  0  0  0  0  0  0  0  0  0
    9.4531    9.2778    8.1248 C   0  0  0  0  0  0  0  0  0  0  0  0
    6.6339   10.0327    6.3675 C   0  0  0  0  0  0  0  0  0  0  0  0
    6.9036    9.8505    4.8647 C   0  0  0  0  0  0  0  0  0  0  0  0
    9.5668   10.4137    4.3075 H   0  0  0  0  0  0  0  0  0  0  0  0
    8.9600   10.2371    2.6343 H   0  0  0  0  0  0  0  0  0  0  0  0
    7.8432    6.8875    5.7120 H   0  0  0  0  0  0  0  0  0  0  0  0
    6.7512    6.6907    4.3710 H   0  0  0  0  0  0  0  0  0  0  0  0
    5.6714    6.7274    6.7071 H   0  0  0  0  0  0  0  0  0  0  0  0
    4.9716    7.8717    5.5639 H   0  0  0  0  0  0  0  0  0  0  0  0
    7.4078    7.0090    9.6678 H   0  0  0  0  0  0  0  0  0  0  0  0
    7.8372    8.6183   10.2541 H   0  0  0  0  0  0  0  0  0  0  0  0
    8.7526    5.9481    8.0171 H   0  0  0  0  0  0  0  0  0  0  0  0
   10.5159    6.0344    6.2986 H   0  0  0  0  0  0  0  0  0  0  0  0
   11.5774    8.1805    5.7051 H   0  0  0  0  0  0  0  0  0  0  0  0
   10.9347   10.2615    6.8999 H   0  0  0  0  0  0  0  0  0  0  0  0
    9.1710   10.2028    8.6318 H   0  0  0  0  0  0  0  0  0  0  0  0
    7.5499   10.3762    6.8406 H   0  0  0  0  0  0  0  0  0  0  0  0
    5.8871   10.8187    6.4995 H   0  0  0  0  0  0  0  0  0  0  0  0
    5.9484    9.7897    4.3267 H   0  0  0  0  0  0  0  0  0  0  0  0
    7.4293   10.7130    4.4696 H   0  0  0  0  0  0  0  0  0  0  0  0
  1  2  2  0  0  0  0
  2  3  1  0  0  0  0
  2  5  1  0  0  0  0
  3  4  1  0  0  0  0
  3 21  1  0  0  0  0
  3 22  1  0  0  0  0
  5  6  1  0  0  0  0
  5 20  1  0  0  0  0
  6  7  1  0  0  0  0
  6 23  1  0  0  0  0
  6 24  1  0  0  0  0
  7  8  1  0  0  0  0
  7 25  1  0  0  0  0
  7 26  1  0  0  0  0
  8  9  1  0  0  0  0
  8 19  1  0  0  0  0
  9 10  2  0  0  0  0
  9 11  2  0  0  0  0
  9 12  1  0  0  0  0
 12 13  1  0  0  0  0
 12 27  1  0  0  0  0
 12 28  1  0  0  0  0
 13 14  1  0  0  0  0
 13 18  2  0  0  0  0
 14 15  2  0  0  0  0
 14 29  1  0  0  0  0
 15 16  1  0  0  0  0
 15 30  1  0  0  0  0
 16 17  2  0  0  0  0
 16 31  1  0  0  0  0
 17 18  1  0  0  0  0
 17 32  1  0  0  0  0
 18 33  1  0  0  0  0
 19 20  1  0  0  0  0
 19 34  1  0  0  0  0
 19 35  1  0  0  0  0
 20 36  1  0  0  0  0
 20 37  1  0  0  0  0
M  END
>  <name>


>  <Energy>
72.7456

$$$$

 OpenBabel06082022513D

 34 35  0  0  0  0  0  0  0  0999 V2000
    4.8828   10.2147    2.4897 O   0  0  0  0  0  0  0  0  0  0  0  0
    5.1366   10.0127    3.6803 C   0  0  0  0  0  0  0  0  0  0  0  0
    5.5353   11.1678    4.5808 C   0  0  0  0  0  0  0  0  0  0  0  0
    7.2971   11.1687    4.8112 Cl  0  0  0  0  0  0  0  0  0  0  0  0
    5.0477    8.7405    4.2293 N   0  0  0  0  0  0  0  0  0  0  0  0
    5.4227    8.3746    5.5944 C   0  0  0  0  0  0  0  0  0  0  0  0
    6.4079    7.1935    5.5790 C   0  0  0  0  0  0  0  0  0  0  0  0
    5.8702    5.9961    4.9237 N   0  0  0  0  0  0  0  0  0  0  0  0
    5.7909    4.7961    5.7598 C   0  0  0  0  0  0  0  0  0  0  0  0
    4.6477    4.6867    6.7558 C   0  0  0  0  0  0  0  0  0  0  0  0
    4.3651    5.6781    7.7068 C   0  0  0  0  0  0  0  0  0  0  0  0
    3.3169    5.5316    8.6179 C   0  0  0  0  0  0  0  0  0  0  0  0
    2.5611    4.3630    8.6275 C   0  0  0  0  0  0  0  0  0  0  0  0
    2.8567    3.3468    7.7268 C   0  0  0  0  0  0  0  0  0  0  0  0
    3.8875    3.5056    6.7963 C   0  0  0  0  0  0  0  0  0  0  0  0
    4.7049    6.2460    4.0615 C   0  0  0  0  0  0  0  0  0  0  0  0
    4.7731    7.6095    3.3325 C   0  0  0  0  0  0  0  0  0  0  0  0
    5.0270   11.1207    5.5476 H   0  0  0  0  0  0  0  0  0  0  0  0
    5.2600   12.1114    4.1007 H   0  0  0  0  0  0  0  0  0  0  0  0
    4.4924    8.1085    6.1094 H   0  0  0  0  0  0  0  0  0  0  0  0
    5.8566    9.2061    6.1477 H   0  0  0  0  0  0  0  0  0  0  0  0
    6.7670    6.9883    6.5926 H   0  0  0  0  0  0  0  0  0  0  0  0
    7.2958    7.4987    5.0123 H   0  0  0  0  0  0  0  0  0  0  0  0
    6.7333    4.6592    6.3067 H   0  0  0  0  0  0  0  0  0  0  0  0
    5.7430    3.9386    5.0755 H   0  0  0  0  0  0  0  0  0  0  0  0
    4.9566    6.5826    7.7665 H   0  0  0  0  0  0  0  0  0  0  0  0
    3.0999    6.3254    9.3278 H   0  0  0  0  0  0  0  0  0  0  0  0
    1.7554    4.2433    9.3457 H   0  0  0  0  0  0  0  0  0  0  0  0
    2.2860    2.4206    7.7501 H   0  0  0  0  0  0  0  0  0  0  0  0
    4.1021    2.6895    6.1113 H   0  0  0  0  0  0  0  0  0  0  0  0
    3.7797    6.2266    4.6490 H   0  0  0  0  0  0  0  0  0  0  0  0
    4.6292    5.4512    3.3098 H   0  0  0  0  0  0  0  0  0  0  0  0
    5.5696    7.5905    2.5775 H   0  0  0  0  0  0  0  0  0  0  0  0
    3.8298    7.8068    2.8082 H   0  0  0  0  0  0  0  0  0  0  0  0
  1  2  2  0  0  0  0
  2  3  1  0  0  0  0
  2  5  1  0  0  0  0
  3  4  1  0  0  0  0
  3 18  1  0  0  0  0
  3 19  1  0  0  0  0
  5  6  1  0  0  0  0
  5 17  1  0  0  0  0
  6  7  1  0  0  0  0
  6 20  1  0  0  0  0
  6 21  1  0  0  0  0
  7  8  1  0  0  0  0
  7 22  1  0  0  0  0
  7 23  1  0  0  0  0
  8  9  1  0  0  0  0
  8 16  1  0  0  0  0
  9 10  1  0  0  0  0
  9 24  1  0  0  0  0
  9 25  1  0  0  0  0
 10 11  1  0  0  0  0
 10 15  2  0  0  0  0
 11 12  2  0  0  0  0
 11 26  1  0  0  0  0
 12 13  1  0  0  0  0
 12 27  1  0  0  0  0
 13 14  2  0  0  0  0
 13 28  1  0  0  0  0
 14 15  1  0  0  0  0
 14 29  1  0  0  0  0
 15 30  1  0  0  0  0
 16 17  1  0  0  0  0
 16 31  1  0  0  0  0
 16 32  1  0  0  0  0
 17 33  1  0  0  0  0
 17 34  1  0  0  0  0
M  END
>  <name>


>  <Energy>
97.4374

$$$$

 OpenBabel06082022513D

 36 38  0  0  0  0  0  0  0  0999 V2000
    8.9295    7.0832   11.9446 O   0  0  0  0  0  0  0  0  0  0  0  0
    8.5364    7.4398   10.8297 C   0  0  0  0  0  0  0  0  0  0  0  0
    8.6524    8.8990   10.4305 C   0  0  0  0  0  0  0  0  0  0  0  0
    7.0999    9.7173   10.6825 Cl  0  0  0  0  0  0  0  0  0  0  0  0
    8.0253    6.5284    9.9071 N   0  0  0  0  0  0  0  0  0  0  0  0
    7.3118    6.8796    8.6812 C   0  0  0  0  0  0  0  0  0  0  0  0
    5.8232    6.5486    8.8123 C   0  0  0  0  0  0  0  0  0  0  0  0
    5.5300    5.1190    9.3261 C   0  0  0  0  0  0  0  0  0  0  0  0
    5.4895    3.9922    8.2581 C   0  0  2  0  0  0  0  0  0  0  0  0
    6.5928    4.0225    7.2950 N   0  0  0  0  0  0  0  0  0  0  0  0
    6.1620    4.5464    6.0655 C   0  0  0  0  0  0  0  0  0  0  0  0
    7.0165    4.8995    5.0302 C   0  0  0  0  0  0  0  0  0  0  0  0
    6.4756    5.3621    3.8252 C   0  0  0  0  0  0  0  0  0  0  0  0
    5.0878    5.4334    3.6468 C   0  0  0  0  0  0  0  0  0  0  0  0
    4.2265    5.0387    4.6699 C   0  0  0  0  0  0  0  0  0  0  0  0
    4.7797    4.5954    5.8608 C   0  0  0  0  0  0  0  0  0  0  0  0
    3.9166    4.0756    7.3058 S   0  0  0  0  0  0  0  0  0  0  0  0
    6.4438    4.7693   10.5223 C   0  0  0  0  0  0  0  0  0  0  0  0
    7.9068    5.1282   10.2990 C   0  0  0  0  0  0  0  0  0  0  0  0
    8.9804    9.0120    9.3944 H   0  0  0  0  0  0  0  0  0  0  0  0
    9.3988    9.3836   11.0676 H   0  0  0  0  0  0  0  0  0  0  0  0
    7.7833    6.3310    7.8630 H   0  0  0  0  0  0  0  0  0  0  0  0
    7.4216    7.9363    8.4343 H   0  0  0  0  0  0  0  0  0  0  0  0
    5.3122    6.7509    7.8658 H   0  0  0  0  0  0  0  0  0  0  0  0
    5.3907    7.2496    9.5383 H   0  0  0  0  0  0  0  0  0  0  0  0
    4.5187    5.1520    9.7602 H   0  0  0  0  0  0  0  0  0  0  0  0
    5.4955    3.0166    8.7564 H   0  0  0  0  0  0  0  0  0  0  0  0
    7.5147    4.2848    7.6036 H   0  0  0  0  0  0  0  0  0  0  0  0
    8.0926    4.8277    5.1482 H   0  0  0  0  0  0  0  0  0  0  0  0
    7.1379    5.6597    3.0150 H   0  0  0  0  0  0  0  0  0  0  0  0
    4.6795    5.7898    2.7035 H   0  0  0  0  0  0  0  0  0  0  0  0
    3.1504    5.0817    4.5352 H   0  0  0  0  0  0  0  0  0  0  0  0
    6.3509    3.7101   10.7872 H   0  0  0  0  0  0  0  0  0  0  0  0
    6.0847    5.3356   11.3932 H   0  0  0  0  0  0  0  0  0  0  0  0
    8.4754    4.9220   11.2116 H   0  0  0  0  0  0  0  0  0  0  0  0
    8.3519    4.5154    9.5099 H   0  0  0  0  0  0  0  0  0  0  0  0
  1  2  2  0  0  0  0
  2  3  1  0  0  0  0
  2  5  1  0  0  0  0
  3  4  1  0  0  0  0
  3 20  1  0  0  0  0
  3 21  1  0  0  0  0
  5  6  1  0  0  0  0
  5 19  1  0  0  0  0
  6  7  1  0  0  0  0
  6 22  1  0  0  0  0
  6 23  1  0  0  0  0
  7  8  1  0  0  0  0
  7 24  1  0  0  0  0
  7 25  1  0  0  0  0
  8  9  1  0  0  0  0
  8 18  1  0  0  0  0
  8 26  1  0  0  0  0
  9 10  1  0  0  0  0
  9 17  1  0  0  0  0
  9 27  1  1  0  0  0
 10 11  1  0  0  0  0
 10 28  1  0  0  0  0
 11 12  1  0  0  0  0
 11 16  2  0  0  0  0
 12 13  2  0  0  0  0
 12 29  1  0  0  0  0
 13 14  1  0  0  0  0
 13 30  1  0  0  0  0
 14 15  2  0  0  0  0
 14 31  1  0  0  0  0
 15 16  1  0  0  0  0
 15 32  1  0  0  0  0
 16 17  1  0  0  0  0
 18 19  1  0  0  0  0
 18 33  1  0  0  0  0
 18 34  1  0  0  0  0
 19 35  1  0  0  0  0
 19 36  1  0  0  0  0
M  END
>  <name>


>  <Energy>
33.6481

$$$$

 OpenBabel06082022513D

 36 38  0  0  0  0  0  0  0  0999 V2000
    4.5305   10.7879    4.1606 O   0  0  0  0  0  0  0  0  0  0  0  0
    5.2455   10.1914    4.9482 C   0  0  0  0  0  0  0  0  0  0  0  0
    5.8423    8.8117    4.8273 C   0  0  0  0  0  0  0  0  0  0  0  0
    7.3245    8.9279    3.8676 Cl  0  0  0  0  0  0  0  0  0  0  0  0
    5.6786   10.8848    6.1179 N   0  3  0  0  0  0  0  0  0  0  0  0
    6.7874   11.6573    6.0252 C   0  0  0  0  0  0  0  0  0  0  0  0
    7.4330   12.1147    7.1598 C   0  0  0  0  0  0  0  0  0  0  0  0
    6.9341   11.7699    8.4087 C   0  0  0  0  0  0  0  0  0  0  0  0
    5.7541   11.0283    8.5055 C   0  0  0  0  0  0  0  0  0  0  0  0
    5.2573   10.6074    9.7490 C   0  0  0  0  0  0  0  0  0  0  0  0
    4.1033    9.8202    9.8045 C   0  0  0  0  0  0  0  0  0  0  0  0
    3.6856    8.9172   11.3021 S   0  0  0  0  0  0  0  0  0  0  0  0
    2.7653    7.8806   10.8862 O   0  0  0  0  0  0  0  0  0  0  0  0
    3.3384    9.9174   12.2864 O   0  0  0  0  0  0  0  0  0  0  0  0
    5.1442    8.1769   11.7181 N   0  0  0  0  0  0  0  0  0  0  0  0
    6.0283    8.7570   12.7444 C   0  0  0  0  0  0  0  0  0  0  0  0
    7.4309    8.4514   12.2213 C   0  0  0  0  0  0  0  0  0  0  0  0
    7.1684    7.6443   10.9874 C   0  0  0  0  0  0  0  0  0  0  0  0
    5.8720    7.4939   10.7112 C   0  0  0  0  0  0  0  0  0  0  0  0
    3.3520    9.5758    8.6540 C   0  0  0  0  0  0  0  0  0  0  0  0
    3.8351    9.9939    7.4153 C   0  0  0  0  0  0  0  0  0  0  0  0
    5.0777   10.6477    7.3160 C   0  0  0  0  0  0  0  0  0  0  0  0
    5.1362    8.1342    4.3429 H   0  0  0  0  0  0  0  0  0  0  0  0
    6.1020    8.4079    5.8106 H   0  0  0  0  0  0  0  0  0  0  0  0
    7.1754   11.8555    5.0272 H   0  0  0  0  0  0  0  0  0  0  0  0
    8.3468   12.7010    7.0747 H   0  0  0  0  0  0  0  0  0  0  0  0
    7.4721   12.0871    9.3024 H   0  0  0  0  0  0  0  0  0  0  0  0
    5.8002   10.8326   10.6655 H   0  0  0  0  0  0  0  0  0  0  0  0
    5.8493    8.2483   13.6980 H   0  0  0  0  0  0  0  0  0  0  0  0
    5.8820    9.8310   12.8848 H   0  0  0  0  0  0  0  0  0  0  0  0
    8.0206    7.8899   12.9512 H   0  0  0  0  0  0  0  0  0  0  0  0
    7.9651    9.3746   11.9732 H   0  0  0  0  0  0  0  0  0  0  0  0
    7.9677    7.2408   10.3800 H   0  0  0  0  0  0  0  0  0  0  0  0
    5.4012    6.9905    9.8783 H   0  0  0  0  0  0  0  0  0  0  0  0
    2.4142    9.0211    8.7117 H   0  0  0  0  0  0  0  0  0  0  0  0
    3.2183    9.7829    6.5435 H   0  0  0  0  0  0  0  0  0  0  0  0
  1  2  2  0  0  0  0
  2  3  1  0  0  0  0
  2  5  1  0  0  0  0
  3  4  1  0  0  0  0
  3 23  1  0  0  0  0
  3 24  1  0  0  0  0
  5  6  2  0  0  0  0
  5 22  1  0  0  0  0
  6  7  1  0  0  0  0
  6 25  1  0  0  0  0
  7  8  2  0  0  0  0
  7 26  1  0  0  0  0
  8  9  1  0  0  0  0
  8 27  1  0  0  0  0
  9 10  1  0  0  0  0
  9 22  2  0  0  0  0
 10 11  2  0  0  0  0
 10 28  1  0  0  0  0
 11 12  1  0  0  0  0
 11 20  1  0  0  0  0
 12 13  2  0  0  0  0
 12 14  2  0  0  0  0
 12 15  1  0  0  0  0
 15 16  1  0  0  0  0
 15 19  1  0  0  0  0
 16 17  1  0  0  0  0
 16 29  1  0  0  0  0
 16 30  1  0  0  0  0
 17 18  1  0  0  0  0
 17 31  1  0  0  0  0
 17 32  1  0  0  0  0
 18 19  2  0  0  0  0
 18 33  1  0  0  0  0
 19 34  1  0  0  0  0
 20 21  2  0  0  0  0
 20 35  1  0  0  0  0
 21 22  1  0  0  0  0
 21 36  1  0  0  0  0
M  CHG  1   5   1
M  END
>  <name>


>  <Energy>
92.7072

$$$$

 OpenBabel06082022513D

 38 39  0  0  0  0  0  0  0  0999 V2000
   12.3769    8.7729    8.4045 O   0  0  0  0  0  0  0  0  0  0  0  0
   11.3925    8.7913    9.1488 C   0  0  0  0  0  0  0  0  0  0  0  0
   11.5664    9.0423   10.6370 C   0  0  0  0  0  0  0  0  0  0  0  0
   11.5328   10.8072   10.8831 Cl  0  0  0  0  0  0  0  0  0  0  0  0
   10.1072    8.7206    8.6335 N   0  0  0  0  0  0  0  0  0  0  0  0
    8.9004    8.3753    9.3718 C   0  0  0  0  0  0  0  0  0  0  0  0
    7.8366    9.4596    9.1996 C   0  0  0  0  0  0  0  0  0  0  0  0
    7.4113    9.5763    7.7742 N   0  0  0  0  0  0  0  0  0  0  0  0
    5.8114    9.0539    7.4175 S   0  0  0  0  0  0  0  0  0  0  0  0
    5.5643    9.3840    6.0353 O   0  0  0  0  0  0  0  0  0  0  0  0
    4.9459    9.5599    8.4667 O   0  0  0  0  0  0  0  0  0  0  0  0
    5.9259    7.3205    7.5290 C   0  0  0  0  0  0  0  0  0  0  0  0
    5.8027    6.7177    8.7242 C   0  0  0  0  0  0  0  0  0  0  0  0
    6.5330    5.4705    9.0057 C   0  0  0  0  0  0  0  0  0  0  0  0
    7.1010    5.3351   10.2813 C   0  0  0  0  0  0  0  0  0  0  0  0
    8.0450    4.3388   10.5362 C   0  0  0  0  0  0  0  0  0  0  0  0
    8.4031    3.4482    9.5281 C   0  0  0  0  0  0  0  0  0  0  0  0
    7.7846    3.5223    8.2820 C   0  0  0  0  0  0  0  0  0  0  0  0
    6.8414    4.5206    8.0240 C   0  0  0  0  0  0  0  0  0  0  0  0
    8.4494    9.1695    6.7618 C   0  0  0  0  0  0  0  0  0  0  0  0
    9.9012    9.2261    7.2747 C   0  0  0  0  0  0  0  0  0  0  0  0
   12.5343    8.6589   10.9683 H   0  0  0  0  0  0  0  0  0  0  0  0
   10.7967    8.6006   11.2649 H   0  0  0  0  0  0  0  0  0  0  0  0
    9.0917    8.1800   10.4257 H   0  0  0  0  0  0  0  0  0  0  0  0
    8.5633    7.4313    8.9407 H   0  0  0  0  0  0  0  0  0  0  0  0
    8.2383   10.4308    9.5121 H   0  0  0  0  0  0  0  0  0  0  0  0
    6.9919    9.2441    9.8596 H   0  0  0  0  0  0  0  0  0  0  0  0
    6.3582    6.8466    6.6600 H   0  0  0  0  0  0  0  0  0  0  0  0
    5.4114    7.2612    9.5826 H   0  0  0  0  0  0  0  0  0  0  0  0
    6.8694    6.0465   11.0712 H   0  0  0  0  0  0  0  0  0  0  0  0
    8.5220    4.2788   11.5107 H   0  0  0  0  0  0  0  0  0  0  0  0
    9.1656    2.6954    9.7129 H   0  0  0  0  0  0  0  0  0  0  0  0
    8.0589    2.8207    7.4979 H   0  0  0  0  0  0  0  0  0  0  0  0
    6.3981    4.5694    7.0326 H   0  0  0  0  0  0  0  0  0  0  0  0
    8.3584    9.8236    5.8880 H   0  0  0  0  0  0  0  0  0  0  0  0
    8.2589    8.1440    6.4306 H   0  0  0  0  0  0  0  0  0  0  0  0
   10.5602    8.6761    6.5909 H   0  0  0  0  0  0  0  0  0  0  0  0
   10.2433   10.2679    7.2787 H   0  0  0  0  0  0  0  0  0  0  0  0
  1  2  2  0  0  0  0
  2  3  1  0  0  0  0
  2  5  1  0  0  0  0
  3  4  1  0  0  0  0
  3 22  1  0  0  0  0
  3 23  1  0  0  0  0
  5  6  1  0  0  0  0
  5 21  1  0  0  0  0
  6  7  1  0  0  0  0
  6 24  1  0  0  0  0
  6 25  1  0  0  0  0
  7  8  1  0  0  0  0
  7 26  1  0  0  0  0
  7 27  1  0  0  0  0
  8  9  1  0  0  0  0
  8 20  1  0  0  0  0
  9 10  2  0  0  0  0
  9 11  2  0  0  0  0
  9 12  1  0  0  0  0
 12 13  2  0  0  0  0
 12 28  1  0  0  0  0
 13 14  1  0  0  0  0
 13 29  1  0  0  0  0
 14 15  1  0  0  0  0
 14 19  2  0  0  0  0
 15 16  2  0  0  0  0
 15 30  1  0  0  0  0
 16 17  1  0  0  0  0
 16 31  1  0  0  0  0
 17 18  2  0  0  0  0
 17 32  1  0  0  0  0
 18 19  1  0  0  0  0
 18 33  1  0  0  0  0
 19 34  1  0  0  0  0
 20 21  1  0  0  0  0
 20 35  1  0  0  0  0
 20 36  1  0  0  0  0
 21 37  1  0  0  0  0
 21 38  1  0  0  0  0
M  END
>  <name>


>  <Energy>
28.4439

$$$$

 OpenBabel06082022513D

 31 32  0  0  0  0  0  0  0  0999 V2000
    2.9382    7.1604    2.9924 O   0  0  0  0  0  0  0  0  0  0  0  0
    3.4170    6.1327    2.5035 C   0  0  0  0  0  0  0  0  0  0  0  0
    3.9241    6.1434    1.0732 C   0  0  0  0  0  0  0  0  0  0  0  0
    2.5237    5.9054    0.0004 Cl  0  0  0  0  0  0  0  0  0  0  0  0
    3.4409    4.9332    3.2103 N   0  0  0  0  0  0  0  0  0  0  0  0
    4.1736    3.7343    2.7847 C   0  0  0  0  0  0  0  0  0  0  0  0
    4.3764    2.6576    3.8833 C   0  0  0  0  0  0  0  0  0  0  0  0
    4.0928    3.0963    5.2629 N   0  0  0  0  0  0  0  0  0  0  0  0
    5.1499    4.0097    5.7538 C   0  0  0  0  0  0  0  0  0  0  0  0
    4.7178    5.0864    6.6969 C   0  0  0  0  0  0  0  0  0  0  0  0
    4.5605    6.4476    6.5400 C   0  0  0  0  0  0  0  0  0  0  0  0
    4.0504    6.9350    7.7656 C   0  0  0  0  0  0  0  0  0  0  0  0
    3.9594    5.8464    8.5997 C   0  0  0  0  0  0  0  0  0  0  0  0
    4.3742    4.7192    7.9643 O   0  0  0  0  0  0  0  0  0  0  0  0
    2.7260    3.6389    5.2710 C   0  0  0  0  0  0  0  0  0  0  0  0
    2.4678    4.8000    4.2995 C   0  0  0  0  0  0  0  0  0  0  0  0
    4.6546    5.3665    0.8544 H   0  0  0  0  0  0  0  0  0  0  0  0
    4.3757    7.1148    0.8532 H   0  0  0  0  0  0  0  0  0  0  0  0
    5.1610    4.0599    2.4403 H   0  0  0  0  0  0  0  0  0  0  0  0
    3.6434    3.3036    1.9286 H   0  0  0  0  0  0  0  0  0  0  0  0
    5.3886    2.2395    3.8118 H   0  0  0  0  0  0  0  0  0  0  0  0
    3.7148    1.8112    3.6532 H   0  0  0  0  0  0  0  0  0  0  0  0
    5.6740    4.4985    4.9227 H   0  0  0  0  0  0  0  0  0  0  0  0
    5.9047    3.3941    6.2576 H   0  0  0  0  0  0  0  0  0  0  0  0
    4.7464    7.0098    5.6345 H   0  0  0  0  0  0  0  0  0  0  0  0
    3.7732    7.9521    8.0044 H   0  0  0  0  0  0  0  0  0  0  0  0
    3.6248    5.7119    9.6204 H   0  0  0  0  0  0  0  0  0  0  0  0
    2.3992    3.9086    6.2821 H   0  0  0  0  0  0  0  0  0  0  0  0
    2.0463    2.8188    4.9990 H   0  0  0  0  0  0  0  0  0  0  0  0
    1.4895    4.6593    3.8246 H   0  0  0  0  0  0  0  0  0  0  0  0
    2.4104    5.7431    4.8501 H   0  0  0  0  0  0  0  0  0  0  0  0
  1  2  2  0  0  0  0
  2  3  1  0  0  0  0
  2  5  1  0  0  0  0
  3  4  1  0  0  0  0
  3 17  1  0  0  0  0
  3 18  1  0  0  0  0
  5  6  1  0  0  0  0
  5 16  1  0  0  0  0
  6  7  1  0  0  0  0
  6 19  1  0  0  0  0
  6 20  1  0  0  0  0
  7  8  1  0  0  0  0
  7 21  1  0  0  0  0
  7 22  1  0  0  0  0
  8  9  1  0  0  0  0
  8 15  1  0  0  0  0
  9 10  1  0  0  0  0
  9 23  1  0  0  0  0
  9 24  1  0  0  0  0
 10 11  2  0  0  0  0
 10 14  1  0  0  0  0
 11 12  1  0  0  0  0
 11 25  1  0  0  0  0
 12 13  2  0  0  0  0
 12 26  1  0  0  0  0
 13 14  1  0  0  0  0
 13 27  1  0  0  0  0
 15 16  1  0  0  0  0
 15 28  1  0  0  0  0
 15 29  1  0  0  0  0
 16 30  1  0  0  0  0
 16 31  1  0  0  0  0
M  END
>  <name>


>  <Energy>
92.3036

$$$$

 OpenBabel06082022513D

 34 35  0  0  0  0  0  0  0  0999 V2000
    9.0581    7.7243   10.2937 O   0  0  0  0  0  0  0  0  0  0  0  0
    8.6631    6.6774    9.7370 C   0  0  0  0  0  0  0  0  0  0  0  0
    7.1809    6.3605    9.7224 C   0  0  0  0  0  0  0  0  0  0  0  0
    6.5699    6.1153   11.3601 Cl  0  0  0  0  0  0  0  0  0  0  0  0
    9.5611    5.9003    9.0014 N   0  0  0  0  0  0  0  0  0  0  0  0
    9.3063    4.5880    8.3815 C   0  0  0  0  0  0  0  0  0  0  0  0
    9.5615    4.6031    6.8393 C   0  0  0  0  0  0  0  0  0  0  0  0
    9.6140    5.9652    6.2207 N   0  0  0  0  0  0  0  0  0  0  0  0
    8.2655    6.5275    6.3633 C   0  0  0  0  0  0  0  0  0  0  0  0
    7.8218    7.8738    5.8270 C   0  0  0  0  0  0  0  0  0  0  0  0
    7.8312    8.9744    6.6971 C   0  0  0  0  0  0  0  0  0  0  0  0
    6.7698    9.8825    6.6607 C   0  0  0  0  0  0  0  0  0  0  0  0
    5.7560    9.7210    5.7185 C   0  0  0  0  0  0  0  0  0  0  0  0
    4.3104   10.6456    5.8522 Cl  0  0  0  0  0  0  0  0  0  0  0  0
    5.8606    8.7495    4.7244 C   0  0  0  0  0  0  0  0  0  0  0  0
    6.9206    7.8478    4.7490 C   0  0  0  0  0  0  0  0  0  0  0  0
   10.6794    6.7199    6.9276 C   0  0  0  0  0  0  0  0  0  0  0  0
   10.7615    6.5536    8.4769 C   0  0  0  0  0  0  0  0  0  0  0  0
    6.9072    5.4989    9.1176 H   0  0  0  0  0  0  0  0  0  0  0  0
    6.6644    7.2239    9.2852 H   0  0  0  0  0  0  0  0  0  0  0  0
    8.2998    4.2299    8.5959 H   0  0  0  0  0  0  0  0  0  0  0  0
   10.0012    3.8813    8.8484 H   0  0  0  0  0  0  0  0  0  0  0  0
    8.8007    3.9839    6.3432 H   0  0  0  0  0  0  0  0  0  0  0  0
   10.5117    4.0937    6.6311 H   0  0  0  0  0  0  0  0  0  0  0  0
    7.9585    6.5706    7.3968 H   0  0  0  0  0  0  0  0  0  0  0  0
    7.5721    5.7999    5.9356 H   0  0  0  0  0  0  0  0  0  0  0  0
    8.5400    9.0314    7.5212 H   0  0  0  0  0  0  0  0  0  0  0  0
    6.6883   10.6436    7.4331 H   0  0  0  0  0  0  0  0  0  0  0  0
    5.0681    8.6218    3.9922 H   0  0  0  0  0  0  0  0  0  0  0  0
    6.9281    7.0149    4.0489 H   0  0  0  0  0  0  0  0  0  0  0  0
   10.6529    7.7763    6.6531 H   0  0  0  0  0  0  0  0  0  0  0  0
   11.6390    6.3609    6.5245 H   0  0  0  0  0  0  0  0  0  0  0  0
   11.6135    5.9159    8.7441 H   0  0  0  0  0  0  0  0  0  0  0  0
   10.9272    7.5345    8.9324 H   0  0  0  0  0  0  0  0  0  0  0  0
  1  2  2  0  0  0  0
  2  3  1  0  0  0  0
  2  5  1  0  0  0  0
  3  4  1  0  0  0  0
  3 19  1  0  0  0  0
  3 20  1  0  0  0  0
  5  6  1  0  0  0  0
  5 18  1  0  0  0  0
  6  7  1  0  0  0  0
  6 21  1  0  0  0  0
  6 22  1  0  0  0  0
  7  8  1  0  0  0  0
  7 23  1  0  0  0  0
  7 24  1  0  0  0  0
  8  9  1  0  0  0  0
  8 17  1  0  0  0  0
  9 10  1  0  0  0  0
  9 25  1  0  0  0  0
  9 26  1  0  0  0  0
 10 11  1  0  0  0  0
 10 16  2  0  0  0  0
 11 12  2  0  0  0  0
 11 27  1  0  0  0  0
 12 13  1  0  0  0  0
 12 28  1  0  0  0  0
 13 14  1  0  0  0  0
 13 15  2  0  0  0  0
 15 16  1  0  0  0  0
 15 29  1  0  0  0  0
 16 30  1  0  0  0  0
 17 18  1  0  0  0  0
 17 31  1  0  0  0  0
 17 32  1  0  0  0  0
 18 33  1  0  0  0  0
 18 34  1  0  0  0  0
M  END
>  <name>


>  <Energy>
129.654

$$$$

 OpenBabel06082022513D

 42 43  0  0  0  0  0  0  0  0999 V2000
    7.1990   10.4567   13.0544 C   0  0  0  0  0  0  0  0  0  0  0  0
    7.8977    9.3694   12.4589 O   0  0  0  0  0  0  0  0  0  0  0  0
    7.4179    8.8842   11.2791 C   0  0  0  0  0  0  0  0  0  0  0  0
    7.8735    7.6134   10.9358 C   0  0  0  0  0  0  0  0  0  0  0  0
    7.4735    7.0020    9.7412 C   0  0  0  0  0  0  0  0  0  0  0  0
    6.6551    7.6731    8.8301 C   0  0  0  0  0  0  0  0  0  0  0  0
    6.2574    7.1392    7.6421 O   0  0  0  0  0  0  0  0  0  0  0  0
    6.4672    5.7476    7.4231 C   0  0  0  0  0  0  0  0  0  0  0  0
    6.2773    8.9864    9.1419 C   0  0  0  0  0  0  0  0  0  0  0  0
    5.5692   10.0935    7.9329 S   0  0  0  0  0  0  0  0  0  0  0  0
    4.7522   11.0405    8.6691 O   0  0  0  0  0  0  0  0  0  0  0  0
    5.0003    9.3513    6.8340 O   0  0  0  0  0  0  0  0  0  0  0  0
    6.9169   10.9689    7.3495 N   0  0  0  0  0  0  0  0  0  0  0  0
    7.0137   11.1769    5.8826 C   0  0  0  0  0  0  0  0  0  0  0  0
    8.1248   10.2900    5.3162 C   0  0  0  0  0  0  0  0  0  0  0  0
    9.4353   10.5767    5.9328 N   0  0  0  0  0  0  0  0  0  0  0  0
   10.5409    9.8925    5.4388 C   0  0  0  0  0  0  0  0  0  0  0  0
   10.4063    8.9895    4.6108 O   0  0  0  0  0  0  0  0  0  0  0  0
   11.9011   10.3139    5.9765 C   0  0  0  0  0  0  0  0  0  0  0  0
   13.1809    9.9947    4.7866 Cl  0  0  0  0  0  0  0  0  0  0  0  0
    9.4097   11.3468    7.1860 C   0  0  0  0  0  0  0  0  0  0  0  0
    8.2240   10.9172    8.0652 C   0  0  0  0  0  0  0  0  0  0  0  0
    6.6061    9.5685   10.3864 C   0  0  0  0  0  0  0  0  0  0  0  0
    7.6888   11.4007   12.7946 H   0  0  0  0  0  0  0  0  0  0  0  0
    7.2631   10.3252   14.1383 H   0  0  0  0  0  0  0  0  0  0  0  0
    6.1365   10.4901   12.7957 H   0  0  0  0  0  0  0  0  0  0  0  0
    8.5524    7.0900   11.6053 H   0  0  0  0  0  0  0  0  0  0  0  0
    7.8575    6.0043    9.5409 H   0  0  0  0  0  0  0  0  0  0  0  0
    5.8609    5.4451    6.5636 H   0  0  0  0  0  0  0  0  0  0  0  0
    6.1465    5.1392    8.2765 H   0  0  0  0  0  0  0  0  0  0  0  0
    7.5174    5.5594    7.1794 H   0  0  0  0  0  0  0  0  0  0  0  0
    7.2427   12.2361    5.7099 H   0  0  0  0  0  0  0  0  0  0  0  0
    6.0642   10.9908    5.3733 H   0  0  0  0  0  0  0  0  0  0  0  0
    8.2160   10.4279    4.2327 H   0  0  0  0  0  0  0  0  0  0  0  0
    7.8957    9.2347    5.5058 H   0  0  0  0  0  0  0  0  0  0  0  0
   12.1266    9.7561    6.8889 H   0  0  0  0  0  0  0  0  0  0  0  0
   11.9227   11.3878    6.1741 H   0  0  0  0  0  0  0  0  0  0  0  0
    9.3224   12.4072    6.9151 H   0  0  0  0  0  0  0  0  0  0  0  0
   10.3365   11.2156    7.7436 H   0  0  0  0  0  0  0  0  0  0  0  0
    8.4494    9.8869    8.3527 H   0  0  0  0  0  0  0  0  0  0  0  0
    8.1786   11.5434    8.9606 H   0  0  0  0  0  0  0  0  0  0  0  0
    6.2982   10.5920   10.5842 H   0  0  0  0  0  0  0  0  0  0  0  0
  1  2  1  0  0  0  0
  1 24  1  0  0  0  0
  1 25  1  0  0  0  0
  1 26  1  0  0  0  0
  2  3  1  0  0  0  0
  3  4  1  0  0  0  0
  3 23  2  0  0  0  0
  4  5  2  0  0  0  0
  4 27  1  0  0  0  0
  5  6  1  0  0  0  0
  5 28  1  0  0  0  0
  6  7  1  0  0  0  0
  6  9  2  0  0  0  0
  7  8  1  0  0  0  0
  8 29  1  0  0  0  0
  8 30  1  0  0  0  0
  8 31  1  0  0  0  0
  9 10  1  0  0  0  0
  9 23  1  0  0  0  0
 10 11  2  0  0  0  0
 10 12  2  0  0  0  0
 10 13  1  0  0  0  0
 13 14  1  0  0  0  0
 13 22  1  0  0  0  0
 14 15  1  0  0  0  0
 14 32  1  0  0  0  0
 14 33  1  0  0  0  0
 15 16  1  0  0  0  0
 15 34  1  0  0  0  0
 15 35  1  0  0  0  0
 16 17  1  0  0  0  0
 16 21  1  0  0  0  0
 17 18  2  0  0  0  0
 17 19  1  0  0  0  0
 19 20  1  0  0  0  0
 19 36  1  0  0  0  0
 19 37  1  0  0  0  0
 21 22  1  0  0  0  0
 21 38  1  0  0  0  0
 21 39  1  0  0  0  0
 22 40  1  0  0  0  0
 22 41  1  0  0  0  0
 23 42  1  0  0  0  0
M  END
>  <name>


>  <Energy>
62.1674

$$$$
