MODEL 1
REMARK VINA RESULT:      -6.4      0.000      0.000
REMARK  Name = 
REMARK  4 active torsions:
REMARK  status: ('A' for Active; 'I' for Inactive)
REMARK    1  A    between atoms: C_1  and  C_2
REMARK    2  A    between atoms: C_6  and  N_7
REMARK    3  A    between atoms: N_7  and  C_12
REMARK    4  A    between atoms: C_8  and  C_10
REMARK                            x       y       z     vdW  Elec       q    Type
REMARK                         _______ _______ _______ _____ _____    ______ ____
ROOT
ATOM      1  N   UNL     1       8.662  -0.584  22.877  0.00  0.00    +0.000 N 
ATOM      2  C   UNL     1       9.657  -1.603  22.933  0.00  0.00    +0.000 C 
ATOM      3  O   UNL     1      10.393  -1.888  21.983  0.00  0.00    +0.000 OA
ENDROOT
BRANCH   1   9
ATOM      4  C   UNL     1      11.061   3.542  23.426  0.00  0.00    +0.000 C 
ATOM      5  C   UNL     1      10.002   2.630  23.978  0.00  0.00    +0.000 A 
ATOM      6  C   UNL     1       8.867   3.153  24.611  0.00  0.00    +0.000 A 
ATOM      7  C   UNL     1       7.792   2.323  24.930  0.00  0.00    +0.000 A 
ATOM      8  C   UNL     1       7.796   0.990  24.519  0.00  0.00    +0.000 A 
ATOM      9  C   UNL     1       8.896   0.481  23.812  0.00  0.00    +0.000 A 
ATOM     10  C   UNL     1      10.041   1.268  23.658  0.00  0.00    +0.000 A 
ENDBRANCH   1   9
BRANCH   1  11
ATOM     11  C   UNL     1       8.014  -0.379  21.660  0.00  0.00    +0.000 C 
ATOM     12  C   UNL     1       6.934  -1.209  21.228  0.00  0.00    +0.000 C 
ATOM     13  C   UNL     1       6.370  -0.944  20.207  0.00  0.00    +0.000 C 
ATOM     14  S   UNL     1       7.025   0.523  19.483  0.00  0.00    +0.000 S 
ATOM     15  O   UNL     1       7.554  -0.057  18.271  0.00  0.00    +0.000 OA
ATOM     16  O   UNL     1       5.857   1.354  19.615  0.00  0.00    +0.000 OA
ATOM     17  C   UNL     1       8.186   0.654  20.799  0.00  0.00    +0.000 C 
ENDBRANCH   1  11
BRANCH   2  18
ATOM     18  C   UNL     1       9.720  -2.402  24.223  0.00  0.00    +0.000 C 
ATOM     19 CL   UNL     1       8.111  -2.988  24.668  0.00  0.00    +0.000 Cl
ENDBRANCH   2  18
TORSDOF 3
ENDMDL
MODEL 2
REMARK VINA RESULT:      -6.2      3.483      4.345
REMARK  Name = 
REMARK  4 active torsions:
REMARK  status: ('A' for Active; 'I' for Inactive)
REMARK    1  A    between atoms: C_1  and  C_2
REMARK    2  A    between atoms: C_6  and  N_7
REMARK    3  A    between atoms: N_7  and  C_12
REMARK    4  A    between atoms: C_8  and  C_10
REMARK                            x       y       z     vdW  Elec       q    Type
REMARK                         _______ _______ _______ _____ _____    ______ ____
ROOT
ATOM      1  N   UNL     1       7.973  -2.112  23.419  0.00  0.00    +0.000 N 
ATOM      2  C   UNL     1       9.245  -2.107  24.059  0.00  0.00    +0.000 C 
ATOM      3  O   UNL     1      10.090  -2.994  23.900  0.00  0.00    +0.000 OA
ENDROOT
BRANCH   1   9
ATOM      4  C   UNL     1       6.671   2.512  23.399  0.00  0.00    +0.000 C 
ATOM      5  C   UNL     1       7.267   1.380  22.612  0.00  0.00    +0.000 A 
ATOM      6  C   UNL     1       8.283   1.616  21.679  0.00  0.00    +0.000 A 
ATOM      7  C   UNL     1       8.978   0.549  21.108  0.00  0.00    +0.000 A 
ATOM      8  C   UNL     1       8.741  -0.753  21.550  0.00  0.00    +0.000 A 
ATOM      9  C   UNL     1       7.780  -0.987  22.545  0.00  0.00    +0.000 A 
ATOM     10  C   UNL     1       6.964   0.063  22.977  0.00  0.00    +0.000 A 
ENDBRANCH   1   9
BRANCH   1  11
ATOM     11  C   UNL     1       7.368  -3.346  23.189  0.00  0.00    +0.000 C 
ATOM     12  C   UNL     1       7.008  -4.224  24.258  0.00  0.00    +0.000 C 
ATOM     13  C   UNL     1       6.429  -5.240  24.006  0.00  0.00    +0.000 C 
ATOM     14  S   UNL     1       6.105  -5.373  22.279  0.00  0.00    +0.000 S 
ATOM     15  O   UNL     1       6.913  -6.537  22.001  0.00  0.00    +0.000 OA
ATOM     16  O   UNL     1       4.668  -5.301  22.337  0.00  0.00    +0.000 OA
ATOM     17  C   UNL     1       6.918  -3.836  22.007  0.00  0.00    +0.000 C 
ENDBRANCH   1  11
BRANCH   2  18
ATOM     18  C   UNL     1       9.495  -0.974  25.039  0.00  0.00    +0.000 C 
ATOM     19 CL   UNL     1      10.687   0.159  24.385  0.00  0.00    +0.000 Cl
ENDBRANCH   2  18
TORSDOF 3
ENDMDL
MODEL 3
REMARK VINA RESULT:      -6.0      3.224      4.797
REMARK  Name = 
REMARK  4 active torsions:
REMARK  status: ('A' for Active; 'I' for Inactive)
REMARK    1  A    between atoms: C_1  and  C_2
REMARK    2  A    between atoms: C_6  and  N_7
REMARK    3  A    between atoms: N_7  and  C_12
REMARK    4  A    between atoms: C_8  and  C_10
REMARK                            x       y       z     vdW  Elec       q    Type
REMARK                         _______ _______ _______ _____ _____    ______ ____
ROOT
ATOM      1  N   UNL     1       8.655  -1.288  23.082  0.00  0.00    +0.000 N 
ATOM      2  C   UNL     1      10.011  -0.966  22.787  0.00  0.00    +0.000 C 
ATOM      3  O   UNL     1      10.819  -1.781  22.330  0.00  0.00    +0.000 OA
ENDROOT
BRANCH   1   9
ATOM      4  C   UNL     1       6.313   2.904  22.962  0.00  0.00    +0.000 C 
ATOM      5  C   UNL     1       6.680   1.657  22.209  0.00  0.00    +0.000 A 
ATOM      6  C   UNL     1       6.918   1.700  20.830  0.00  0.00    +0.000 A 
ATOM      7  C   UNL     1       7.462   0.595  20.174  0.00  0.00    +0.000 A 
ATOM      8  C   UNL     1       7.877  -0.516  20.908  0.00  0.00    +0.000 A 
ATOM      9  C   UNL     1       7.715  -0.531  22.302  0.00  0.00    +0.000 A 
ATOM     10  C   UNL     1       7.005   0.500  22.925  0.00  0.00    +0.000 A 
ENDBRANCH   1   9
BRANCH   1  11
ATOM     11  C   UNL     1       8.379  -2.577  23.536  0.00  0.00    +0.000 C 
ATOM     12  C   UNL     1       7.741  -3.550  22.707  0.00  0.00    +0.000 C 
ATOM     13  C   UNL     1       7.591  -4.661  23.125  0.00  0.00    +0.000 C 
ATOM     14  S   UNL     1       8.285  -4.831  24.735  0.00  0.00    +0.000 S 
ATOM     15  O   UNL     1       7.068  -5.099  25.464  0.00  0.00    +0.000 OA
ATOM     16  O   UNL     1       9.330  -5.766  24.408  0.00  0.00    +0.000 OA
ATOM     17  C   UNL     1       8.764  -3.138  24.708  0.00  0.00    +0.000 C 
ENDBRANCH   1  11
BRANCH   2  18
ATOM     18  C   UNL     1      10.455   0.442  23.143  0.00  0.00    +0.000 C 
ATOM     19 CL   UNL     1      10.811   0.559  24.873  0.00  0.00    +0.000 Cl
ENDBRANCH   2  18
TORSDOF 3
ENDMDL
MODEL 4
REMARK VINA RESULT:      -6.0      3.224      4.171
REMARK  Name = 
REMARK  4 active torsions:
REMARK  status: ('A' for Active; 'I' for Inactive)
REMARK    1  A    between atoms: C_1  and  C_2
REMARK    2  A    between atoms: C_6  and  N_7
REMARK    3  A    between atoms: N_7  and  C_12
REMARK    4  A    between atoms: C_8  and  C_10
REMARK                            x       y       z     vdW  Elec       q    Type
REMARK                         _______ _______ _______ _____ _____    ______ ____
ROOT
ATOM      1  N   UNL     1       8.043  -1.335  23.417  0.00  0.00    +0.000 N 
ATOM      2  C   UNL     1       9.310  -1.518  24.042  0.00  0.00    +0.000 C 
ATOM      3  O   UNL     1      10.041  -2.489  23.826  0.00  0.00    +0.000 OA
ENDROOT
BRANCH   1   9
ATOM      4  C   UNL     1       7.498   0.151  18.881  0.00  0.00    +0.000 C 
ATOM      5  C   UNL     1       7.549   0.551  20.329  0.00  0.00    +0.000 A 
ATOM      6  C   UNL     1       6.740   1.587  20.812  0.00  0.00    +0.000 A 
ATOM      7  C   UNL     1       6.631   1.814  22.185  0.00  0.00    +0.000 A 
ATOM      8  C   UNL     1       7.238   0.938  23.086  0.00  0.00    +0.000 A 
ATOM      9  C   UNL     1       7.982  -0.149  22.607  0.00  0.00    +0.000 A 
ATOM     10  C   UNL     1       8.237  -0.262  21.237  0.00  0.00    +0.000 A 
ENDBRANCH   1   9
BRANCH   1  11
ATOM     11  C   UNL     1       7.292  -2.473  23.129  0.00  0.00    +0.000 C 
ATOM     12  C   UNL     1       5.877  -2.516  23.323  0.00  0.00    +0.000 C 
ATOM     13  C   UNL     1       5.275  -3.495  22.994  0.00  0.00    +0.000 C 
ATOM     14  S   UNL     1       6.349  -4.685  22.263  0.00  0.00    +0.000 S 
ATOM     15  O   UNL     1       6.210  -5.731  23.248  0.00  0.00    +0.000 OA
ATOM     16  O   UNL     1       5.802  -4.661  20.932  0.00  0.00    +0.000 OA
ATOM     17  C   UNL     1       7.718  -3.610  22.525  0.00  0.00    +0.000 C 
ENDBRANCH   1  11
BRANCH   2  18
ATOM     18  C   UNL     1       9.699  -0.477  25.077  0.00  0.00    +0.000 C 
ATOM     19 CL   UNL     1      10.953   0.596  24.437  0.00  0.00    +0.000 Cl
ENDBRANCH   2  18
TORSDOF 3
ENDMDL
MODEL 5
REMARK VINA RESULT:      -5.8      2.789      4.950
REMARK  Name = 
REMARK  4 active torsions:
REMARK  status: ('A' for Active; 'I' for Inactive)
REMARK    1  A    between atoms: C_1  and  C_2
REMARK    2  A    between atoms: C_6  and  N_7
REMARK    3  A    between atoms: N_7  and  C_12
REMARK    4  A    between atoms: C_8  and  C_10
REMARK                            x       y       z     vdW  Elec       q    Type
REMARK                         _______ _______ _______ _____ _____    ______ ____
ROOT
ATOM      1  N   UNL     1       7.694  -1.528  22.334  0.00  0.00    +0.000 N 
ATOM      2  C   UNL     1       8.101  -0.640  23.372  0.00  0.00    +0.000 C 
ATOM      3  O   UNL     1       7.553   0.444  23.593  0.00  0.00    +0.000 OA
ENDROOT
BRANCH   1   9
ATOM      4  C   UNL     1       3.899  -3.710  24.312  0.00  0.00    +0.000 C 
ATOM      5  C   UNL     1       5.251  -3.885  23.679  0.00  0.00    +0.000 A 
ATOM      6  C   UNL     1       5.520  -4.993  22.865  0.00  0.00    +0.000 A 
ATOM      7  C   UNL     1       6.693  -5.046  22.112  0.00  0.00    +0.000 A 
ATOM      8  C   UNL     1       7.549  -3.944  22.078  0.00  0.00    +0.000 A 
ATOM      9  C   UNL     1       7.242  -2.799  22.828  0.00  0.00    +0.000 A 
ATOM     10  C   UNL     1       6.164  -2.826  23.718  0.00  0.00    +0.000 A 
ENDBRANCH   1   9
BRANCH   1  11
ATOM     11  C   UNL     1       7.200  -0.966  21.158  0.00  0.00    +0.000 C 
ATOM     12  C   UNL     1       8.004  -0.134  20.320  0.00  0.00    +0.000 C 
ATOM     13  C   UNL     1       7.549   0.265  19.289  0.00  0.00    +0.000 C 
ATOM     14  S   UNL     1       5.922  -0.360  19.030  0.00  0.00    +0.000 S 
ATOM     15  O   UNL     1       5.205   0.893  19.069  0.00  0.00    +0.000 OA
ATOM     16  O   UNL     1       6.198  -1.172  17.874  0.00  0.00    +0.000 OA
ATOM     17  C   UNL     1       6.002  -1.206  20.571  0.00  0.00    +0.000 C 
ENDBRANCH   1  11
BRANCH   2  18
ATOM     18  C   UNL     1       9.326  -1.060  24.166  0.00  0.00    +0.000 C 
ATOM     19 CL   UNL     1      10.413   0.316  24.400  0.00  0.00    +0.000 Cl
ENDBRANCH   2  18
TORSDOF 3
ENDMDL
MODEL 6
REMARK VINA RESULT:      -5.8      4.307      6.015
REMARK  Name = 
REMARK  4 active torsions:
REMARK  status: ('A' for Active; 'I' for Inactive)
REMARK    1  A    between atoms: C_1  and  C_2
REMARK    2  A    between atoms: C_6  and  N_7
REMARK    3  A    between atoms: N_7  and  C_12
REMARK    4  A    between atoms: C_8  and  C_10
REMARK                            x       y       z     vdW  Elec       q    Type
REMARK                         _______ _______ _______ _____ _____    ______ ____
ROOT
ATOM      1  N   UNL     1       7.825  -1.892  25.138  0.00  0.00    +0.000 N 
ATOM      2  C   UNL     1       8.370  -0.839  25.926  0.00  0.00    +0.000 C 
ATOM      3  O   UNL     1       9.012  -1.028  26.964  0.00  0.00    +0.000 OA
ENDROOT
BRANCH   1   9
ATOM      4  C   UNL     1       7.438   0.125  20.795  0.00  0.00    +0.000 C 
ATOM      5  C   UNL     1       8.241  -0.783  21.683  0.00  0.00    +0.000 A 
ATOM      6  C   UNL     1       9.638  -0.820  21.591  0.00  0.00    +0.000 A 
ATOM      7  C   UNL     1      10.390  -1.497  22.551  0.00  0.00    +0.000 A 
ATOM      8  C   UNL     1       9.761  -2.044  23.670  0.00  0.00    +0.000 A 
ATOM      9  C   UNL     1       8.369  -1.938  23.808  0.00  0.00    +0.000 A 
ATOM     10  C   UNL     1       7.609  -1.421  22.756  0.00  0.00    +0.000 A 
ENDBRANCH   1   9
BRANCH   1  11
ATOM     11  C   UNL     1       7.381  -3.035  25.801  0.00  0.00    +0.000 C 
ATOM     12  C   UNL     1       6.283  -3.002  26.715  0.00  0.00    +0.000 C 
ATOM     13  C   UNL     1       5.902  -4.025  27.203  0.00  0.00    +0.000 C 
ATOM     14  S   UNL     1       6.817  -5.399  26.589  0.00  0.00    +0.000 S 
ATOM     15  O   UNL     1       7.440  -5.809  27.826  0.00  0.00    +0.000 OA
ATOM     16  O   UNL     1       5.747  -6.061  25.890  0.00  0.00    +0.000 OA
ATOM     17  C   UNL     1       7.791  -4.313  25.605  0.00  0.00    +0.000 C 
ENDBRANCH   1  11
BRANCH   2  18
ATOM     18  C   UNL     1       8.048   0.573  25.467  0.00  0.00    +0.000 C 
ATOM     19 CL   UNL     1       9.484   1.341  24.775  0.00  0.00    +0.000 Cl
ENDBRANCH   2  18
TORSDOF 3
ENDMDL
MODEL 7
REMARK VINA RESULT:      -5.7      3.691      5.974
REMARK  Name = 
REMARK  4 active torsions:
REMARK  status: ('A' for Active; 'I' for Inactive)
REMARK    1  A    between atoms: C_1  and  C_2
REMARK    2  A    between atoms: C_6  and  N_7
REMARK    3  A    between atoms: N_7  and  C_12
REMARK    4  A    between atoms: C_8  and  C_10
REMARK                            x       y       z     vdW  Elec       q    Type
REMARK                         _______ _______ _______ _____ _____    ______ ____
ROOT
ATOM      1  N   UNL     1       7.945  -3.591  24.302  0.00  0.00    +0.000 N 
ATOM      2  C   UNL     1       7.980  -3.460  25.720  0.00  0.00    +0.000 C 
ATOM      3  O   UNL     1       7.548  -2.473  26.323  0.00  0.00    +0.000 OA
ENDROOT
BRANCH   1   9
ATOM      4  C   UNL     1       3.408  -4.935  23.477  0.00  0.00    +0.000 C 
ATOM      5  C   UNL     1       4.861  -5.279  23.313  0.00  0.00    +0.000 A 
ATOM      6  C   UNL     1       5.313  -5.941  22.165  0.00  0.00    +0.000 A 
ATOM      7  C   UNL     1       6.680  -6.068  21.917  0.00  0.00    +0.000 A 
ATOM      8  C   UNL     1       7.601  -5.437  22.753  0.00  0.00    +0.000 A 
ATOM      9  C   UNL     1       7.150  -4.703  23.859  0.00  0.00    +0.000 A 
ATOM     10  C   UNL     1       5.795  -4.734  24.202  0.00  0.00    +0.000 A 
ENDBRANCH   1   9
BRANCH   1  11
ATOM     11  C   UNL     1       8.095  -2.432  23.540  0.00  0.00    +0.000 C 
ATOM     12  C   UNL     1       6.971  -1.713  23.029  0.00  0.00    +0.000 C 
ATOM     13  C   UNL     1       7.156  -0.688  22.440  0.00  0.00    +0.000 C 
ATOM     14  S   UNL     1       8.870  -0.282  22.400  0.00  0.00    +0.000 S 
ATOM     15  O   UNL     1       9.076  -0.372  20.974  0.00  0.00    +0.000 OA
ATOM     16  O   UNL     1       8.814   0.914  23.199  0.00  0.00    +0.000 OA
ATOM     17  C   UNL     1       9.242  -1.755  23.287  0.00  0.00    +0.000 C 
ENDBRANCH   1  11
BRANCH   2  18
ATOM     18  C   UNL     1       8.666  -4.584  26.476  0.00  0.00    +0.000 C 
ATOM     19 CL   UNL     1      10.103  -5.134  25.601  0.00  0.00    +0.000 Cl
ENDBRANCH   2  18
TORSDOF 3
ENDMDL
MODEL 8
REMARK VINA RESULT:      -5.7      3.091      5.495
REMARK  Name = 
REMARK  4 active torsions:
REMARK  status: ('A' for Active; 'I' for Inactive)
REMARK    1  A    between atoms: C_1  and  C_2
REMARK    2  A    between atoms: C_6  and  N_7
REMARK    3  A    between atoms: N_7  and  C_12
REMARK    4  A    between atoms: C_8  and  C_10
REMARK                            x       y       z     vdW  Elec       q    Type
REMARK                         _______ _______ _______ _____ _____    ______ ____
ROOT
ATOM      1  N   UNL     1       8.321  -1.765  24.062  0.00  0.00    +0.000 N 
ATOM      2  C   UNL     1       8.077  -2.364  22.793  0.00  0.00    +0.000 C 
ATOM      3  O   UNL     1       8.782  -2.163  21.799  0.00  0.00    +0.000 OA
ENDROOT
BRANCH   1   9
ATOM      4  C   UNL     1       6.217  -4.393  27.488  0.00  0.00    +0.000 C 
ATOM      5  C   UNL     1       7.471  -4.142  26.700  0.00  0.00    +0.000 A 
ATOM      6  C   UNL     1       8.313  -5.203  26.342  0.00  0.00    +0.000 A 
ATOM      7  C   UNL     1       9.355  -5.000  25.436  0.00  0.00    +0.000 A 
ATOM      8  C   UNL     1       9.493  -3.767  24.798  0.00  0.00    +0.000 A 
ATOM      9  C   UNL     1       8.601  -2.726  25.093  0.00  0.00    +0.000 A 
ATOM     10  C   UNL     1       7.678  -2.881  26.131  0.00  0.00    +0.000 A 
ENDBRANCH   1   9
BRANCH   1  11
ATOM     11  C   UNL     1       8.855  -0.477  24.078  0.00  0.00    +0.000 C 
ATOM     12  C   UNL     1      10.144  -0.200  24.629  0.00  0.00    +0.000 C 
ATOM     13  C   UNL     1      10.582   0.911  24.554  0.00  0.00    +0.000 C 
ATOM     14  S   UNL     1       9.475   1.970  23.683  0.00  0.00    +0.000 S 
ATOM     15  O   UNL     1       9.155   2.875  24.761  0.00  0.00    +0.000 OA
ATOM     16  O   UNL     1      10.307   2.235  22.538  0.00  0.00    +0.000 OA
ATOM     17  C   UNL     1       8.346   0.634  23.491  0.00  0.00    +0.000 C 
ENDBRANCH   1  11
BRANCH   2  18
ATOM     18  C   UNL     1       6.829  -3.224  22.691  0.00  0.00    +0.000 C 
ATOM     19 CL   UNL     1       7.257  -4.890  22.272  0.00  0.00    +0.000 Cl
ENDBRANCH   2  18
TORSDOF 3
ENDMDL
MODEL 9
REMARK VINA RESULT:      -5.7      2.201      4.151
REMARK  Name = 
REMARK  4 active torsions:
REMARK  status: ('A' for Active; 'I' for Inactive)
REMARK    1  A    between atoms: C_1  and  C_2
REMARK    2  A    between atoms: C_6  and  N_7
REMARK    3  A    between atoms: N_7  and  C_12
REMARK    4  A    between atoms: C_8  and  C_10
REMARK                            x       y       z     vdW  Elec       q    Type
REMARK                         _______ _______ _______ _____ _____    ______ ____
ROOT
ATOM      1  N   UNL     1       7.903   0.260  23.189  0.00  0.00    +0.000 N 
ATOM      2  C   UNL     1       7.181   1.180  24.002  0.00  0.00    +0.000 C 
ATOM      3  O   UNL     1       5.977   1.417  23.855  0.00  0.00    +0.000 OA
ENDROOT
BRANCH   1   9
ATOM      4  C   UNL     1       6.735  -4.011  25.053  0.00  0.00    +0.000 C 
ATOM      5  C   UNL     1       7.846  -3.056  24.719  0.00  0.00    +0.000 A 
ATOM      6  C   UNL     1       9.094  -3.531  24.298  0.00  0.00    +0.000 A 
ATOM      7  C   UNL     1      10.048  -2.650  23.788  0.00  0.00    +0.000 A 
ATOM      8  C   UNL     1       9.722  -1.308  23.590  0.00  0.00    +0.000 A 
ATOM      9  C   UNL     1       8.444  -0.844  23.935  0.00  0.00    +0.000 A 
ATOM     10  C   UNL     1       7.561  -1.690  24.612  0.00  0.00    +0.000 A 
ENDBRANCH   1   9
BRANCH   1  11
ATOM     11  C   UNL     1       7.528   0.143  21.852  0.00  0.00    +0.000 C 
ATOM     12  C   UNL     1       6.841  -1.009  21.357  0.00  0.00    +0.000 C 
ATOM     13  C   UNL     1       6.483  -1.026  20.216  0.00  0.00    +0.000 C 
ATOM     14  S   UNL     1       6.874   0.490  19.406  0.00  0.00    +0.000 S 
ATOM     15  O   UNL     1       7.808  -0.025  18.433  0.00  0.00    +0.000 OA
ATOM     16  O   UNL     1       5.529   0.946  19.170  0.00  0.00    +0.000 OA
ATOM     17  C   UNL     1       7.615   1.089  20.885  0.00  0.00    +0.000 C 
ENDBRANCH   1  11
BRANCH   2  18
ATOM     18  C   UNL     1       7.995   1.940  25.034  0.00  0.00    +0.000 C 
ATOM     19 CL   UNL     1       9.456   2.613  24.297  0.00  0.00    +0.000 Cl
ENDBRANCH   2  18
TORSDOF 3
ENDMDL
