
  xtb     06082022543D
xtb: 6.2.3 (830e466)
 39 40  0     0  0            999 V2000
    5.5748    8.2938    2.5192 C   0  0  0  0  0  0  0  0  0  0  0  0
    6.4891    8.9558    3.5171 C   0  0  0  0  0  0  0  0  0  0  0  0
    7.5248    9.4851    3.1885 O   0  0  0  0  0  0  0  0  0  0  0  0
    6.0549    8.9366    4.9460 C   0  0  0  0  0  0  0  0  0  0  0  0
    6.7117    9.7948    5.8291 C   0  0  0  0  0  0  0  0  0  0  0  0
    6.3558    9.8359    7.1645 C   0  0  0  0  0  0  0  0  0  0  0  0
    5.3471    9.0058    7.6151 C   0  0  0  0  0  0  0  0  0  0  0  0
    4.8779    9.0040    9.3438 S   0  0  0  0  0  0  0  0  0  0  0  0
    5.5578   10.0789   10.0023 O   0  0  0  0  0  0  0  0  0  0  0  0
    3.4546    8.9096    9.4528 O   0  0  0  0  0  0  0  0  0  0  0  0
    5.4953    7.4890    9.7768 N   0  0  0  0  0  0  0  0  0  0  0  0
    4.7946    6.8702   10.8819 C   0  0  0  0  0  0  0  0  0  0  0  0
    5.0573    7.6279   12.1936 C   0  0  0  0  0  0  0  0  0  0  0  0
    6.3698    8.2540   12.1548 N   0  0  0  0  0  0  0  0  0  0  0  0
    6.4755    9.5317   12.5885 C   0  0  0  0  0  0  0  0  0  0  0  0
    5.5711   10.0885   13.1731 O   0  0  0  0  0  0  0  0  0  0  0  0
    7.8287   10.2234   12.4667 C   0  0  0  0  0  0  0  0  0  0  0  0
    8.3996   10.4197   10.7986 Cl  0  0  0  0  0  0  0  0  0  0  0  0
    7.3468    7.5035   11.4071 C   0  0  0  0  0  0  0  0  0  0  0  0
    6.9362    7.4611    9.9214 C   0  0  0  0  0  0  0  0  0  0  0  0
    4.6894    8.1417    6.7600 C   0  0  0  0  0  0  0  0  0  0  0  0
    5.0378    8.1085    5.4219 C   0  0  0  0  0  0  0  0  0  0  0  0
    5.9146    8.5265    1.5133 H   0  0  0  0  0  0  0  0  0  0  0  0
    4.5505    8.6332    2.6507 H   0  0  0  0  0  0  0  0  0  0  0  0
    5.6071    7.2144    2.6581 H   0  0  0  0  0  0  0  0  0  0  0  0
    7.4983   10.4252    5.4423 H   0  0  0  0  0  0  0  0  0  0  0  0
    6.8380   10.5040    7.8610 H   0  0  0  0  0  0  0  0  0  0  0  0
    5.1220    5.8283   10.9437 H   0  0  0  0  0  0  0  0  0  0  0  0
    3.7322    6.8977   10.6417 H   0  0  0  0  0  0  0  0  0  0  0  0
    4.9975    6.9481   13.0523 H   0  0  0  0  0  0  0  0  0  0  0  0
    4.3262    8.4289   12.3264 H   0  0  0  0  0  0  0  0  0  0  0  0
    8.5966    9.6764   13.0172 H   0  0  0  0  0  0  0  0  0  0  0  0
    7.7155   11.2244   12.8837 H   0  0  0  0  0  0  0  0  0  0  0  0
    7.3651    6.4872   11.8176 H   0  0  0  0  0  0  0  0  0  0  0  0
    8.3398    7.9349   11.5067 H   0  0  0  0  0  0  0  0  0  0  0  0
    7.3339    8.3295    9.3952 H   0  0  0  0  0  0  0  0  0  0  0  0
    7.3248    6.5534    9.4459 H   0  0  0  0  0  0  0  0  0  0  0  0
    3.9054    7.5177    7.1577 H   0  0  0  0  0  0  0  0  0  0  0  0
    4.5241    7.4308    4.7587 H   0  0  0  0  0  0  0  0  0  0  0  0
  1  2  1  0  0  0  0
  1 23  1  0  0  0  0
  1 24  1  0  0  0  0
  1 25  1  0  0  0  0
  2  3  1  0  0  0  0
  2  4  1  0  0  0  0
  4  5  1  0  0  0  0
  4 22  1  0  0  0  0
  5  6  1  0  0  0  0
  5 26  1  0  0  0  0
  6  7  1  0  0  0  0
  6 27  1  0  0  0  0
  7  8  1  0  0  0  0
  7 21  1  0  0  0  0
  8  9  1  0  0  0  0
  8 10  1  0  0  0  0
  8 11  1  0  0  0  0
 11 12  1  0  0  0  0
 11 20  1  0  0  0  0
 12 13  1  0  0  0  0
 12 28  1  0  0  0  0
 12 29  1  0  0  0  0
 13 14  1  0  0  0  0
 13 30  1  0  0  0  0
 13 31  1  0  0  0  0
 14 15  1  0  0  0  0
 14 19  1  0  0  0  0
 15 16  1  0  0  0  0
 15 17  1  0  0  0  0
 17 18  1  0  0  0  0
 17 32  1  0  0  0  0
 17 33  1  0  0  0  0
 19 20  1  0  0  0  0
 19 34  1  0  0  0  0
 19 35  1  0  0  0  0
 20 36  1  0  0  0  0
 20 37  1  0  0  0  0
 21 22  1  0  0  0  0
 21 38  1  0  0  0  0
 22 39  1  0  0  0  0
M  END
>  <name>


>  <Energy>
120.815

> <total energy / Eh>
    -68.565006925929

> <gradient norm / Eh/a0>
      0.000824210199

$$$$
