MODEL 1
REMARK VINA RESULT:      -6.6      0.000      0.000
REMARK  Name = 
REMARK  6 active torsions:
REMARK  status: ('A' for Active; 'I' for Inactive)
REMARK    1  A    between atoms: C_1  and  C_2
REMARK    2  A    between atoms: C_5  and  S_6
REMARK    3  A    between atoms: S_6  and  N_9
REMARK    4  A    between atoms: N_12  and  C_13
REMARK    5  A    between atoms: C_13  and  C_15
REMARK    6  A    between atoms: C_20  and  C_21
REMARK                            x       y       z     vdW  Elec       q    Type
REMARK                         _______ _______ _______ _____ _____    ______ ____
ROOT
ATOM      1  S   UNL     1       8.860  -4.324  24.415  0.00  0.00    +0.000 S 
ATOM      2  O   UNL     1       8.244  -5.206  23.467  0.00  0.00    +0.000 OA
ATOM      3  O   UNL     1      10.075  -4.720  25.064  0.00  0.00    +0.000 OA
ENDROOT
BRANCH   1   8
ATOM      4  C   UNL     1       9.559   1.131  21.908  0.00  0.00    +0.000 C 
ATOM      5  C   UNL     1       9.430  -0.230  22.510  0.00  0.00    +0.000 C 
ATOM      6  C   UNL     1       8.722  -1.223  21.845  0.00  0.00    +0.000 C 
ATOM      7  C   UNL     1       8.544  -2.475  22.408  0.00  0.00    +0.000 C 
ATOM      8  C   UNL     1       9.100  -2.731  23.645  0.00  0.00    +0.000 C 
ATOM      9  C   UNL     1       9.838  -1.771  24.307  0.00  0.00    +0.000 C 
ATOM     10  C   UNL     1      10.006  -0.509  23.756  0.00  0.00    +0.000 C 
ATOM     11  C   UNL     1      10.764   0.542  24.502  0.00  0.00    +0.000 C 
ENDBRANCH   1   8
BRANCH   1  12
ATOM     12  N   UNL     1       7.735  -4.124  25.640  0.00  0.00    +0.000 NA
ATOM     13  C   UNL     1       7.398  -5.274  26.446  0.00  0.00    +0.000 C 
ATOM     14  C   UNL     1       5.886  -5.557  26.389  0.00  0.00    +0.000 C 
ATOM     15  N   UNL     1       5.371  -5.213  25.086  0.00  0.00    +0.000 NA
ATOM     16  C   UNL     1       5.434  -3.789  24.790  0.00  0.00    +0.000 C 
ATOM     17  C   UNL     1       6.682  -3.166  25.447  0.00  0.00    +0.000 C 
BRANCH  15  18
ATOM     18  C   UNL     1       4.964  -6.057  24.112  0.00  0.00    +0.000 C 
ATOM     19  O   UNL     1       4.850  -7.249  24.297  0.00  0.00    +0.000 OA
BRANCH  18  20
ATOM     20  C   UNL     1       4.690  -5.410  22.754  0.00  0.00    +0.000 C 
ATOM     21 CL   UNL     1       5.819  -6.060  21.554  0.00  0.00    +0.000 Cl
ENDBRANCH  18  20
ENDBRANCH  15  18
ENDBRANCH   1  12
TORSDOF 4
ENDMDL
MODEL 2
REMARK VINA RESULT:      -6.5      3.628      6.896
REMARK  Name = 
REMARK  6 active torsions:
REMARK  status: ('A' for Active; 'I' for Inactive)
REMARK    1  A    between atoms: C_1  and  C_2
REMARK    2  A    between atoms: C_5  and  S_6
REMARK    3  A    between atoms: S_6  and  N_9
REMARK    4  A    between atoms: N_12  and  C_13
REMARK    5  A    between atoms: C_13  and  C_15
REMARK    6  A    between atoms: C_20  and  C_21
REMARK                            x       y       z     vdW  Elec       q    Type
REMARK                         _______ _______ _______ _____ _____    ______ ____
ROOT
ATOM      1  S   UNL     1       8.919  -2.463  24.056  0.00  0.00    +0.000 S 
ATOM      2  O   UNL     1       8.708  -1.586  25.170  0.00  0.00    +0.000 OA
ATOM      3  O   UNL     1      10.212  -3.044  23.847  0.00  0.00    +0.000 OA
ENDROOT
BRANCH   1   8
ATOM      4  C   UNL     1       4.668  -6.759  24.174  0.00  0.00    +0.000 C 
ATOM      5  C   UNL     1       5.753  -5.731  24.147  0.00  0.00    +0.000 C 
ATOM      6  C   UNL     1       6.126  -5.081  25.317  0.00  0.00    +0.000 C 
ATOM      7  C   UNL     1       7.091  -4.088  25.307  0.00  0.00    +0.000 C 
ATOM      8  C   UNL     1       7.695  -3.763  24.110  0.00  0.00    +0.000 C 
ATOM      9  C   UNL     1       7.365  -4.421  22.942  0.00  0.00    +0.000 C 
ATOM     10  C   UNL     1       6.388  -5.405  22.942  0.00  0.00    +0.000 C 
ATOM     11  C   UNL     1       6.000  -6.078  21.665  0.00  0.00    +0.000 C 
ENDBRANCH   1   8
BRANCH   1  12
ATOM     12  N   UNL     1       8.610  -1.540  22.692  0.00  0.00    +0.000 NA
ATOM     13  C   UNL     1       9.732  -1.130  21.882  0.00  0.00    +0.000 C 
ATOM     14  C   UNL     1       9.782   0.403  21.754  0.00  0.00    +0.000 C 
ATOM     15  N   UNL     1       9.304   1.014  22.970  0.00  0.00    +0.000 NA
ATOM     16  C   UNL     1       7.893   0.767  23.233  0.00  0.00    +0.000 C 
ATOM     17  C   UNL     1       7.497  -0.633  22.722  0.00  0.00    +0.000 C 
BRANCH  15  18
ATOM     18  C   UNL     1      10.031   1.663  23.907  0.00  0.00    +0.000 C 
ATOM     19  O   UNL     1      10.686   1.073  24.739  0.00  0.00    +0.000 OA
BRANCH  18  20
ATOM     20  C   UNL     1       9.942   3.188  23.867  0.00  0.00    +0.000 C 
ATOM     21 CL   UNL     1      11.492   3.855  23.333  0.00  0.00    +0.000 Cl
ENDBRANCH  18  20
ENDBRANCH  15  18
ENDBRANCH   1  12
TORSDOF 4
ENDMDL
MODEL 3
REMARK VINA RESULT:      -6.4      1.861      2.857
REMARK  Name = 
REMARK  6 active torsions:
REMARK  status: ('A' for Active; 'I' for Inactive)
REMARK    1  A    between atoms: C_1  and  C_2
REMARK    2  A    between atoms: C_5  and  S_6
REMARK    3  A    between atoms: S_6  and  N_9
REMARK    4  A    between atoms: N_12  and  C_13
REMARK    5  A    between atoms: C_13  and  C_15
REMARK    6  A    between atoms: C_20  and  C_21
REMARK                            x       y       z     vdW  Elec       q    Type
REMARK                         _______ _______ _______ _____ _____    ______ ____
ROOT
ATOM      1  S   UNL     1       8.828  -2.596  24.632  0.00  0.00    +0.000 S 
ATOM      2  O   UNL     1       9.796  -3.513  24.103  0.00  0.00    +0.000 OA
ATOM      3  O   UNL     1       8.492  -2.646  26.024  0.00  0.00    +0.000 OA
ENDROOT
BRANCH   1   8
ATOM      4  C   UNL     1      10.593   2.973  23.082  0.00  0.00    +0.000 C 
ATOM      5  C   UNL     1      10.118   1.615  23.486  0.00  0.00    +0.000 C 
ATOM      6  C   UNL     1      10.610   1.019  24.640  0.00  0.00    +0.000 C 
ATOM      7  C   UNL     1      10.224  -0.260  25.005  0.00  0.00    +0.000 C 
ATOM      8  C   UNL     1       9.321  -0.933  24.208  0.00  0.00    +0.000 C 
ATOM      9  C   UNL     1       8.791  -0.346  23.077  0.00  0.00    +0.000 C 
ATOM     10  C   UNL     1       9.186   0.929  22.696  0.00  0.00    +0.000 C 
ATOM     11  C   UNL     1       8.647   1.539  21.443  0.00  0.00    +0.000 C 
ENDBRANCH   1   8
BRANCH   1  12
ATOM     12  N   UNL     1       7.405  -2.922  23.810  0.00  0.00    +0.000 NA
ATOM     13  C   UNL     1       6.157  -2.600  24.460  0.00  0.00    +0.000 C 
ATOM     14  C   UNL     1       5.266  -3.849  24.581  0.00  0.00    +0.000 C 
ATOM     15  N   UNL     1       6.085  -5.019  24.778  0.00  0.00    +0.000 NA
ATOM     16  C   UNL     1       6.926  -5.344  23.635  0.00  0.00    +0.000 C 
ATOM     17  C   UNL     1       7.374  -4.052  22.924  0.00  0.00    +0.000 C 
BRANCH  15  18
ATOM     18  C   UNL     1       6.230  -5.742  25.912  0.00  0.00    +0.000 C 
ATOM     19  O   UNL     1       7.288  -5.819  26.498  0.00  0.00    +0.000 OA
BRANCH  18  20
ATOM     20  C   UNL     1       4.978  -6.482  26.384  0.00  0.00    +0.000 C 
ATOM     21 CL   UNL     1       4.182  -7.238  24.996  0.00  0.00    +0.000 Cl
ENDBRANCH  18  20
ENDBRANCH  15  18
ENDBRANCH   1  12
TORSDOF 4
ENDMDL
MODEL 4
REMARK VINA RESULT:      -6.3      2.564      3.084
REMARK  Name = 
REMARK  6 active torsions:
REMARK  status: ('A' for Active; 'I' for Inactive)
REMARK    1  A    between atoms: C_1  and  C_2
REMARK    2  A    between atoms: C_5  and  S_6
REMARK    3  A    between atoms: S_6  and  N_9
REMARK    4  A    between atoms: N_12  and  C_13
REMARK    5  A    between atoms: C_13  and  C_15
REMARK    6  A    between atoms: C_20  and  C_21
REMARK                            x       y       z     vdW  Elec       q    Type
REMARK                         _______ _______ _______ _____ _____    ______ ____
ROOT
ATOM      1  S   UNL     1       6.280  -2.631  22.186  0.00  0.00    +0.000 S 
ATOM      2  O   UNL     1       5.475  -2.474  23.362  0.00  0.00    +0.000 OA
ATOM      3  O   UNL     1       5.648  -2.736  20.904  0.00  0.00    +0.000 OA
ENDROOT
BRANCH   1   8
ATOM      4  C   UNL     1      10.265   1.913  22.103  0.00  0.00    +0.000 C 
ATOM      5  C   UNL     1       9.316   0.759  22.115  0.00  0.00    +0.000 C 
ATOM      6  C   UNL     1       8.591   0.440  20.973  0.00  0.00    +0.000 C 
ATOM      7  C   UNL     1       7.668  -0.592  20.977  0.00  0.00    +0.000 C 
ATOM      8  C   UNL     1       7.487  -1.316  22.137  0.00  0.00    +0.000 C 
ATOM      9  C   UNL     1       8.223  -1.040  23.272  0.00  0.00    +0.000 C 
ATOM     10  C   UNL     1       9.138   0.002  23.281  0.00  0.00    +0.000 C 
ATOM     11  C   UNL     1       9.894   0.329  24.528  0.00  0.00    +0.000 C 
ENDBRANCH   1   8
BRANCH   1  12
ATOM     12  N   UNL     1       7.113  -4.069  22.400  0.00  0.00    +0.000 NA
ATOM     13  C   UNL     1       6.873  -5.138  21.462  0.00  0.00    +0.000 C 
ATOM     14  C   UNL     1       6.389  -6.406  22.189  0.00  0.00    +0.000 C 
ATOM     15  N   UNL     1       5.589  -6.041  23.332  0.00  0.00    +0.000 NA
ATOM     16  C   UNL     1       6.335  -5.348  24.372  0.00  0.00    +0.000 C 
ATOM     17  C   UNL     1       7.437  -4.474  23.740  0.00  0.00    +0.000 C 
BRANCH  15  18
ATOM     18  C   UNL     1       4.250  -6.167  23.474  0.00  0.00    +0.000 C 
ATOM     19  O   UNL     1       3.467  -5.522  22.811  0.00  0.00    +0.000 OA
BRANCH  18  20
ATOM     20  C   UNL     1       3.794  -7.151  24.551  0.00  0.00    +0.000 C 
ATOM     21 CL   UNL     1       2.342  -7.999  23.997  0.00  0.00    +0.000 Cl
ENDBRANCH  18  20
ENDBRANCH  15  18
ENDBRANCH   1  12
TORSDOF 4
ENDMDL
MODEL 5
REMARK VINA RESULT:      -6.3      1.622      2.187
REMARK  Name = 
REMARK  6 active torsions:
REMARK  status: ('A' for Active; 'I' for Inactive)
REMARK    1  A    between atoms: C_1  and  C_2
REMARK    2  A    between atoms: C_5  and  S_6
REMARK    3  A    between atoms: S_6  and  N_9
REMARK    4  A    between atoms: N_12  and  C_13
REMARK    5  A    between atoms: C_13  and  C_15
REMARK    6  A    between atoms: C_20  and  C_21
REMARK                            x       y       z     vdW  Elec       q    Type
REMARK                         _______ _______ _______ _____ _____    ______ ____
ROOT
ATOM      1  S   UNL     1       8.553  -3.867  24.031  0.00  0.00    +0.000 S 
ATOM      2  O   UNL     1       7.889  -4.578  22.978  0.00  0.00    +0.000 OA
ATOM      3  O   UNL     1       9.704  -4.445  24.660  0.00  0.00    +0.000 OA
ENDROOT
BRANCH   1   8
ATOM      4  C   UNL     1      10.047   1.610  21.957  0.00  0.00    +0.000 C 
ATOM      5  C   UNL     1       9.636   0.274  22.487  0.00  0.00    +0.000 C 
ATOM      6  C   UNL     1      10.110  -0.164  23.716  0.00  0.00    +0.000 C 
ATOM      7  C   UNL     1       9.786  -1.419  24.203  0.00  0.00    +0.000 C 
ATOM      8  C   UNL     1       8.963  -2.230  23.449  0.00  0.00    +0.000 C 
ATOM      9  C   UNL     1       8.451  -1.801  22.241  0.00  0.00    +0.000 C 
ATOM     10  C   UNL     1       8.785  -0.551  21.740  0.00  0.00    +0.000 C 
ATOM     11  C   UNL     1       8.268  -0.113  20.408  0.00  0.00    +0.000 C 
ENDBRANCH   1   8
BRANCH   1  12
ATOM     12  N   UNL     1       7.411  -3.695  25.246  0.00  0.00    +0.000 NA
ATOM     13  C   UNL     1       6.769  -4.887  25.747  0.00  0.00    +0.000 C 
ATOM     14  C   UNL     1       5.240  -4.790  25.593  0.00  0.00    +0.000 C 
ATOM     15  N   UNL     1       4.913  -4.048  24.400  0.00  0.00    +0.000 NA
ATOM     16  C   UNL     1       5.312  -2.649  24.453  0.00  0.00    +0.000 C 
ATOM     17  C   UNL     1       6.614  -2.501  25.266  0.00  0.00    +0.000 C 
BRANCH  15  18
ATOM     18  C   UNL     1       4.403  -4.530  23.245  0.00  0.00    +0.000 C 
ATOM     19  O   UNL     1       4.750  -4.113  22.162  0.00  0.00    +0.000 OA
BRANCH  18  20
ATOM     20  C   UNL     1       3.333  -5.612  23.399  0.00  0.00    +0.000 C 
ATOM     21 CL   UNL     1       1.804  -4.865  23.885  0.00  0.00    +0.000 Cl
ENDBRANCH  18  20
ENDBRANCH  15  18
ENDBRANCH   1  12
TORSDOF 4
ENDMDL
MODEL 6
REMARK VINA RESULT:      -6.2      3.566      6.593
REMARK  Name = 
REMARK  6 active torsions:
REMARK  status: ('A' for Active; 'I' for Inactive)
REMARK    1  A    between atoms: C_1  and  C_2
REMARK    2  A    between atoms: C_5  and  S_6
REMARK    3  A    between atoms: S_6  and  N_9
REMARK    4  A    between atoms: N_12  and  C_13
REMARK    5  A    between atoms: C_13  and  C_15
REMARK    6  A    between atoms: C_20  and  C_21
REMARK                            x       y       z     vdW  Elec       q    Type
REMARK                         _______ _______ _______ _____ _____    ______ ____
ROOT
ATOM      1  S   UNL     1       9.005  -2.378  23.453  0.00  0.00    +0.000 S 
ATOM      2  O   UNL     1      10.289  -2.895  23.829  0.00  0.00    +0.000 OA
ATOM      3  O   UNL     1       8.841  -1.752  22.175  0.00  0.00    +0.000 OA
ENDROOT
BRANCH   1   8
ATOM      4  C   UNL     1       4.783  -6.669  23.998  0.00  0.00    +0.000 C 
ATOM      5  C   UNL     1       5.861  -5.643  23.863  0.00  0.00    +0.000 C 
ATOM      6  C   UNL     1       6.337  -4.980  24.987  0.00  0.00    +0.000 C 
ATOM      7  C   UNL     1       7.297  -3.988  24.880  0.00  0.00    +0.000 C 
ATOM      8  C   UNL     1       7.791  -3.676  23.630  0.00  0.00    +0.000 C 
ATOM      9  C   UNL     1       7.359  -4.347  22.504  0.00  0.00    +0.000 C 
ATOM     10  C   UNL     1       6.386  -5.330  22.602  0.00  0.00    +0.000 C 
ATOM     11  C   UNL     1       5.886  -6.018  21.373  0.00  0.00    +0.000 C 
ENDBRANCH   1   8
BRANCH   1  12
ATOM     12  N   UNL     1       8.646  -1.198  24.587  0.00  0.00    +0.000 NA
ATOM     13  C   UNL     1       7.407  -0.472  24.442  0.00  0.00    +0.000 C 
ATOM     14  C   UNL     1       7.669   1.041  24.339  0.00  0.00    +0.000 C 
ATOM     15  N   UNL     1       8.914   1.278  23.651  0.00  0.00    +0.000 NA
ATOM     16  C   UNL     1      10.083   0.807  24.380  0.00  0.00    +0.000 C 
ATOM     17  C   UNL     1       9.733  -0.467  25.176  0.00  0.00    +0.000 C 
BRANCH  15  18
ATOM     18  C   UNL     1       9.086   1.765  22.402  0.00  0.00    +0.000 C 
ATOM     19  O   UNL     1      10.176   1.826  21.877  0.00  0.00    +0.000 OA
BRANCH  18  20
ATOM     20  C   UNL     1       7.817   2.266  21.712  0.00  0.00    +0.000 C 
ATOM     21 CL   UNL     1       7.486   3.929  22.220  0.00  0.00    +0.000 Cl
ENDBRANCH  18  20
ENDBRANCH  15  18
ENDBRANCH   1  12
TORSDOF 4
ENDMDL
MODEL 7
REMARK VINA RESULT:      -6.2      2.493      6.331
REMARK  Name = 
REMARK  6 active torsions:
REMARK  status: ('A' for Active; 'I' for Inactive)
REMARK    1  A    between atoms: C_1  and  C_2
REMARK    2  A    between atoms: C_5  and  S_6
REMARK    3  A    between atoms: S_6  and  N_9
REMARK    4  A    between atoms: N_12  and  C_13
REMARK    5  A    between atoms: C_13  and  C_15
REMARK    6  A    between atoms: C_20  and  C_21
REMARK                            x       y       z     vdW  Elec       q    Type
REMARK                         _______ _______ _______ _____ _____    ______ ____
ROOT
ATOM      1  S   UNL     1       7.693  -4.449  24.142  0.00  0.00    +0.000 S 
ATOM      2  O   UNL     1       8.840  -5.260  23.853  0.00  0.00    +0.000 OA
ATOM      3  O   UNL     1       6.781  -4.111  23.090  0.00  0.00    +0.000 OA
ENDROOT
BRANCH   1   8
ATOM      4  C   UNL     1       4.520  -6.856  28.688  0.00  0.00    +0.000 C 
ATOM      5  C   UNL     1       5.324  -6.304  27.556  0.00  0.00    +0.000 C 
ATOM      6  C   UNL     1       6.537  -5.675  27.803  0.00  0.00    +0.000 C 
ATOM      7  C   UNL     1       7.273  -5.110  26.775  0.00  0.00    +0.000 C 
ATOM      8  C   UNL     1       6.786  -5.197  25.487  0.00  0.00    +0.000 C 
ATOM      9  C   UNL     1       5.601  -5.849  25.213  0.00  0.00    +0.000 C 
ATOM     10  C   UNL     1       4.851  -6.403  26.240  0.00  0.00    +0.000 C 
ATOM     11  C   UNL     1       3.544  -7.064  25.944  0.00  0.00    +0.000 C 
ENDBRANCH   1   8
BRANCH   1  12
ATOM     12  N   UNL     1       8.304  -2.991  24.699  0.00  0.00    +0.000 NA
ATOM     13  C   UNL     1       7.374  -1.910  24.929  0.00  0.00    +0.000 C 
ATOM     14  C   UNL     1       7.759  -0.673  24.098  0.00  0.00    +0.000 C 
ATOM     15  N   UNL     1       8.338  -1.085  22.843  0.00  0.00    +0.000 NA
ATOM     16  C   UNL     1       9.611  -1.776  22.985  0.00  0.00    +0.000 C 
ATOM     17  C   UNL     1       9.623  -2.603  24.286  0.00  0.00    +0.000 C 
BRANCH  15  18
ATOM     18  C   UNL     1       7.783  -1.003  21.613  0.00  0.00    +0.000 C 
ATOM     19  O   UNL     1       6.723  -1.525  21.346  0.00  0.00    +0.000 OA
BRANCH  18  20
ATOM     20  C   UNL     1       8.600  -0.235  20.573  0.00  0.00    +0.000 C 
ATOM     21 CL   UNL     1       7.595   0.083  19.151  0.00  0.00    +0.000 Cl
ENDBRANCH  18  20
ENDBRANCH  15  18
ENDBRANCH   1  12
TORSDOF 4
ENDMDL
MODEL 8
REMARK VINA RESULT:      -6.2      2.104      3.067
REMARK  Name = 
REMARK  6 active torsions:
REMARK  status: ('A' for Active; 'I' for Inactive)
REMARK    1  A    between atoms: C_1  and  C_2
REMARK    2  A    between atoms: C_5  and  S_6
REMARK    3  A    between atoms: S_6  and  N_9
REMARK    4  A    between atoms: N_12  and  C_13
REMARK    5  A    between atoms: C_13  and  C_15
REMARK    6  A    between atoms: C_20  and  C_21
REMARK                            x       y       z     vdW  Elec       q    Type
REMARK                         _______ _______ _______ _____ _____    ______ ____
ROOT
ATOM      1  S   UNL     1       6.512  -4.259  22.510  0.00  0.00    +0.000 S 
ATOM      2  O   UNL     1       5.793  -4.687  21.345  0.00  0.00    +0.000 OA
ATOM      3  O   UNL     1       7.500  -5.121  23.089  0.00  0.00    +0.000 OA
ENDROOT
BRANCH   1   8
ATOM      4  C   UNL     1       8.964   1.178  21.531  0.00  0.00    +0.000 C 
ATOM      5  C   UNL     1       8.384  -0.184  21.736  0.00  0.00    +0.000 C 
ATOM      6  C   UNL     1       7.143  -0.501  21.197  0.00  0.00    +0.000 C 
ATOM      7  C   UNL     1       6.563  -1.739  21.419  0.00  0.00    +0.000 C 
ATOM      8  C   UNL     1       7.248  -2.666  22.176  0.00  0.00    +0.000 C 
ATOM      9  C   UNL     1       8.497  -2.385  22.690  0.00  0.00    +0.000 C 
ATOM     10  C   UNL     1       9.078  -1.142  22.486  0.00  0.00    +0.000 C 
ATOM     11  C   UNL     1      10.409  -0.826  23.088  0.00  0.00    +0.000 C 
ENDBRANCH   1   8
BRANCH   1  12
ATOM     12  N   UNL     1       5.351  -4.036  23.697  0.00  0.00    +0.000 NA
ATOM     13  C   UNL     1       5.491  -2.900  24.577  0.00  0.00    +0.000 C 
ATOM     14  C   UNL     1       5.551  -3.352  26.047  0.00  0.00    +0.000 C 
ATOM     15  N   UNL     1       6.219  -4.626  26.142  0.00  0.00    +0.000 NA
ATOM     16  C   UNL     1       5.491  -5.716  25.509  0.00  0.00    +0.000 C 
ATOM     17  C   UNL     1       4.733  -5.198  24.271  0.00  0.00    +0.000 C 
BRANCH  15  18
ATOM     18  C   UNL     1       7.454  -4.875  26.635  0.00  0.00    +0.000 C 
ATOM     19  O   UNL     1       7.653  -5.715  27.485  0.00  0.00    +0.000 OA
BRANCH  18  20
ATOM     20  C   UNL     1       8.574  -4.002  26.070  0.00  0.00    +0.000 C 
ATOM     21 CL   UNL     1       9.892  -5.034  25.494  0.00  0.00    +0.000 Cl
ENDBRANCH  18  20
ENDBRANCH  15  18
ENDBRANCH   1  12
TORSDOF 4
ENDMDL
MODEL 9
REMARK VINA RESULT:      -6.1      2.437      3.313
REMARK  Name = 
REMARK  6 active torsions:
REMARK  status: ('A' for Active; 'I' for Inactive)
REMARK    1  A    between atoms: C_1  and  C_2
REMARK    2  A    between atoms: C_5  and  S_6
REMARK    3  A    between atoms: S_6  and  N_9
REMARK    4  A    between atoms: N_12  and  C_13
REMARK    5  A    between atoms: C_13  and  C_15
REMARK    6  A    between atoms: C_20  and  C_21
REMARK                            x       y       z     vdW  Elec       q    Type
REMARK                         _______ _______ _______ _____ _____    ______ ____
ROOT
ATOM      1  S   UNL     1       9.239  -1.440  22.700  0.00  0.00    +0.000 S 
ATOM      2  O   UNL     1       8.152  -1.641  21.788  0.00  0.00    +0.000 OA
ATOM      3  O   UNL     1      10.538  -1.955  22.379  0.00  0.00    +0.000 OA
ENDROOT
BRANCH   1   8
ATOM      4  C   UNL     1       9.744   4.489  23.762  0.00  0.00    +0.000 C 
ATOM      5  C   UNL     1       9.588   3.020  23.537  0.00  0.00    +0.000 C 
ATOM      6  C   UNL     1      10.527   2.133  24.048  0.00  0.00    +0.000 C 
ATOM      7  C   UNL     1      10.432   0.773  23.807  0.00  0.00    +0.000 C 
ATOM      8  C   UNL     1       9.373   0.305  23.058  0.00  0.00    +0.000 C 
ATOM      9  C   UNL     1       8.409   1.163  22.571  0.00  0.00    +0.000 C 
ATOM     10  C   UNL     1       8.506   2.529  22.795  0.00  0.00    +0.000 C 
ATOM     11  C   UNL     1       7.486   3.459  22.221  0.00  0.00    +0.000 C 
ENDBRANCH   1   8
BRANCH   1  12
ATOM     12  N   UNL     1       8.784  -2.209  24.118  0.00  0.00    +0.000 NA
ATOM     13  C   UNL     1       9.021  -3.629  24.226  0.00  0.00    +0.000 C 
ATOM     14  C   UNL     1       7.709  -4.382  24.508  0.00  0.00    +0.000 C 
ATOM     15  N   UNL     1       6.611  -3.720  23.846  0.00  0.00    +0.000 NA
ATOM     16  C   UNL     1       6.329  -2.392  24.369  0.00  0.00    +0.000 C 
ATOM     17  C   UNL     1       7.636  -1.712  24.823  0.00  0.00    +0.000 C 
BRANCH  15  18
ATOM     18  C   UNL     1       5.928  -4.144  22.759  0.00  0.00    +0.000 C 
ATOM     19  O   UNL     1       5.193  -3.413  22.132  0.00  0.00    +0.000 OA
BRANCH  18  20
ATOM     20  C   UNL     1       6.119  -5.618  22.397  0.00  0.00    +0.000 C 
ATOM     21 CL   UNL     1       6.183  -5.788  20.636  0.00  0.00    +0.000 Cl
ENDBRANCH  18  20
ENDBRANCH  15  18
ENDBRANCH   1  12
TORSDOF 4
ENDMDL
