
  xtb     06082022533D
xtb: 6.2.3 (830e466)
 34 35  0     0  0            999 V2000
    8.0525    6.7553    4.2772 O   0  0  0  0  0  0  0  0  0  0  0  0
    8.3971    7.9103    4.4429 C   0  0  0  0  0  0  0  0  0  0  0  0
    9.8588    8.2949    4.2453 C   0  0  0  0  0  0  0  0  0  0  0  0
   10.6281    8.9064    5.7316 Cl  0  0  0  0  0  0  0  0  0  0  0  0
    7.5189    8.8953    4.7133 N   0  0  0  0  0  0  0  0  0  0  0  0
    6.1090    8.5641    4.8519 C   0  0  0  0  0  0  0  0  0  0  0  0
    5.5027    9.3096    6.0584 C   0  0  0  0  0  0  0  0  0  0  0  0
    6.5022    9.6350    7.0380 N   0  0  0  0  0  0  0  0  0  0  0  0
    6.7619    8.5976    8.3125 S   0  0  0  0  0  0  0  0  0  0  0  0
    5.4764    8.2716    8.8444 O   0  0  0  0  0  0  0  0  0  0  0  0
    7.7223    9.2450    9.1535 O   0  0  0  0  0  0  0  0  0  0  0  0
    7.5529    7.1088    7.6677 C   0  0  0  0  0  0  0  0  0  0  0  0
    8.9328    7.0603    7.7558 C   0  0  0  0  0  0  0  0  0  0  0  0
    9.6274    5.9637    7.2782 C   0  0  0  0  0  0  0  0  0  0  0  0
    8.9320    4.9053    6.7156 C   0  0  0  0  0  0  0  0  0  0  0  0
    7.5517    4.9334    6.6476 C   0  0  0  0  0  0  0  0  0  0  0  0
    6.8598    6.0373    7.1287 C   0  0  0  0  0  0  0  0  0  0  0  0
    5.1428    6.0394    7.0589 Cl  0  0  0  0  0  0  0  0  0  0  0  0
    7.5854   10.4672    6.5689 C   0  0  0  0  0  0  0  0  0  0  0  0
    7.8165   10.2636    5.0596 C   0  0  0  0  0  0  0  0  0  0  0  0
    9.9668    9.0601    3.4753 H   0  0  0  0  0  0  0  0  0  0  0  0
   10.3974    7.3940    3.9517 H   0  0  0  0  0  0  0  0  0  0  0  0
    6.0383    7.4812    4.9637 H   0  0  0  0  0  0  0  0  0  0  0  0
    5.5823    8.8485    3.9334 H   0  0  0  0  0  0  0  0  0  0  0  0
    4.7524    8.6985    6.5585 H   0  0  0  0  0  0  0  0  0  0  0  0
    5.0257   10.2406    5.7334 H   0  0  0  0  0  0  0  0  0  0  0  0
    9.4369    7.8921    8.2218 H   0  0  0  0  0  0  0  0  0  0  0  0
   10.7042    5.9381    7.3440 H   0  0  0  0  0  0  0  0  0  0  0  0
    9.4643    4.0495    6.3305 H   0  0  0  0  0  0  0  0  0  0  0  0
    7.0010    4.1134    6.2166 H   0  0  0  0  0  0  0  0  0  0  0  0
    8.4711   10.2043    7.1475 H   0  0  0  0  0  0  0  0  0  0  0  0
    7.3494   11.5202    6.7666 H   0  0  0  0  0  0  0  0  0  0  0  0
    7.1344   10.9043    4.4901 H   0  0  0  0  0  0  0  0  0  0  0  0
    8.8375   10.5318    4.8012 H   0  0  0  0  0  0  0  0  0  0  0  0
  1  2  1  0  0  0  0
  2  3  1  0  0  0  0
  2  5  1  0  0  0  0
  3  4  1  0  0  0  0
  3 21  1  0  0  0  0
  3 22  1  0  0  0  0
  5  6  1  0  0  0  0
  5 20  1  0  0  0  0
  6  7  1  0  0  0  0
  6 23  1  0  0  0  0
  6 24  1  0  0  0  0
  7  8  1  0  0  0  0
  7 25  1  0  0  0  0
  7 26  1  0  0  0  0
  8  9  1  0  0  0  0
  8 19  1  0  0  0  0
  9 10  1  0  0  0  0
  9 11  1  0  0  0  0
  9 12  1  0  0  0  0
 12 13  1  0  0  0  0
 12 17  1  0  0  0  0
 13 14  1  0  0  0  0
 13 27  1  0  0  0  0
 14 15  1  0  0  0  0
 14 28  1  0  0  0  0
 15 16  1  0  0  0  0
 15 29  1  0  0  0  0
 16 17  1  0  0  0  0
 16 30  1  0  0  0  0
 17 18  1  0  0  0  0
 19 20  1  0  0  0  0
 19 31  1  0  0  0  0
 19 32  1  0  0  0  0
 20 33  1  0  0  0  0
 20 34  1  0  0  0  0
M  END
>  <name>


>  <Energy>
41.9079

> <total energy / Eh>
    -63.255068276311

> <gradient norm / Eh/a0>
      0.000817296327

$$$$
