MODEL 1
REMARK VINA RESULT:      -6.6      0.000      0.000
REMARK  Name = 
REMARK  2 active torsions:
REMARK  status: ('A' for Active; 'I' for Inactive)
REMARK    1  A    between atoms: C_2  and  C_3
REMARK    2  A    between atoms: C_8  and  C_9
REMARK                            x       y       z     vdW  Elec       q    Type
REMARK                         _______ _______ _______ _____ _____    ______ ____
ROOT
ATOM      1  O   UNL     1       7.878   0.020  18.562  0.00  0.00    +0.000 OA
ATOM      2  C   UNL     1       7.161  -0.140  19.554  0.00  0.00    +0.000 C 
ATOM      3  N   UNL     1       7.698  -0.251  20.836  0.00  0.00    +0.000 N 
ATOM      4  C   UNL     1       6.931  -0.190  22.079  0.00  0.00    +0.000 C 
ATOM      5  C   UNL     1       7.203   1.125  22.814  0.00  0.00    +0.000 C 
ATOM      6  C   UNL     1       8.704   1.466  22.978  0.00  0.00    +0.000 C 
ATOM      7  C   UNL     1       9.470   1.216  21.660  0.00  0.00    +0.000 C 
ATOM      8  C   UNL     1       9.140  -0.118  21.004  0.00  0.00    +0.000 C 
ENDROOT
BRANCH   6   9
ATOM      9  C   UNL     1       9.424   0.853  24.210  0.00  0.00    +0.000 C 
ATOM     10  N   UNL     1      10.186  -0.367  23.929  0.00  0.00    +0.000 N 
ATOM     11  C   UNL     1       9.486  -1.500  24.374  0.00  0.00    +0.000 A 
ATOM     12  C   UNL     1       9.843  -2.805  24.063  0.00  0.00    +0.000 A 
ATOM     13  C   UNL     1       9.107  -3.864  24.605  0.00  0.00    +0.000 A 
ATOM     14  C   UNL     1       8.045  -3.616  25.485  0.00  0.00    +0.000 A 
ATOM     15  C   UNL     1       7.710  -2.308  25.834  0.00  0.00    +0.000 A 
ATOM     16  C   UNL     1       8.443  -1.272  25.276  0.00  0.00    +0.000 A 
ATOM     17  S   UNL     1       8.202   0.455  25.527  0.00  0.00    +0.000 S 
ATOM     18  H   UNL     1      10.683  -0.452  23.057  0.00  0.00    +0.000 HD
ENDBRANCH   6   9
BRANCH   2  19
ATOM     19  C   UNL     1       5.660  -0.268  19.375  0.00  0.00    +0.000 C 
ATOM     20 CL   UNL     1       4.953   1.326  19.059  0.00  0.00    +0.000 Cl
ENDBRANCH   2  19
TORSDOF 2
ENDMDL
MODEL 2
REMARK VINA RESULT:      -6.6      3.033      3.998
REMARK  Name = 
REMARK  2 active torsions:
REMARK  status: ('A' for Active; 'I' for Inactive)
REMARK    1  A    between atoms: C_2  and  C_3
REMARK    2  A    between atoms: C_8  and  C_9
REMARK                            x       y       z     vdW  Elec       q    Type
REMARK                         _______ _______ _______ _____ _____    ______ ____
ROOT
ATOM      1  O   UNL     1       9.941   0.933  21.569  0.00  0.00    +0.000 OA
ATOM      2  C   UNL     1       8.913   0.260  21.446  0.00  0.00    +0.000 C 
ATOM      3  N   UNL     1       8.828  -1.044  21.933  0.00  0.00    +0.000 N 
ATOM      4  C   UNL     1       7.595  -1.818  22.059  0.00  0.00    +0.000 C 
ATOM      5  C   UNL     1       7.203  -1.966  23.532  0.00  0.00    +0.000 C 
ATOM      6  C   UNL     1       8.349  -2.448  24.452  0.00  0.00    +0.000 C 
ATOM      7  C   UNL     1       9.659  -1.690  24.138  0.00  0.00    +0.000 C 
ATOM      8  C   UNL     1       9.971  -1.598  22.650  0.00  0.00    +0.000 C 
ENDROOT
BRANCH   6   9
ATOM      9  C   UNL     1       8.560  -3.983  24.554  0.00  0.00    +0.000 C 
ATOM     10  N   UNL     1       7.766  -4.773  23.608  0.00  0.00    +0.000 N 
ATOM     11  C   UNL     1       6.669  -5.362  24.256  0.00  0.00    +0.000 A 
ATOM     12  C   UNL     1       5.621  -5.988  23.594  0.00  0.00    +0.000 A 
ATOM     13  C   UNL     1       4.602  -6.590  24.341  0.00  0.00    +0.000 A 
ATOM     14  C   UNL     1       4.655  -6.599  25.741  0.00  0.00    +0.000 A 
ATOM     15  C   UNL     1       5.727  -6.009  26.409  0.00  0.00    +0.000 A 
ATOM     16  C   UNL     1       6.721  -5.406  25.652  0.00  0.00    +0.000 A 
ATOM     17  S   UNL     1       8.151  -4.569  26.249  0.00  0.00    +0.000 S 
ATOM     18  H   UNL     1       7.611  -4.423  22.676  0.00  0.00    +0.000 HD
ENDBRANCH   6   9
BRANCH   2  19
ATOM     19  C   UNL     1       7.724   0.845  20.708  0.00  0.00    +0.000 C 
ATOM     20 CL   UNL     1       7.646   0.178  19.068  0.00  0.00    +0.000 Cl
ENDBRANCH   2  19
TORSDOF 2
ENDMDL
MODEL 3
REMARK VINA RESULT:      -6.4      4.448      6.588
REMARK  Name = 
REMARK  2 active torsions:
REMARK  status: ('A' for Active; 'I' for Inactive)
REMARK    1  A    between atoms: C_2  and  C_3
REMARK    2  A    between atoms: C_8  and  C_9
REMARK                            x       y       z     vdW  Elec       q    Type
REMARK                         _______ _______ _______ _____ _____    ______ ____
ROOT
ATOM      1  O   UNL     1       5.765  -6.440  26.105  0.00  0.00    +0.000 OA
ATOM      2  C   UNL     1       6.392  -5.533  26.661  0.00  0.00    +0.000 C 
ATOM      3  N   UNL     1       7.424  -4.852  26.016  0.00  0.00    +0.000 N 
ATOM      4  C   UNL     1       8.045  -3.617  26.491  0.00  0.00    +0.000 C 
ATOM      5  C   UNL     1       7.628  -2.435  25.612  0.00  0.00    +0.000 C 
ATOM      6  C   UNL     1       7.789  -2.680  24.093  0.00  0.00    +0.000 C 
ATOM      7  C   UNL     1       7.254  -4.077  23.705  0.00  0.00    +0.000 C 
ATOM      8  C   UNL     1       7.726  -5.191  24.630  0.00  0.00    +0.000 C 
ENDROOT
BRANCH   6   9
ATOM      9  C   UNL     1       9.188  -2.388  23.487  0.00  0.00    +0.000 C 
ATOM     10  N   UNL     1      10.046  -1.534  24.312  0.00  0.00    +0.000 N 
ATOM     11  C   UNL     1      10.080  -0.227  23.801  0.00  0.00    +0.000 A 
ATOM     12  C   UNL     1      10.627   0.857  24.474  0.00  0.00    +0.000 A 
ATOM     13  C   UNL     1      10.658   2.108  23.848  0.00  0.00    +0.000 A 
ATOM     14  C   UNL     1      10.178   2.262  22.541  0.00  0.00    +0.000 A 
ATOM     15  C   UNL     1       9.667   1.167  21.845  0.00  0.00    +0.000 A 
ATOM     16  C   UNL     1       9.634  -0.062  22.486  0.00  0.00    +0.000 A 
ATOM     17  S   UNL     1       9.013  -1.579  21.844  0.00  0.00    +0.000 S 
ATOM     18  H   UNL     1      10.026  -1.630  25.315  0.00  0.00    +0.000 HD
ENDBRANCH   6   9
BRANCH   2  19
ATOM     19  C   UNL     1       6.068  -5.178  28.100  0.00  0.00    +0.000 C 
ATOM     20 CL   UNL     1       6.393  -6.567  29.151  0.00  0.00    +0.000 Cl
ENDBRANCH   2  19
TORSDOF 2
ENDMDL
MODEL 4
REMARK VINA RESULT:      -6.4      4.093      5.575
REMARK  Name = 
REMARK  2 active torsions:
REMARK  status: ('A' for Active; 'I' for Inactive)
REMARK    1  A    between atoms: C_2  and  C_3
REMARK    2  A    between atoms: C_8  and  C_9
REMARK                            x       y       z     vdW  Elec       q    Type
REMARK                         _______ _______ _______ _____ _____    ______ ____
ROOT
ATOM      1  O   UNL     1       3.655  -5.443  22.707  0.00  0.00    +0.000 OA
ATOM      2  C   UNL     1       4.440  -5.058  23.580  0.00  0.00    +0.000 C 
ATOM      3  N   UNL     1       5.672  -4.490  23.258  0.00  0.00    +0.000 N 
ATOM      4  C   UNL     1       6.545  -3.785  24.194  0.00  0.00    +0.000 C 
ATOM      5  C   UNL     1       6.541  -2.282  23.904  0.00  0.00    +0.000 C 
ATOM      6  C   UNL     1       6.780  -1.918  22.419  0.00  0.00    +0.000 C 
ATOM      7  C   UNL     1       5.940  -2.824  21.491  0.00  0.00    +0.000 C 
ATOM      8  C   UNL     1       6.010  -4.302  21.852  0.00  0.00    +0.000 C 
ENDROOT
BRANCH   6   9
ATOM      9  C   UNL     1       8.261  -1.807  21.962  0.00  0.00    +0.000 C 
ATOM     10  N   UNL     1       9.230  -1.679  23.053  0.00  0.00    +0.000 N 
ATOM     11  C   UNL     1       9.667  -0.351  23.173  0.00  0.00    +0.000 A 
ATOM     12  C   UNL     1      10.416   0.127  24.240  0.00  0.00    +0.000 A 
ATOM     13  C   UNL     1      10.845   1.459  24.233  0.00  0.00    +0.000 A 
ATOM     14  C   UNL     1      10.559   2.294  23.145  0.00  0.00    +0.000 A 
ATOM     15  C   UNL     1       9.843   1.806  22.052  0.00  0.00    +0.000 A 
ATOM     16  C   UNL     1       9.415   0.488  22.083  0.00  0.00    +0.000 A 
ATOM     17  S   UNL     1       8.475  -0.354  20.854  0.00  0.00    +0.000 S 
ATOM     18  H   UNL     1       9.084  -2.190  23.909  0.00  0.00    +0.000 HD
ENDBRANCH   6   9
BRANCH   2  19
ATOM     19  C   UNL     1       4.080  -5.248  25.041  0.00  0.00    +0.000 C 
ATOM     20 CL   UNL     1       4.897  -6.684  25.681  0.00  0.00    +0.000 Cl
ENDBRANCH   2  19
TORSDOF 2
ENDMDL
MODEL 5
REMARK VINA RESULT:      -6.1      3.119      5.054
REMARK  Name = 
REMARK  2 active torsions:
REMARK  status: ('A' for Active; 'I' for Inactive)
REMARK    1  A    between atoms: C_2  and  C_3
REMARK    2  A    between atoms: C_8  and  C_9
REMARK                            x       y       z     vdW  Elec       q    Type
REMARK                         _______ _______ _______ _____ _____    ______ ____
ROOT
ATOM      1  O   UNL     1      10.074  -3.361  24.171  0.00  0.00    +0.000 OA
ATOM      2  C   UNL     1       8.926  -2.913  24.086  0.00  0.00    +0.000 C 
ATOM      3  N   UNL     1       8.669  -1.658  23.535  0.00  0.00    +0.000 N 
ATOM      4  C   UNL     1       7.348  -1.155  23.165  0.00  0.00    +0.000 C 
ATOM      5  C   UNL     1       7.200  -1.103  21.642  0.00  0.00    +0.000 C 
ATOM      6  C   UNL     1       8.371  -0.403  20.911  0.00  0.00    +0.000 C 
ATOM      7  C   UNL     1       9.729  -0.873  21.478  0.00  0.00    +0.000 C 
ATOM      8  C   UNL     1       9.785  -0.887  23.000  0.00  0.00    +0.000 C 
ENDROOT
BRANCH   6   9
ATOM      9  C   UNL     1       8.283   1.142  20.779  0.00  0.00    +0.000 C 
ATOM     10  N   UNL     1       9.281   1.879  21.558  0.00  0.00    +0.000 N 
ATOM     11  C   UNL     1       8.702   2.424  22.715  0.00  0.00    +0.000 A 
ATOM     12  C   UNL     1       9.428   2.990  23.754  0.00  0.00    +0.000 A 
ATOM     13  C   UNL     1       8.746   3.553  24.838  0.00  0.00    +0.000 A 
ATOM     14  C   UNL     1       7.345   3.583  24.861  0.00  0.00    +0.000 A 
ATOM     15  C   UNL     1       6.612   3.054  23.799  0.00  0.00    +0.000 A 
ATOM     16  C   UNL     1       7.306   2.489  22.740  0.00  0.00    +0.000 A 
ATOM     17  S   UNL     1       6.621   1.730  21.305  0.00  0.00    +0.000 S 
ATOM     18  H   UNL     1      10.214   1.510  21.646  0.00  0.00    +0.000 HD
ENDBRANCH   6   9
BRANCH   2  19
ATOM     19  C   UNL     1       7.768  -3.724  24.635  0.00  0.00    +0.000 C 
ATOM     20 CL   UNL     1       7.227  -4.899  23.424  0.00  0.00    +0.000 Cl
ENDBRANCH   2  19
TORSDOF 2
ENDMDL
MODEL 6
REMARK VINA RESULT:      -6.1      2.004      3.680
REMARK  Name = 
REMARK  2 active torsions:
REMARK  status: ('A' for Active; 'I' for Inactive)
REMARK    1  A    between atoms: C_2  and  C_3
REMARK    2  A    between atoms: C_8  and  C_9
REMARK                            x       y       z     vdW  Elec       q    Type
REMARK                         _______ _______ _______ _____ _____    ______ ____
ROOT
ATOM      1  O   UNL     1       5.796  -1.716  20.030  0.00  0.00    +0.000 OA
ATOM      2  C   UNL     1       6.524  -0.719  20.064  0.00  0.00    +0.000 C 
ATOM      3  N   UNL     1       7.197  -0.343  21.226  0.00  0.00    +0.000 N 
ATOM      4  C   UNL     1       8.261   0.657  21.298  0.00  0.00    +0.000 C 
ATOM      5  C   UNL     1       9.614  -0.016  21.541  0.00  0.00    +0.000 C 
ATOM      6  C   UNL     1       9.621  -1.032  22.709  0.00  0.00    +0.000 C 
ATOM      7  C   UNL     1       8.375  -1.943  22.649  0.00  0.00    +0.000 C 
ATOM      8  C   UNL     1       7.075  -1.187  22.409  0.00  0.00    +0.000 C 
ENDROOT
BRANCH   6   9
ATOM      9  C   UNL     1       9.869  -0.455  24.129  0.00  0.00    +0.000 C 
ATOM     10  N   UNL     1       8.659  -0.275  24.936  0.00  0.00    +0.000 N 
ATOM     11  C   UNL     1       8.287   1.078  24.972  0.00  0.00    +0.000 A 
ATOM     12  C   UNL     1       7.076   1.537  25.472  0.00  0.00    +0.000 A 
ATOM     13  C   UNL     1       6.829   2.914  25.510  0.00  0.00    +0.000 A 
ATOM     14  C   UNL     1       7.805   3.825  25.087  0.00  0.00    +0.000 A 
ATOM     15  C   UNL     1       9.040   3.370  24.625  0.00  0.00    +0.000 A 
ATOM     16  C   UNL     1       9.261   2.002  24.582  0.00  0.00    +0.000 A 
ATOM     17  S   UNL     1      10.710   1.177  24.014  0.00  0.00    +0.000 S 
ATOM     18  H   UNL     1       7.915  -0.951  24.873  0.00  0.00    +0.000 HD
ENDBRANCH   6   9
BRANCH   2  19
ATOM     19  C   UNL     1       6.655   0.150  18.828  0.00  0.00    +0.000 C 
ATOM     20 CL   UNL     1       5.323   1.318  18.769  0.00  0.00    +0.000 Cl
ENDBRANCH   2  19
TORSDOF 2
ENDMDL
MODEL 7
REMARK VINA RESULT:      -6.0      3.326      4.973
REMARK  Name = 
REMARK  2 active torsions:
REMARK  status: ('A' for Active; 'I' for Inactive)
REMARK    1  A    between atoms: C_2  and  C_3
REMARK    2  A    between atoms: C_8  and  C_9
REMARK                            x       y       z     vdW  Elec       q    Type
REMARK                         _______ _______ _______ _____ _____    ______ ____
ROOT
ATOM      1  O   UNL     1       9.693   4.645  24.247  0.00  0.00    +0.000 OA
ATOM      2  C   UNL     1       8.731   3.871  24.237  0.00  0.00    +0.000 C 
ATOM      3  N   UNL     1       8.783   2.646  23.571  0.00  0.00    +0.000 N 
ATOM      4  C   UNL     1       7.804   1.570  23.711  0.00  0.00    +0.000 C 
ATOM      5  C   UNL     1       8.402   0.399  24.496  0.00  0.00    +0.000 C 
ATOM      6  C   UNL     1       9.788  -0.067  23.989  0.00  0.00    +0.000 C 
ATOM      7  C   UNL     1      10.706   1.145  23.711  0.00  0.00    +0.000 C 
ATOM      8  C   UNL     1      10.028   2.256  22.920  0.00  0.00    +0.000 C 
ENDROOT
BRANCH   6   9
ATOM      9  C   UNL     1       9.793  -1.096  22.826  0.00  0.00    +0.000 C 
ATOM     10  N   UNL     1       9.770  -0.504  21.486  0.00  0.00    +0.000 N 
ATOM     11  C   UNL     1       8.486  -0.596  20.927  0.00  0.00    +0.000 A 
ATOM     12  C   UNL     1       8.095   0.058  19.767  0.00  0.00    +0.000 A 
ATOM     13  C   UNL     1       6.804  -0.146  19.267  0.00  0.00    +0.000 A 
ATOM     14  C   UNL     1       5.925  -1.032  19.904  0.00  0.00    +0.000 A 
ATOM     15  C   UNL     1       6.329  -1.725  21.045  0.00  0.00    +0.000 A 
ATOM     16  C   UNL     1       7.607  -1.499  21.533  0.00  0.00    +0.000 A 
ATOM     17  S   UNL     1       8.340  -2.217  22.965  0.00  0.00    +0.000 S 
ATOM     18  H   UNL     1      10.284   0.344  21.308  0.00  0.00    +0.000 HD
ENDBRANCH   6   9
BRANCH   2  19
ATOM     19  C   UNL     1       7.441   4.277  24.924  0.00  0.00    +0.000 C 
ATOM     20 CL   UNL     1       7.495   3.808  26.632  0.00  0.00    +0.000 Cl
ENDBRANCH   2  19
TORSDOF 2
ENDMDL
MODEL 8
REMARK VINA RESULT:      -5.9      4.101      6.505
REMARK  Name = 
REMARK  2 active torsions:
REMARK  status: ('A' for Active; 'I' for Inactive)
REMARK    1  A    between atoms: C_2  and  C_3
REMARK    2  A    between atoms: C_8  and  C_9
REMARK                            x       y       z     vdW  Elec       q    Type
REMARK                         _______ _______ _______ _____ _____    ______ ____
ROOT
ATOM      1  O   UNL     1       7.492  -6.156  27.786  0.00  0.00    +0.000 OA
ATOM      2  C   UNL     1       6.778  -5.286  27.276  0.00  0.00    +0.000 C 
ATOM      3  N   UNL     1       7.321  -4.137  26.703  0.00  0.00    +0.000 N 
ATOM      4  C   UNL     1       6.591  -3.188  25.865  0.00  0.00    +0.000 C 
ATOM      5  C   UNL     1       7.037  -3.306  24.405  0.00  0.00    +0.000 C 
ATOM      6  C   UNL     1       8.571  -3.280  24.203  0.00  0.00    +0.000 C 
ATOM      7  C   UNL     1       9.276  -4.186  25.237  0.00  0.00    +0.000 C 
ATOM      8  C   UNL     1       8.772  -3.994  26.661  0.00  0.00    +0.000 C 
ENDROOT
BRANCH   6   9
ATOM      9  C   UNL     1       9.232  -1.879  24.089  0.00  0.00    +0.000 C 
ATOM     10  N   UNL     1       8.313  -0.753  24.273  0.00  0.00    +0.000 N 
ATOM     11  C   UNL     1       7.990  -0.172  23.036  0.00  0.00    +0.000 A 
ATOM     12  C   UNL     1       6.985   0.769  22.859  0.00  0.00    +0.000 A 
ATOM     13  C   UNL     1       6.782   1.324  21.591  0.00  0.00    +0.000 A 
ATOM     14  C   UNL     1       7.607   0.966  20.516  0.00  0.00    +0.000 A 
ATOM     15  C   UNL     1       8.645   0.053  20.699  0.00  0.00    +0.000 A 
ATOM     16  C   UNL     1       8.823  -0.495  21.961  0.00  0.00    +0.000 A 
ATOM     17  S   UNL     1      10.029  -1.685  22.442  0.00  0.00    +0.000 S 
ATOM     18  H   UNL     1       7.572  -0.822  24.951  0.00  0.00    +0.000 HD
ENDBRANCH   6   9
BRANCH   2  19
ATOM     19  C   UNL     1       5.270  -5.444  27.313  0.00  0.00    +0.000 C 
ATOM     20 CL   UNL     1       4.732  -6.411  25.929  0.00  0.00    +0.000 Cl
ENDBRANCH   2  19
TORSDOF 2
ENDMDL
MODEL 9
REMARK VINA RESULT:      -5.7      1.748      2.674
REMARK  Name = 
REMARK  2 active torsions:
REMARK  status: ('A' for Active; 'I' for Inactive)
REMARK    1  A    between atoms: C_2  and  C_3
REMARK    2  A    between atoms: C_8  and  C_9
REMARK                            x       y       z     vdW  Elec       q    Type
REMARK                         _______ _______ _______ _____ _____    ______ ____
ROOT
ATOM      1  O   UNL     1       5.651  -1.247  19.519  0.00  0.00    +0.000 OA
ATOM      2  C   UNL     1       6.644  -0.570  19.805  0.00  0.00    +0.000 C 
ATOM      3  N   UNL     1       7.201  -0.591  21.083  0.00  0.00    +0.000 N 
ATOM      4  C   UNL     1       8.502  -0.032  21.445  0.00  0.00    +0.000 C 
ATOM      5  C   UNL     1       9.509  -1.151  21.724  0.00  0.00    +0.000 C 
ATOM      6  C   UNL     1       8.997  -2.242  22.695  0.00  0.00    +0.000 C 
ATOM      7  C   UNL     1       7.552  -2.658  22.339  0.00  0.00    +0.000 C 
ATOM      8  C   UNL     1       6.622  -1.480  22.084  0.00  0.00    +0.000 C 
ENDROOT
BRANCH   6   9
ATOM      9  C   UNL     1       9.179  -1.962  24.212  0.00  0.00    +0.000 C 
ATOM     10  N   UNL     1       9.622  -3.116  24.998  0.00  0.00    +0.000 N 
ATOM     11  C   UNL     1       8.549  -3.666  25.716  0.00  0.00    +0.000 A 
ATOM     12  C   UNL     1       8.601  -4.885  26.379  0.00  0.00    +0.000 A 
ATOM     13  C   UNL     1       7.488  -5.314  27.111  0.00  0.00    +0.000 A 
ATOM     14  C   UNL     1       6.346  -4.508  27.210  0.00  0.00    +0.000 A 
ATOM     15  C   UNL     1       6.306  -3.265  26.581  0.00  0.00    +0.000 A 
ATOM     16  C   UNL     1       7.413  -2.862  25.850  0.00  0.00    +0.000 A 
ATOM     17  S   UNL     1       7.600  -1.364  24.942  0.00  0.00    +0.000 S 
ATOM     18  H   UNL     1      10.283  -3.764  24.600  0.00  0.00    +0.000 HD
ENDBRANCH   6   9
BRANCH   2  19
ATOM     19  C   UNL     1       7.249   0.345  18.757  0.00  0.00    +0.000 C 
ATOM     20 CL   UNL     1       5.960   1.151  17.846  0.00  0.00    +0.000 Cl
ENDBRANCH   2  19
TORSDOF 2
ENDMDL
