MODEL 1
REMARK VINA RESULT:      -6.1      0.000      0.000
REMARK  Name = 
REMARK  3 active torsions:
REMARK  status: ('A' for Active; 'I' for Inactive)
REMARK    1  A    between atoms: C_2  and  C_3
REMARK    2  A    between atoms: N_8  and  C_9
REMARK    3  A    between atoms: C_9  and  C_10
REMARK                            x       y       z     vdW  Elec       q    Type
REMARK                         _______ _______ _______ _____ _____    ______ ____
ROOT
ATOM      1  O   UNL     1       8.944  -5.482  23.973  0.00  0.00    +0.000 OA
ATOM      2  C   UNL     1       7.903  -4.920  24.374  0.00  0.00    +0.000 C 
ATOM      3  N   UNL     1       6.672  -5.245  23.799  0.00  0.00    +0.000 N 
ATOM      4  C   UNL     1       5.340  -4.777  24.219  0.00  0.00    +0.000 C 
ATOM      5  C   UNL     1       4.583  -4.037  23.068  0.00  0.00    +0.000 C 
ATOM      6  N   UNL     1       5.447  -3.586  21.932  0.00  0.00    +0.000 NA
ATOM      7  C   UNL     1       6.133  -4.793  21.406  0.00  0.00    +0.000 C 
ATOM      8  C   UNL     1       6.676  -5.816  22.451  0.00  0.00    +0.000 C 
ENDROOT
BRANCH   2   9
ATOM      9  C   UNL     1       8.014  -3.770  25.354  0.00  0.00    +0.000 C 
ATOM     10 CL   UNL     1       9.073  -4.188  26.703  0.00  0.00    +0.000 Cl
ENDBRANCH   2   9
BRANCH   6  11
ATOM     11  C   UNL     1       6.342  -2.562  22.485  0.00  0.00    +0.000 C 
BRANCH  11  12
ATOM     12  C   UNL     1       7.459  -1.878  21.722  0.00  0.00    +0.000 A 
ATOM     13  C   UNL     1       8.773  -2.027  22.188  0.00  0.00    +0.000 A 
ATOM     14  C   UNL     1       9.629  -0.922  22.185  0.00  0.00    +0.000 A 
ATOM     15  C   UNL     1       9.186   0.291  21.658  0.00  0.00    +0.000 A 
ATOM     16 CL   UNL     1      10.110   1.721  21.914  0.00  0.00    +0.000 Cl
ATOM     17  C   UNL     1       7.955   0.374  21.009  0.00  0.00    +0.000 A 
ATOM     18  C   UNL     1       7.104  -0.727  21.000  0.00  0.00    +0.000 A 
ENDBRANCH  11  12
ENDBRANCH   6  11
TORSDOF 3
ENDMDL
MODEL 2
REMARK VINA RESULT:      -6.0      1.728      2.406
REMARK  Name = 
REMARK  3 active torsions:
REMARK  status: ('A' for Active; 'I' for Inactive)
REMARK    1  A    between atoms: C_2  and  C_3
REMARK    2  A    between atoms: N_8  and  C_9
REMARK    3  A    between atoms: C_9  and  C_10
REMARK                            x       y       z     vdW  Elec       q    Type
REMARK                         _______ _______ _______ _____ _____    ______ ____
ROOT
ATOM      1  O   UNL     1       8.235  -5.720  23.421  0.00  0.00    +0.000 OA
ATOM      2  C   UNL     1       8.203  -4.653  24.073  0.00  0.00    +0.000 C 
ATOM      3  N   UNL     1       7.120  -3.782  23.928  0.00  0.00    +0.000 N 
ATOM      4  C   UNL     1       6.856  -2.552  24.693  0.00  0.00    +0.000 C 
ATOM      5  C   UNL     1       6.741  -1.295  23.770  0.00  0.00    +0.000 C 
ATOM      6  N   UNL     1       7.299  -1.470  22.392  0.00  0.00    +0.000 NA
ATOM      7  C   UNL     1       6.591  -2.624  21.783  0.00  0.00    +0.000 C 
ATOM      8  C   UNL     1       6.337  -3.865  22.694  0.00  0.00    +0.000 C 
ENDROOT
BRANCH   2   9
ATOM      9  C   UNL     1       9.420  -4.240  24.875  0.00  0.00    +0.000 C 
ATOM     10 CL   UNL     1       9.219  -4.642  26.582  0.00  0.00    +0.000 Cl
ENDBRANCH   2   9
BRANCH   6  11
ATOM     11  C   UNL     1       8.746  -1.656  22.561  0.00  0.00    +0.000 C 
BRANCH  11  12
ATOM     12  C   UNL     1       9.770  -0.539  22.584  0.00  0.00    +0.000 A 
ATOM     13  C   UNL     1      10.389  -0.226  23.803  0.00  0.00    +0.000 A 
ATOM     14  C   UNL     1      10.593   1.115  24.141  0.00  0.00    +0.000 A 
ATOM     15  C   UNL     1      10.241   2.115  23.236  0.00  0.00    +0.000 A 
ATOM     16 CL   UNL     1      10.210   3.758  23.749  0.00  0.00    +0.000 Cl
ATOM     17  C   UNL     1       9.822   1.789  21.947  0.00  0.00    +0.000 A 
ATOM     18  C   UNL     1       9.627   0.455  21.601  0.00  0.00    +0.000 A 
ENDBRANCH  11  12
ENDBRANCH   6  11
TORSDOF 3
ENDMDL
MODEL 3
REMARK VINA RESULT:      -5.8      2.491      3.575
REMARK  Name = 
REMARK  3 active torsions:
REMARK  status: ('A' for Active; 'I' for Inactive)
REMARK    1  A    between atoms: C_2  and  C_3
REMARK    2  A    between atoms: N_8  and  C_9
REMARK    3  A    between atoms: C_9  and  C_10
REMARK                            x       y       z     vdW  Elec       q    Type
REMARK                         _______ _______ _______ _____ _____    ______ ____
ROOT
ATOM      1  O   UNL     1       5.398  -5.220  23.423  0.00  0.00    +0.000 OA
ATOM      2  C   UNL     1       6.637  -5.382  23.398  0.00  0.00    +0.000 C 
ATOM      3  N   UNL     1       7.387  -5.189  24.562  0.00  0.00    +0.000 N 
ATOM      4  C   UNL     1       8.825  -5.446  24.749  0.00  0.00    +0.000 C 
ATOM      5  C   UNL     1       9.600  -4.165  25.201  0.00  0.00    +0.000 C 
ATOM      6  N   UNL     1       8.874  -2.876  24.976  0.00  0.00    +0.000 NA
ATOM      7  C   UNL     1       7.580  -2.977  25.697  0.00  0.00    +0.000 C 
ATOM      8  C   UNL     1       6.819  -4.335  25.607  0.00  0.00    +0.000 C 
ENDROOT
BRANCH   2   9
ATOM      9  C   UNL     1       7.327  -5.612  22.069  0.00  0.00    +0.000 C 
ATOM     10 CL   UNL     1       6.163  -5.603  20.742  0.00  0.00    +0.000 Cl
ENDBRANCH   2   9
BRANCH   6  11
ATOM     11  C   UNL     1       8.757  -2.725  23.520  0.00  0.00    +0.000 C 
BRANCH  11  12
ATOM     12  C   UNL     1       8.108  -1.550  22.816  0.00  0.00    +0.000 A 
ATOM     13  C   UNL     1       6.888  -1.757  22.157  0.00  0.00    +0.000 A 
ATOM     14  C   UNL     1       6.675  -1.164  20.910  0.00  0.00    +0.000 A 
ATOM     15  C   UNL     1       7.648  -0.323  20.372  0.00  0.00    +0.000 A 
ATOM     16 CL   UNL     1       7.533   0.172  18.727  0.00  0.00    +0.000 Cl
ATOM     17  C   UNL     1       8.763   0.042  21.124  0.00  0.00    +0.000 A 
ATOM     18  C   UNL     1       8.975  -0.537  22.371  0.00  0.00    +0.000 A 
ENDBRANCH  11  12
ENDBRANCH   6  11
TORSDOF 3
ENDMDL
MODEL 4
REMARK VINA RESULT:      -5.8      2.441      3.694
REMARK  Name = 
REMARK  3 active torsions:
REMARK  status: ('A' for Active; 'I' for Inactive)
REMARK    1  A    between atoms: C_2  and  C_3
REMARK    2  A    between atoms: N_8  and  C_9
REMARK    3  A    between atoms: C_9  and  C_10
REMARK                            x       y       z     vdW  Elec       q    Type
REMARK                         _______ _______ _______ _____ _____    ______ ____
ROOT
ATOM      1  O   UNL     1       5.188  -4.695  23.585  0.00  0.00    +0.000 OA
ATOM      2  C   UNL     1       6.436  -4.705  23.510  0.00  0.00    +0.000 C 
ATOM      3  N   UNL     1       7.193  -5.192  24.578  0.00  0.00    +0.000 N 
ATOM      4  C   UNL     1       8.652  -5.389  24.621  0.00  0.00    +0.000 C 
ATOM      5  C   UNL     1       9.324  -4.582  25.780  0.00  0.00    +0.000 C 
ATOM      6  N   UNL     1       8.484  -3.485  26.354  0.00  0.00    +0.000 NA
ATOM      7  C   UNL     1       7.221  -4.108  26.824  0.00  0.00    +0.000 C 
ATOM      8  C   UNL     1       6.579  -5.194  25.907  0.00  0.00    +0.000 C 
ENDROOT
BRANCH   2   9
ATOM      9  C   UNL     1       7.111  -4.027  22.335  0.00  0.00    +0.000 C 
ATOM     10 CL   UNL     1       6.352  -2.473  21.979  0.00  0.00    +0.000 Cl
ENDBRANCH   2   9
BRANCH   6  11
ATOM     11  C   UNL     1       8.319  -2.496  25.281  0.00  0.00    +0.000 C 
BRANCH  11  12
ATOM     12  C   UNL     1       9.426  -1.625  24.721  0.00  0.00    +0.000 A 
ATOM     13  C   UNL     1       9.584  -0.332  25.239  0.00  0.00    +0.000 A 
ATOM     14  C   UNL     1       9.861   0.725  24.366  0.00  0.00    +0.000 A 
ATOM     15  C   UNL     1      10.041   0.467  23.008  0.00  0.00    +0.000 A 
ATOM     16 CL   UNL     1      10.087   1.775  21.890  0.00  0.00    +0.000 Cl
ATOM     17  C   UNL     1      10.090  -0.844  22.536  0.00  0.00    +0.000 A 
ATOM     18  C   UNL     1       9.826  -1.900  23.402  0.00  0.00    +0.000 A 
ENDBRANCH  11  12
ENDBRANCH   6  11
TORSDOF 3
ENDMDL
MODEL 5
REMARK VINA RESULT:      -5.8      2.981      4.328
REMARK  Name = 
REMARK  3 active torsions:
REMARK  status: ('A' for Active; 'I' for Inactive)
REMARK    1  A    between atoms: C_2  and  C_3
REMARK    2  A    between atoms: N_8  and  C_9
REMARK    3  A    between atoms: C_9  and  C_10
REMARK                            x       y       z     vdW  Elec       q    Type
REMARK                         _______ _______ _______ _____ _____    ______ ____
ROOT
ATOM      1  O   UNL     1       6.682  -3.572  25.071  0.00  0.00    +0.000 OA
ATOM      2  C   UNL     1       7.569  -3.318  24.228  0.00  0.00    +0.000 C 
ATOM      3  N   UNL     1       8.718  -2.625  24.617  0.00  0.00    +0.000 N 
ATOM      4  C   UNL     1       9.910  -2.344  23.798  0.00  0.00    +0.000 C 
ATOM      5  C   UNL     1      10.201  -0.811  23.684  0.00  0.00    +0.000 C 
ATOM      6  N   UNL     1       9.055   0.078  24.053  0.00  0.00    +0.000 NA
ATOM      7  C   UNL     1       8.666  -0.272  25.442  0.00  0.00    +0.000 C 
ATOM      8  C   UNL     1       8.639  -1.787  25.814  0.00  0.00    +0.000 C 
ENDROOT
BRANCH   2   9
ATOM      9  C   UNL     1       7.306  -3.612  22.765  0.00  0.00    +0.000 C 
ATOM     10 CL   UNL     1       7.359  -5.348  22.449  0.00  0.00    +0.000 Cl
ENDBRANCH   2   9
BRANCH   6  11
ATOM     11  C   UNL     1       8.015  -0.162  23.045  0.00  0.00    +0.000 C 
BRANCH  11  12
ATOM     12  C   UNL     1       7.905   0.562  21.717  0.00  0.00    +0.000 A 
ATOM     13  C   UNL     1       6.836   1.449  21.527  0.00  0.00    +0.000 A 
ATOM     14  C   UNL     1       6.169   1.464  20.299  0.00  0.00    +0.000 A 
ATOM     15  C   UNL     1       6.618   0.647  19.262  0.00  0.00    +0.000 A 
ATOM     16 CL   UNL     1       5.643   0.435  17.859  0.00  0.00    +0.000 Cl
ATOM     17  C   UNL     1       7.804  -0.074  19.391  0.00  0.00    +0.000 A 
ATOM     18  C   UNL     1       8.478  -0.084  20.608  0.00  0.00    +0.000 A 
ENDBRANCH  11  12
ENDBRANCH   6  11
TORSDOF 3
ENDMDL
MODEL 6
REMARK VINA RESULT:      -5.7      2.529      3.589
REMARK  Name = 
REMARK  3 active torsions:
REMARK  status: ('A' for Active; 'I' for Inactive)
REMARK    1  A    between atoms: C_2  and  C_3
REMARK    2  A    between atoms: N_8  and  C_9
REMARK    3  A    between atoms: C_9  and  C_10
REMARK                            x       y       z     vdW  Elec       q    Type
REMARK                         _______ _______ _______ _____ _____    ______ ____
ROOT
ATOM      1  O   UNL     1       5.193  -3.179  23.014  0.00  0.00    +0.000 OA
ATOM      2  C   UNL     1       6.308  -3.741  22.950  0.00  0.00    +0.000 C 
ATOM      3  N   UNL     1       7.193  -3.655  24.028  0.00  0.00    +0.000 N 
ATOM      4  C   UNL     1       8.486  -4.345  24.177  0.00  0.00    +0.000 C 
ATOM      5  C   UNL     1       9.669  -3.343  24.382  0.00  0.00    +0.000 C 
ATOM      6  N   UNL     1       9.372  -1.928  23.996  0.00  0.00    +0.000 NA
ATOM      7  C   UNL     1       8.193  -1.502  24.791  0.00  0.00    +0.000 C 
ATOM      8  C   UNL     1       7.034  -2.534  24.955  0.00  0.00    +0.000 C 
ENDROOT
BRANCH   2   9
ATOM      9  C   UNL     1       6.751  -4.358  21.638  0.00  0.00    +0.000 C 
ATOM     10 CL   UNL     1       6.077  -5.977  21.441  0.00  0.00    +0.000 Cl
ENDBRANCH   2   9
BRANCH   6  11
ATOM     11  C   UNL     1       9.163  -1.939  22.543  0.00  0.00    +0.000 C 
BRANCH  11  12
ATOM     12  C   UNL     1       8.921  -0.710  21.689  0.00  0.00    +0.000 A 
ATOM     13  C   UNL     1       9.786   0.385  21.835  0.00  0.00    +0.000 A 
ATOM     14  C   UNL     1       9.256   1.678  21.839  0.00  0.00    +0.000 A 
ATOM     15  C   UNL     1       7.890   1.865  21.632  0.00  0.00    +0.000 A 
ATOM     16 CL   UNL     1       7.185   3.407  21.926  0.00  0.00    +0.000 Cl
ATOM     17  C   UNL     1       7.074   0.790  21.281  0.00  0.00    +0.000 A 
ATOM     18  C   UNL     1       7.598  -0.498  21.264  0.00  0.00    +0.000 A 
ENDBRANCH  11  12
ENDBRANCH   6  11
TORSDOF 3
ENDMDL
MODEL 7
REMARK VINA RESULT:      -5.7      4.131      5.663
REMARK  Name = 
REMARK  3 active torsions:
REMARK  status: ('A' for Active; 'I' for Inactive)
REMARK    1  A    between atoms: C_2  and  C_3
REMARK    2  A    between atoms: N_8  and  C_9
REMARK    3  A    between atoms: C_9  and  C_10
REMARK                            x       y       z     vdW  Elec       q    Type
REMARK                         _______ _______ _______ _____ _____    ______ ____
ROOT
ATOM      1  O   UNL     1      10.456   2.312  22.366  0.00  0.00    +0.000 OA
ATOM      2  C   UNL     1       9.518   2.149  23.176  0.00  0.00    +0.000 C 
ATOM      3  N   UNL     1       9.643   1.212  24.205  0.00  0.00    +0.000 N 
ATOM      4  C   UNL     1       8.700   0.972  25.311  0.00  0.00    +0.000 C 
ATOM      5  C   UNL     1       8.191  -0.507  25.342  0.00  0.00    +0.000 C 
ATOM      6  N   UNL     1       8.405  -1.275  24.076  0.00  0.00    +0.000 NA
ATOM      7  C   UNL     1       9.861  -1.237  23.788  0.00  0.00    +0.000 C 
ATOM      8  C   UNL     1      10.598   0.119  24.021  0.00  0.00    +0.000 C 
ENDROOT
BRANCH   2   9
ATOM      9  C   UNL     1       8.195   2.844  22.925  0.00  0.00    +0.000 C 
ATOM     10 CL   UNL     1       8.292   4.558  23.335  0.00  0.00    +0.000 Cl
ENDBRANCH   2   9
BRANCH   6  11
ATOM     11  C   UNL     1       7.561  -0.630  23.062  0.00  0.00    +0.000 C 
BRANCH  11  12
ATOM     12  C   UNL     1       7.548  -0.981  21.588  0.00  0.00    +0.000 A 
ATOM     13  C   UNL     1       8.266  -0.166  20.701  0.00  0.00    +0.000 A 
ATOM     14  C   UNL     1       7.702   0.163  19.465  0.00  0.00    +0.000 A 
ATOM     15  C   UNL     1       6.469  -0.377  19.106  0.00  0.00    +0.000 A 
ATOM     16 CL   UNL     1       5.632   0.243  17.734  0.00  0.00    +0.000 Cl
ATOM     17  C   UNL     1       5.861  -1.348  19.901  0.00  0.00    +0.000 A 
ATOM     18  C   UNL     1       6.424  -1.687  21.127  0.00  0.00    +0.000 A 
ENDBRANCH  11  12
ENDBRANCH   6  11
TORSDOF 3
ENDMDL
MODEL 8
REMARK VINA RESULT:      -5.7      3.658      6.008
REMARK  Name = 
REMARK  3 active torsions:
REMARK  status: ('A' for Active; 'I' for Inactive)
REMARK    1  A    between atoms: C_2  and  C_3
REMARK    2  A    between atoms: N_8  and  C_9
REMARK    3  A    between atoms: C_9  and  C_10
REMARK                            x       y       z     vdW  Elec       q    Type
REMARK                         _______ _______ _______ _____ _____    ______ ____
ROOT
ATOM      1  O   UNL     1      10.012   1.866  21.620  0.00  0.00    +0.000 OA
ATOM      2  C   UNL     1       8.941   1.576  22.196  0.00  0.00    +0.000 C 
ATOM      3  N   UNL     1       8.883   1.567  23.591  0.00  0.00    +0.000 N 
ATOM      4  C   UNL     1       7.691   1.369  24.433  0.00  0.00    +0.000 C 
ATOM      5  C   UNL     1       7.847   0.150  25.402  0.00  0.00    +0.000 C 
ATOM      6  N   UNL     1       8.942  -0.805  25.042  0.00  0.00    +0.000 NA
ATOM      7  C   UNL     1      10.201  -0.021  24.992  0.00  0.00    +0.000 C 
ATOM      8  C   UNL     1      10.136   1.389  24.327  0.00  0.00    +0.000 C 
ENDROOT
BRANCH   2   9
ATOM      9  C   UNL     1       7.773   1.069  21.374  0.00  0.00    +0.000 C 
ATOM     10 CL   UNL     1       8.306  -0.123  20.186  0.00  0.00    +0.000 Cl
ENDBRANCH   2   9
BRANCH   6  11
ATOM     11  C   UNL     1       8.546  -1.414  23.766  0.00  0.00    +0.000 C 
BRANCH  11  12
ATOM     12  C   UNL     1       7.492  -2.492  23.606  0.00  0.00    +0.000 A 
ATOM     13  C   UNL     1       7.853  -3.822  23.869  0.00  0.00    +0.000 A 
ATOM     14  C   UNL     1       7.392  -4.835  23.024  0.00  0.00    +0.000 A 
ATOM     15  C   UNL     1       6.529  -4.519  21.976  0.00  0.00    +0.000 A 
ATOM     16 CL   UNL     1       6.193  -5.693  20.762  0.00  0.00    +0.000 Cl
ATOM     17  C   UNL     1       6.011  -3.230  21.848  0.00  0.00    +0.000 A 
ATOM     18  C   UNL     1       6.459  -2.220  22.693  0.00  0.00    +0.000 A 
ENDBRANCH  11  12
ENDBRANCH   6  11
TORSDOF 3
ENDMDL
MODEL 9
REMARK VINA RESULT:      -5.6      3.327      5.568
REMARK  Name = 
REMARK  3 active torsions:
REMARK  status: ('A' for Active; 'I' for Inactive)
REMARK    1  A    between atoms: C_2  and  C_3
REMARK    2  A    between atoms: N_8  and  C_9
REMARK    3  A    between atoms: C_9  and  C_10
REMARK                            x       y       z     vdW  Elec       q    Type
REMARK                         _______ _______ _______ _____ _____    ______ ____
ROOT
ATOM      1  O   UNL     1       9.755   2.409  24.362  0.00  0.00    +0.000 OA
ATOM      2  C   UNL     1       9.884   1.305  23.790  0.00  0.00    +0.000 C 
ATOM      3  N   UNL     1       9.516   1.170  22.449  0.00  0.00    +0.000 N 
ATOM      4  C   UNL     1       9.705  -0.010  21.587  0.00  0.00    +0.000 C 
ATOM      5  C   UNL     1       8.353  -0.537  21.002  0.00  0.00    +0.000 C 
ATOM      6  N   UNL     1       7.127  -0.045  21.704  0.00  0.00    +0.000 NA
ATOM      7  C   UNL     1       7.167   1.439  21.656  0.00  0.00    +0.000 C 
ATOM      8  C   UNL     1       8.546   2.122  21.907  0.00  0.00    +0.000 C 
ENDROOT
BRANCH   2   9
ATOM      9  C   UNL     1      10.271   0.089  24.608  0.00  0.00    +0.000 C 
ATOM     10 CL   UNL     1       9.159  -0.145  25.959  0.00  0.00    +0.000 Cl
ENDBRANCH   2   9
BRANCH   6  11
ATOM     11  C   UNL     1       7.176  -0.617  23.056  0.00  0.00    +0.000 C 
BRANCH  11  12
ATOM     12  C   UNL     1       6.850  -2.055  23.405  0.00  0.00    +0.000 A 
ATOM     13  C   UNL     1       7.877  -2.871  23.900  0.00  0.00    +0.000 A 
ATOM     14  C   UNL     1       7.976  -4.193  23.456  0.00  0.00    +0.000 A 
ATOM     15  C   UNL     1       7.015  -4.699  22.582  0.00  0.00    +0.000 A 
ATOM     16 CL   UNL     1       7.282  -6.210  21.801  0.00  0.00    +0.000 Cl
ATOM     17  C   UNL     1       5.885  -3.949  22.259  0.00  0.00    +0.000 A 
ATOM     18  C   UNL     1       5.777  -2.636  22.708  0.00  0.00    +0.000 A 
ENDBRANCH  11  12
ENDBRANCH   6  11
TORSDOF 3
ENDMDL
