
 OpenBabel06082022513D

 41 42  0  0  0  0  0  0  0  0999 V2000
    6.8264   10.5070    3.1097 C   0  0  0  0  0  0  0  0  0  0  0  0
    7.5276   10.9283    4.3858 C   0  0  0  0  0  0  0  0  0  0  0  0
    6.5558   11.1470    5.4092 O   0  0  0  0  0  0  0  0  0  0  0  0
    6.6025   10.2647    6.4512 C   0  0  0  0  0  0  0  0  0  0  0  0
    6.6081    8.8743    6.3009 C   0  0  0  0  0  0  0  0  0  0  0  0
    6.4655    8.0487    7.4212 C   0  0  0  0  0  0  0  0  0  0  0  0
    6.3208    8.6322    8.6795 C   0  0  0  0  0  0  0  0  0  0  0  0
    5.9334    7.6455   10.1018 S   0  0  0  0  0  0  0  0  0  0  0  0
    6.0155    6.2511    9.7241 O   0  0  0  0  0  0  0  0  0  0  0  0
    6.7467    8.1501   11.1880 O   0  0  0  0  0  0  0  0  0  0  0  0
    4.2828    7.9478   10.4660 N   0  0  0  0  0  0  0  0  0  0  0  0
    3.5348    9.0805    9.8380 C   0  0  0  0  0  0  0  0  0  0  0  0
    3.5160   10.3595   10.7056 C   0  0  0  0  0  0  0  0  0  0  0  0
    4.5140   10.3145   11.7766 N   0  0  0  0  0  0  0  0  0  0  0  0
    5.3371   11.4155   11.9777 C   0  0  0  0  0  0  0  0  0  0  0  0
    5.0657   12.5046   11.4660 O   0  0  0  0  0  0  0  0  0  0  0  0
    6.6204   11.1910   12.7753 C   0  0  0  0  0  0  0  0  0  0  0  0
    7.9039   12.2883   12.1983 Cl  0  0  0  0  0  0  0  0  0  0  0  0
    4.4366    9.1394   12.6610 C   0  0  0  0  0  0  0  0  0  0  0  0
    3.9627    7.8659   11.9233 C   0  0  0  0  0  0  0  0  0  0  0  0
    6.4454   10.0154    8.8363 C   0  0  0  0  0  0  0  0  0  0  0  0
    6.5318   10.8332    7.7172 C   0  0  0  0  0  0  0  0  0  0  0  0
    7.5507   10.3673    2.3012 H   0  0  0  0  0  0  0  0  0  0  0  0
    6.0973   11.2640    2.8026 H   0  0  0  0  0  0  0  0  0  0  0  0
    6.2724    9.5743    3.2517 H   0  0  0  0  0  0  0  0  0  0  0  0
    8.0251   11.8888    4.2203 H   0  0  0  0  0  0  0  0  0  0  0  0
    8.3036   10.2116    4.6753 H   0  0  0  0  0  0  0  0  0  0  0  0
    6.6723    8.4180    5.3177 H   0  0  0  0  0  0  0  0  0  0  0  0
    6.4340    6.9686    7.3006 H   0  0  0  0  0  0  0  0  0  0  0  0
    2.4994    8.7488    9.6862 H   0  0  0  0  0  0  0  0  0  0  0  0
    3.8827    9.2945    8.8247 H   0  0  0  0  0  0  0  0  0  0  0  0
    2.5346   10.4722   11.1848 H   0  0  0  0  0  0  0  0  0  0  0  0
    3.6552   11.2306   10.0644 H   0  0  0  0  0  0  0  0  0  0  0  0
    7.0132   10.1878   12.6222 H   0  0  0  0  0  0  0  0  0  0  0  0
    6.4474   11.3760   13.8346 H   0  0  0  0  0  0  0  0  0  0  0  0
    3.7209    9.3844   13.4554 H   0  0  0  0  0  0  0  0  0  0  0  0
    5.3892    8.9634   13.1633 H   0  0  0  0  0  0  0  0  0  0  0  0
    4.3815    6.9616   12.3745 H   0  0  0  0  0  0  0  0  0  0  0  0
    2.8721    7.7752   12.0192 H   0  0  0  0  0  0  0  0  0  0  0  0
    6.4103   10.4721    9.8159 H   0  0  0  0  0  0  0  0  0  0  0  0
    6.5263   11.9152    7.8347 H   0  0  0  0  0  0  0  0  0  0  0  0
  1  2  1  0  0  0  0
  1 23  1  0  0  0  0
  1 24  1  0  0  0  0
  1 25  1  0  0  0  0
  2  3  1  0  0  0  0
  2 26  1  0  0  0  0
  2 27  1  0  0  0  0
  3  4  1  0  0  0  0
  4  5  1  0  0  0  0
  4 22  2  0  0  0  0
  5  6  2  0  0  0  0
  5 28  1  0  0  0  0
  6  7  1  0  0  0  0
  6 29  1  0  0  0  0
  7  8  1  0  0  0  0
  7 21  2  0  0  0  0
  8  9  2  0  0  0  0
  8 10  2  0  0  0  0
  8 11  1  0  0  0  0
 11 12  1  0  0  0  0
 11 20  1  0  0  0  0
 12 13  1  0  0  0  0
 12 30  1  0  0  0  0
 12 31  1  0  0  0  0
 13 14  1  0  0  0  0
 13 32  1  0  0  0  0
 13 33  1  0  0  0  0
 14 15  1  0  0  0  0
 14 19  1  0  0  0  0
 15 16  2  0  0  0  0
 15 17  1  0  0  0  0
 17 18  1  0  0  0  0
 17 34  1  0  0  0  0
 17 35  1  0  0  0  0
 19 20  1  0  0  0  0
 19 36  1  0  0  0  0
 19 37  1  0  0  0  0
 20 38  1  0  0  0  0
 20 39  1  0  0  0  0
 21 22  1  0  0  0  0
 21 40  1  0  0  0  0
 22 41  1  0  0  0  0
M  END
>  <name>


>  <Energy>
65.3959

$$$$
