MODEL 1
REMARK VINA RESULT:      -6.2      0.000      0.000
REMARK  Name = 
REMARK  4 active torsions:
REMARK  status: ('A' for Active; 'I' for Inactive)
REMARK    1  A    between atoms: C_2  and  C_3
REMARK    2  A    between atoms: C_2  and  N_5
REMARK    3  A    between atoms: N_8  and  C_9
REMARK    4  A    between atoms: C_9  and  C_10
REMARK                            x       y       z     vdW  Elec       q    Type
REMARK                         _______ _______ _______ _____ _____    ______ ____
ROOT
ATOM      1  N   UNL     1       6.474  -4.774  24.807  0.00  0.00    +0.000 NA
ATOM      2  C   UNL     1       6.585  -5.418  23.513  0.00  0.00    +0.000 C 
ATOM      3  C   UNL     1       6.293  -4.384  22.404  0.00  0.00    +0.000 C 
ATOM      4  N   UNL     1       6.819  -3.075  22.715  0.00  0.00    +0.000 NA
ATOM      5  C   UNL     1       6.138  -2.522  23.878  0.00  0.00    +0.000 C 
ATOM      6  C   UNL     1       5.616  -3.607  24.839  0.00  0.00    +0.000 C 
ENDROOT
BRANCH   1   8
ATOM      7  O   UNL     1       6.573  -6.114  26.616  0.00  0.00    +0.000 OA
ATOM      8  C   UNL     1       7.037  -5.209  25.949  0.00  0.00    +0.000 C 
BRANCH   8   9
ATOM      9  C   UNL     1       8.326  -4.521  26.387  0.00  0.00    +0.000 C 
ATOM     10 CL   UNL     1       9.707  -5.126  25.441  0.00  0.00    +0.000 Cl
ENDBRANCH   8   9
ENDBRANCH   1   8
BRANCH   4  11
ATOM     11  C   UNL     1       8.276  -3.029  22.815  0.00  0.00    +0.000 C 
BRANCH  11  12
ATOM     12  C   UNL     1       8.790  -1.627  22.640  0.00  0.00    +0.000 C 
ATOM     13  C   UNL     1       8.601  -0.966  21.431  0.00  0.00    +0.000 C 
ATOM     14  C   UNL     1       9.069   0.321  21.221  0.00  0.00    +0.000 C 
ATOM     15  C   UNL     1       9.732   0.944  22.263  0.00  0.00    +0.000 C 
ATOM     16  C   UNL     1       9.923   0.298  23.483  0.00  0.00    +0.000 C 
ATOM     17  C   UNL     1       9.462  -0.984  23.678  0.00  0.00    +0.000 C 
ATOM     18  C   UNL     1      10.664   1.229  24.398  0.00  0.00    +0.000 C 
ATOM     19  C   UNL     1      10.860   2.466  23.498  0.00  0.00    +0.000 C 
ATOM     20  O   UNL     1      10.254   2.197  22.232  0.00  0.00    +0.000 OA
ENDBRANCH  11  12
ENDBRANCH   4  11
TORSDOF 4
ENDMDL
MODEL 2
REMARK VINA RESULT:      -6.2      3.180      7.064
REMARK  Name = 
REMARK  4 active torsions:
REMARK  status: ('A' for Active; 'I' for Inactive)
REMARK    1  A    between atoms: C_2  and  C_3
REMARK    2  A    between atoms: C_2  and  N_5
REMARK    3  A    between atoms: N_8  and  C_9
REMARK    4  A    between atoms: C_9  and  C_10
REMARK                            x       y       z     vdW  Elec       q    Type
REMARK                         _______ _______ _______ _____ _____    ______ ____
ROOT
ATOM      1  N   UNL     1       7.831   0.114  20.771  0.00  0.00    +0.000 NA
ATOM      2  C   UNL     1       9.220  -0.148  21.095  0.00  0.00    +0.000 C 
ATOM      3  C   UNL     1       9.347  -0.413  22.611  0.00  0.00    +0.000 C 
ATOM      4  N   UNL     1       8.228  -1.160  23.139  0.00  0.00    +0.000 NA
ATOM      5  C   UNL     1       7.006  -0.374  23.037  0.00  0.00    +0.000 C 
ATOM      6  C   UNL     1       7.034   0.628  21.867  0.00  0.00    +0.000 C 
ENDROOT
BRANCH   1   8
ATOM      7  O   UNL     1       7.921  -0.087  18.529  0.00  0.00    +0.000 OA
ATOM      8  C   UNL     1       7.272  -0.018  19.556  0.00  0.00    +0.000 C 
BRANCH   8   9
ATOM      9  C   UNL     1       5.750  -0.099  19.502  0.00  0.00    +0.000 C 
ATOM     10 CL   UNL     1       5.065   1.432  18.904  0.00  0.00    +0.000 Cl
ENDBRANCH   8   9
ENDBRANCH   1   8
BRANCH   4  11
ATOM     11  C   UNL     1       8.103  -2.508  22.591  0.00  0.00    +0.000 C 
BRANCH  11  12
ATOM     12  C   UNL     1       7.679  -3.489  23.648  0.00  0.00    +0.000 C 
ATOM     13  C   UNL     1       8.577  -3.868  24.641  0.00  0.00    +0.000 C 
ATOM     14  C   UNL     1       8.233  -4.777  25.628  0.00  0.00    +0.000 C 
ATOM     15  C   UNL     1       6.954  -5.301  25.604  0.00  0.00    +0.000 C 
ATOM     16  C   UNL     1       6.040  -4.928  24.621  0.00  0.00    +0.000 C 
ATOM     17  C   UNL     1       6.395  -4.029  23.640  0.00  0.00    +0.000 C 
ATOM     18  C   UNL     1       4.753  -5.659  24.868  0.00  0.00    +0.000 C 
ATOM     19  C   UNL     1       5.101  -6.494  26.118  0.00  0.00    +0.000 C 
ATOM     20  O   UNL     1       6.450  -6.201  26.489  0.00  0.00    +0.000 OA
ENDBRANCH  11  12
ENDBRANCH   4  11
TORSDOF 4
ENDMDL
MODEL 3
REMARK VINA RESULT:      -6.0      2.531      3.809
REMARK  Name = 
REMARK  4 active torsions:
REMARK  status: ('A' for Active; 'I' for Inactive)
REMARK    1  A    between atoms: C_2  and  C_3
REMARK    2  A    between atoms: C_2  and  N_5
REMARK    3  A    between atoms: N_8  and  C_9
REMARK    4  A    between atoms: C_9  and  C_10
REMARK                            x       y       z     vdW  Elec       q    Type
REMARK                         _______ _______ _______ _____ _____    ______ ____
ROOT
ATOM      1  N   UNL     1       7.789  -4.193  26.507  0.00  0.00    +0.000 NA
ATOM      2  C   UNL     1       7.391  -2.801  26.587  0.00  0.00    +0.000 C 
ATOM      3  C   UNL     1       8.335  -1.952  25.708  0.00  0.00    +0.000 C 
ATOM      4  N   UNL     1       8.714  -2.627  24.488  0.00  0.00    +0.000 NA
ATOM      5  C   UNL     1       9.510  -3.808  24.792  0.00  0.00    +0.000 C 
ATOM      6  C   UNL     1       9.182  -4.414  26.170  0.00  0.00    +0.000 C 
ENDROOT
BRANCH   1   8
ATOM      7  O   UNL     1       7.282  -6.087  27.617  0.00  0.00    +0.000 OA
ATOM      8  C   UNL     1       7.003  -5.249  26.781  0.00  0.00    +0.000 C 
BRANCH   8   9
ATOM      9  C   UNL     1       5.699  -5.358  25.997  0.00  0.00    +0.000 C 
ATOM     10 CL   UNL     1       4.893  -6.908  26.342  0.00  0.00    +0.000 Cl
ENDBRANCH   8   9
ENDBRANCH   1   8
BRANCH   4  11
ATOM     11  C   UNL     1       7.595  -2.893  23.586  0.00  0.00    +0.000 C 
BRANCH  11  12
ATOM     12  C   UNL     1       7.635  -1.988  22.386  0.00  0.00    +0.000 C 
ATOM     13  C   UNL     1       8.762  -1.208  22.145  0.00  0.00    +0.000 C 
ATOM     14  C   UNL     1       8.838  -0.352  21.058  0.00  0.00    +0.000 C 
ATOM     15  C   UNL     1       7.752  -0.298  20.203  0.00  0.00    +0.000 C 
ATOM     16  C   UNL     1       6.620  -1.078  20.426  0.00  0.00    +0.000 C 
ATOM     17  C   UNL     1       6.551  -1.920  21.514  0.00  0.00    +0.000 C 
ATOM     18  C   UNL     1       5.631  -0.798  19.333  0.00  0.00    +0.000 C 
ATOM     19  C   UNL     1       6.381   0.255  18.491  0.00  0.00    +0.000 C 
ATOM     20  O   UNL     1       7.656   0.482  19.095  0.00  0.00    +0.000 OA
ENDBRANCH  11  12
ENDBRANCH   4  11
TORSDOF 4
ENDMDL
MODEL 4
REMARK VINA RESULT:      -6.0      3.408      6.844
REMARK  Name = 
REMARK  4 active torsions:
REMARK  status: ('A' for Active; 'I' for Inactive)
REMARK    1  A    between atoms: C_2  and  C_3
REMARK    2  A    between atoms: C_2  and  N_5
REMARK    3  A    between atoms: N_8  and  C_9
REMARK    4  A    between atoms: C_9  and  C_10
REMARK                            x       y       z     vdW  Elec       q    Type
REMARK                         _______ _______ _______ _____ _____    ______ ____
ROOT
ATOM      1  N   UNL     1       9.829   1.891  23.250  0.00  0.00    +0.000 NA
ATOM      2  C   UNL     1       9.623   1.100  22.052  0.00  0.00    +0.000 C 
ATOM      3  C   UNL     1      10.055  -0.357  22.324  0.00  0.00    +0.000 C 
ATOM      4  N   UNL     1       9.721  -0.793  23.661  0.00  0.00    +0.000 NA
ATOM      5  C   UNL     1      10.477  -0.029  24.644  0.00  0.00    +0.000 C 
ATOM      6  C   UNL     1      10.844   1.383  24.151  0.00  0.00    +0.000 C 
ENDROOT
BRANCH   1   8
ATOM      7  O   UNL     1       9.816   4.067  23.834  0.00  0.00    +0.000 OA
ATOM      8  C   UNL     1       9.215   3.052  23.537  0.00  0.00    +0.000 C 
BRANCH   8   9
ATOM      9  C   UNL     1       7.691   3.064  23.458  0.00  0.00    +0.000 C 
ATOM     10 CL   UNL     1       7.146   4.044  22.075  0.00  0.00    +0.000 Cl
ENDBRANCH   8   9
ENDBRANCH   1   8
BRANCH   4  11
ATOM     11  C   UNL     1       8.286  -0.832  23.930  0.00  0.00    +0.000 C 
BRANCH  11  12
ATOM     12  C   UNL     1       7.610  -1.910  23.128  0.00  0.00    +0.000 C 
ATOM     13  C   UNL     1       6.647  -1.568  22.184  0.00  0.00    +0.000 C 
ATOM     14  C   UNL     1       5.990  -2.528  21.431  0.00  0.00    +0.000 C 
ATOM     15  C   UNL     1       6.326  -3.853  21.641  0.00  0.00    +0.000 C 
ATOM     16  C   UNL     1       7.292  -4.211  22.578  0.00  0.00    +0.000 C 
ATOM     17  C   UNL     1       7.934  -3.250  23.327  0.00  0.00    +0.000 C 
ATOM     18  C   UNL     1       7.430  -5.706  22.567  0.00  0.00    +0.000 C 
ATOM     19  C   UNL     1       6.391  -6.110  21.500  0.00  0.00    +0.000 C 
ATOM     20  O   UNL     1       5.784  -4.918  20.996  0.00  0.00    +0.000 OA
ENDBRANCH  11  12
ENDBRANCH   4  11
TORSDOF 4
ENDMDL
MODEL 5
REMARK VINA RESULT:      -6.0      2.839      6.564
REMARK  Name = 
REMARK  4 active torsions:
REMARK  status: ('A' for Active; 'I' for Inactive)
REMARK    1  A    between atoms: C_2  and  C_3
REMARK    2  A    between atoms: C_2  and  N_5
REMARK    3  A    between atoms: N_8  and  C_9
REMARK    4  A    between atoms: C_9  and  C_10
REMARK                            x       y       z     vdW  Elec       q    Type
REMARK                         _______ _______ _______ _____ _____    ______ ____
ROOT
ATOM      1  N   UNL     1       8.850   1.670  23.538  0.00  0.00    +0.000 NA
ATOM      2  C   UNL     1      10.299   1.712  23.581  0.00  0.00    +0.000 C 
ATOM      3  C   UNL     1      10.805   0.691  24.623  0.00  0.00    +0.000 C 
ATOM      4  N   UNL     1      10.020  -0.522  24.639  0.00  0.00    +0.000 NA
ATOM      5  C   UNL     1       8.662  -0.236  25.081  0.00  0.00    +0.000 C 
ATOM      6  C   UNL     1       8.214   1.201  24.754  0.00  0.00    +0.000 C 
ENDROOT
BRANCH   1   8
ATOM      7  O   UNL     1       8.009   3.250  22.169  0.00  0.00    +0.000 OA
ATOM      8  C   UNL     1       8.085   2.085  22.513  0.00  0.00    +0.000 C 
BRANCH   8   9
ATOM      9  C   UNL     1       7.302   1.015  21.760  0.00  0.00    +0.000 C 
ATOM     10 CL   UNL     1       8.301   0.307  20.467  0.00  0.00    +0.000 Cl
ENDBRANCH   8   9
ENDBRANCH   1   8
BRANCH   4  11
ATOM     11  C   UNL     1      10.080  -1.283  23.394  0.00  0.00    +0.000 C 
BRANCH  11  12
ATOM     12  C   UNL     1       9.156  -2.469  23.434  0.00  0.00    +0.000 C 
ATOM     13  C   UNL     1       9.356  -3.470  24.380  0.00  0.00    +0.000 C 
ATOM     14  C   UNL     1       8.537  -4.585  24.446  0.00  0.00    +0.000 C 
ATOM     15  C   UNL     1       7.497  -4.676  23.541  0.00  0.00    +0.000 C 
ATOM     16  C   UNL     1       7.279  -3.679  22.592  0.00  0.00    +0.000 C 
ATOM     17  C   UNL     1       8.103  -2.578  22.529  0.00  0.00    +0.000 C 
ATOM     18  C   UNL     1       6.084  -4.064  21.768  0.00  0.00    +0.000 C 
ATOM     19  C   UNL     1       5.693  -5.418  22.395  0.00  0.00    +0.000 C 
ATOM     20  O   UNL     1       6.602  -5.695  23.462  0.00  0.00    +0.000 OA
ENDBRANCH  11  12
ENDBRANCH   4  11
TORSDOF 4
ENDMDL
MODEL 6
REMARK VINA RESULT:      -5.9      1.552      2.341
REMARK  Name = 
REMARK  4 active torsions:
REMARK  status: ('A' for Active; 'I' for Inactive)
REMARK    1  A    between atoms: C_2  and  C_3
REMARK    2  A    between atoms: C_2  and  N_5
REMARK    3  A    between atoms: N_8  and  C_9
REMARK    4  A    between atoms: C_9  and  C_10
REMARK                            x       y       z     vdW  Elec       q    Type
REMARK                         _______ _______ _______ _____ _____    ______ ____
ROOT
ATOM      1  N   UNL     1       5.908  -4.914  24.608  0.00  0.00    +0.000 NA
ATOM      2  C   UNL     1       5.707  -3.485  24.475  0.00  0.00    +0.000 C 
ATOM      3  C   UNL     1       6.824  -2.742  25.239  0.00  0.00    +0.000 C 
ATOM      4  N   UNL     1       8.104  -3.402  25.130  0.00  0.00    +0.000 NA
ATOM      5  C   UNL     1       8.057  -4.702  25.785  0.00  0.00    +0.000 C 
ATOM      6  C   UNL     1       6.647  -5.322  25.787  0.00  0.00    +0.000 C 
ENDROOT
BRANCH   1   8
ATOM      7  O   UNL     1       4.871  -6.868  24.177  0.00  0.00    +0.000 OA
ATOM      8  C   UNL     1       5.416  -5.855  23.782  0.00  0.00    +0.000 C 
BRANCH   8   9
ATOM      9  C   UNL     1       5.551  -5.595  22.285  0.00  0.00    +0.000 C 
ATOM     10 CL   UNL     1       7.203  -5.966  21.734  0.00  0.00    +0.000 Cl
ENDBRANCH   8   9
ENDBRANCH   1   8
BRANCH   4  11
ATOM     11  C   UNL     1       8.631  -3.453  23.768  0.00  0.00    +0.000 C 
BRANCH  11  12
ATOM     12  C   UNL     1       9.022  -2.084  23.283  0.00  0.00    +0.000 C 
ATOM     13  C   UNL     1       8.804  -1.733  21.955  0.00  0.00    +0.000 C 
ATOM     14  C   UNL     1       9.159  -0.488  21.461  0.00  0.00    +0.000 C 
ATOM     15  C   UNL     1       9.736   0.412  22.338  0.00  0.00    +0.000 C 
ATOM     16  C   UNL     1       9.954   0.078  23.673  0.00  0.00    +0.000 C 
ATOM     17  C   UNL     1       9.605  -1.164  24.151  0.00  0.00    +0.000 C 
ATOM     18  C   UNL     1      10.584   1.256  24.357  0.00  0.00    +0.000 C 
ATOM     19  C   UNL     1      10.690   2.272  23.201  0.00  0.00    +0.000 C 
ATOM     20  O   UNL     1      10.144   1.670  22.026  0.00  0.00    +0.000 OA
ENDBRANCH  11  12
ENDBRANCH   4  11
TORSDOF 4
ENDMDL
MODEL 7
REMARK VINA RESULT:      -5.9      2.535      7.090
REMARK  Name = 
REMARK  4 active torsions:
REMARK  status: ('A' for Active; 'I' for Inactive)
REMARK    1  A    between atoms: C_2  and  C_3
REMARK    2  A    between atoms: C_2  and  N_5
REMARK    3  A    between atoms: N_8  and  C_9
REMARK    4  A    between atoms: C_9  and  C_10
REMARK                            x       y       z     vdW  Elec       q    Type
REMARK                         _______ _______ _______ _____ _____    ______ ____
ROOT
ATOM      1  N   UNL     1       9.906  -0.040  22.716  0.00  0.00    +0.000 NA
ATOM      2  C   UNL     1      10.062  -1.436  22.355  0.00  0.00    +0.000 C 
ATOM      3  C   UNL     1      10.202  -2.281  23.639  0.00  0.00    +0.000 C 
ATOM      4  N   UNL     1       9.360  -1.802  24.712  0.00  0.00    +0.000 NA
ATOM      5  C   UNL     1       9.789  -0.476  25.134  0.00  0.00    +0.000 C 
ATOM      6  C   UNL     1      10.463   0.324  24.004  0.00  0.00    +0.000 C 
ENDROOT
BRANCH   1   8
ATOM      7  O   UNL     1       9.946   1.937  21.637  0.00  0.00    +0.000 OA
ATOM      8  C   UNL     1       9.363   0.914  21.940  0.00  0.00    +0.000 C 
BRANCH   8   9
ATOM      9  C   UNL     1       7.952   0.658  21.419  0.00  0.00    +0.000 C 
ATOM     10 CL   UNL     1       8.007   0.037  19.751  0.00  0.00    +0.000 Cl
ENDBRANCH   8   9
ENDBRANCH   1   8
BRANCH   4  11
ATOM     11  C   UNL     1       7.930  -1.890  24.428  0.00  0.00    +0.000 C 
BRANCH  11  12
ATOM     12  C   UNL     1       7.329  -3.129  25.032  0.00  0.00    +0.000 C 
ATOM     13  C   UNL     1       7.782  -3.588  26.265  0.00  0.00    +0.000 C 
ATOM     14  C   UNL     1       7.266  -4.731  26.853  0.00  0.00    +0.000 C 
ATOM     15  C   UNL     1       6.270  -5.410  26.177  0.00  0.00    +0.000 C 
ATOM     16  C   UNL     1       5.800  -4.961  24.945  0.00  0.00    +0.000 C 
ATOM     17  C   UNL     1       6.325  -3.828  24.365  0.00  0.00    +0.000 C 
ATOM     18  C   UNL     1       4.729  -5.901  24.476  0.00  0.00    +0.000 C 
ATOM     19  C   UNL     1       4.692  -6.934  25.622  0.00  0.00    +0.000 C 
ATOM     20  O   UNL     1       5.655  -6.544  26.604  0.00  0.00    +0.000 OA
ENDBRANCH  11  12
ENDBRANCH   4  11
TORSDOF 4
ENDMDL
MODEL 8
REMARK VINA RESULT:      -5.8      2.658      6.579
REMARK  Name = 
REMARK  4 active torsions:
REMARK  status: ('A' for Active; 'I' for Inactive)
REMARK    1  A    between atoms: C_2  and  C_3
REMARK    2  A    between atoms: C_2  and  N_5
REMARK    3  A    between atoms: N_8  and  C_9
REMARK    4  A    between atoms: C_9  and  C_10
REMARK                            x       y       z     vdW  Elec       q    Type
REMARK                         _______ _______ _______ _____ _____    ______ ____
ROOT
ATOM      1  N   UNL     1       8.237   0.434  22.093  0.00  0.00    +0.000 NA
ATOM      2  C   UNL     1       7.176  -0.519  22.355  0.00  0.00    +0.000 C 
ATOM      3  C   UNL     1       7.744  -1.951  22.259  0.00  0.00    +0.000 C 
ATOM      4  N   UNL     1       9.085  -2.053  22.788  0.00  0.00    +0.000 NA
ATOM      5  C   UNL     1      10.007  -1.271  21.976  0.00  0.00    +0.000 C 
ATOM      6  C   UNL     1       9.329  -0.073  21.284  0.00  0.00    +0.000 C 
ENDROOT
BRANCH   1   8
ATOM      7  O   UNL     1       7.833   2.627  21.774  0.00  0.00    +0.000 OA
ATOM      8  C   UNL     1       8.245   1.723  22.476  0.00  0.00    +0.000 C 
BRANCH   8   9
ATOM      9  C   UNL     1       8.787   2.025  23.869  0.00  0.00    +0.000 C 
ATOM     10 CL   UNL     1      10.564   2.139  23.835  0.00  0.00    +0.000 Cl
ENDBRANCH   8   9
ENDBRANCH   1   8
BRANCH   4  11
ATOM     11  C   UNL     1       9.181  -1.769  24.218  0.00  0.00    +0.000 C 
BRANCH  11  12
ATOM     12  C   UNL     1       8.741  -2.950  25.039  0.00  0.00    +0.000 C 
ATOM     13  C   UNL     1       9.446  -4.146  24.963  0.00  0.00    +0.000 C 
ATOM     14  C   UNL     1       9.070  -5.263  25.693  0.00  0.00    +0.000 C 
ATOM     15  C   UNL     1       7.963  -5.152  26.515  0.00  0.00    +0.000 C 
ATOM     16  C   UNL     1       7.251  -3.959  26.607  0.00  0.00    +0.000 C 
ATOM     17  C   UNL     1       7.628  -2.858  25.872  0.00  0.00    +0.000 C 
ATOM     18  C   UNL     1       6.120  -4.157  27.575  0.00  0.00    +0.000 C 
ATOM     19  C   UNL     1       6.312  -5.632  27.984  0.00  0.00    +0.000 C 
ATOM     20  O   UNL     1       7.456  -6.141  27.296  0.00  0.00    +0.000 OA
ENDBRANCH  11  12
ENDBRANCH   4  11
TORSDOF 4
ENDMDL
MODEL 9
REMARK VINA RESULT:      -5.8      2.940      6.788
REMARK  Name = 
REMARK  4 active torsions:
REMARK  status: ('A' for Active; 'I' for Inactive)
REMARK    1  A    between atoms: C_2  and  C_3
REMARK    2  A    between atoms: C_2  and  N_5
REMARK    3  A    between atoms: N_8  and  C_9
REMARK    4  A    between atoms: C_9  and  C_10
REMARK                            x       y       z     vdW  Elec       q    Type
REMARK                         _______ _______ _______ _____ _____    ______ ____
ROOT
ATOM      1  N   UNL     1       8.554   0.602  22.154  0.00  0.00    +0.000 NA
ATOM      2  C   UNL     1       9.650  -0.205  21.654  0.00  0.00    +0.000 C 
ATOM      3  C   UNL     1      10.392  -0.847  22.846  0.00  0.00    +0.000 C 
ATOM      4  N   UNL     1       9.495  -1.250  23.905  0.00  0.00    +0.000 NA
ATOM      5  C   UNL     1       8.859  -0.081  24.497  0.00  0.00    +0.000 C 
ATOM      6  C   UNL     1       8.722   1.092  23.508  0.00  0.00    +0.000 C 
ENDROOT
BRANCH   1   8
ATOM      7  O   UNL     1       6.949   2.065  21.552  0.00  0.00    +0.000 OA
ATOM      8  C   UNL     1       7.468   0.969  21.450  0.00  0.00    +0.000 C 
BRANCH   8   9
ATOM      9  C   UNL     1       6.899  -0.057  20.476  0.00  0.00    +0.000 C 
ATOM     10 CL   UNL     1       7.520   0.232  18.833  0.00  0.00    +0.000 Cl
ENDBRANCH   8   9
ENDBRANCH   1   8
BRANCH   4  11
ATOM     11  C   UNL     1       8.551  -2.295  23.518  0.00  0.00    +0.000 C 
BRANCH  11  12
ATOM     12  C   UNL     1       8.300  -3.250  24.652  0.00  0.00    +0.000 C 
ATOM     13  C   UNL     1       9.287  -4.157  25.025  0.00  0.00    +0.000 C 
ATOM     14  C   UNL     1       9.096  -5.063  26.055  0.00  0.00    +0.000 C 
ATOM     15  C   UNL     1       7.882  -5.037  26.718  0.00  0.00    +0.000 C 
ATOM     16  C   UNL     1       6.886  -4.131  26.362  0.00  0.00    +0.000 C 
ATOM     17  C   UNL     1       7.084  -3.240  25.331  0.00  0.00    +0.000 C 
ATOM     18  C   UNL     1       5.705  -4.350  27.262  0.00  0.00    +0.000 C 
ATOM     19  C   UNL     1       6.196  -5.513  28.149  0.00  0.00    +0.000 C 
ATOM     20  O   UNL     1       7.525  -5.850  27.747  0.00  0.00    +0.000 OA
ENDBRANCH  11  12
ENDBRANCH   4  11
TORSDOF 4
ENDMDL
