MODEL 1
REMARK VINA RESULT:      -6.6      0.000      0.000
REMARK  Name = 
REMARK  3 active torsions:
REMARK  status: ('A' for Active; 'I' for Inactive)
REMARK    1  A    between atoms: C_2  and  C_3
REMARK    2  A    between atoms: N_8  and  S_9
REMARK    3  A    between atoms: S_9  and  C_12
REMARK                            x       y       z     vdW  Elec       q    Type
REMARK                         _______ _______ _______ _____ _____    ______ ____
ROOT
ATOM      1  S   UNL     1       8.588   2.561  23.040  0.00  0.00    +0.000 S 
ATOM      2  O   UNL     1       9.981   2.851  22.760  0.00  0.00    +0.000 OA
ATOM      3  O   UNL     1       7.629   3.620  23.252  0.00  0.00    +0.000 OA
ENDROOT
BRANCH   1   9
ATOM      4  O   UNL     1      10.304  -2.714  23.116  0.00  0.00    +0.000 OA
ATOM      5  C   UNL     1       9.189  -2.425  23.557  0.00  0.00    +0.000 C 
ATOM      6  N   UNL     1       8.994  -1.273  24.307  0.00  0.00    +0.000 N 
ATOM      7  C   UNL     1       7.747  -0.828  24.933  0.00  0.00    +0.000 C 
ATOM      8  C   UNL     1       7.350   0.572  24.434  0.00  0.00    +0.000 C 
ATOM      9  N   UNL     1       8.510   1.515  24.372  0.00  0.00    +0.000 NA
ATOM     10  C   UNL     1       9.774   1.021  24.981  0.00  0.00    +0.000 C 
ATOM     11  C   UNL     1      10.146  -0.404  24.545  0.00  0.00    +0.000 C 
BRANCH   5  12
ATOM     12  C   UNL     1       8.014  -3.350  23.297  0.00  0.00    +0.000 C 
ATOM     13 CL   UNL     1       6.970  -2.670  22.034  0.00  0.00    +0.000 Cl
ENDBRANCH   5  12
ENDBRANCH   1   9
BRANCH   1  14
ATOM     14  C   UNL     1       7.979   1.548  21.710  0.00  0.00    +0.000 A 
ATOM     15  C   UNL     1       8.776   0.518  21.200  0.00  0.00    +0.000 A 
ATOM     16  C   UNL     1       8.356  -0.176  20.066  0.00  0.00    +0.000 A 
ATOM     17  C   UNL     1       7.144   0.158  19.463  0.00  0.00    +0.000 A 
ATOM     18  F   UNL     1       6.791  -0.481  18.338  0.00  0.00    +0.000 F 
ATOM     19  C   UNL     1       6.322   1.139  20.014  0.00  0.00    +0.000 A 
ATOM     20 CL   UNL     1       4.827   1.557  19.270  0.00  0.00    +0.000 Cl
ATOM     21  C   UNL     1       6.722   1.821  21.163  0.00  0.00    +0.000 A 
ENDBRANCH   1  14
TORSDOF 3
ENDMDL
MODEL 2
REMARK VINA RESULT:      -6.4      2.067      2.722
REMARK  Name = 
REMARK  3 active torsions:
REMARK  status: ('A' for Active; 'I' for Inactive)
REMARK    1  A    between atoms: C_2  and  C_3
REMARK    2  A    between atoms: N_8  and  S_9
REMARK    3  A    between atoms: S_9  and  C_12
REMARK                            x       y       z     vdW  Elec       q    Type
REMARK                         _______ _______ _______ _____ _____    ______ ____
ROOT
ATOM      1  S   UNL     1       9.296  -0.218  22.319  0.00  0.00    +0.000 S 
ATOM      2  O   UNL     1       9.780  -1.376  21.592  0.00  0.00    +0.000 OA
ATOM      3  O   UNL     1      10.193   0.834  22.738  0.00  0.00    +0.000 OA
ENDROOT
BRANCH   1   9
ATOM      4  O   UNL     1       8.923  -5.478  24.043  0.00  0.00    +0.000 OA
ATOM      5  C   UNL     1       7.905  -4.788  23.953  0.00  0.00    +0.000 C 
ATOM      6  N   UNL     1       7.910  -3.454  24.338  0.00  0.00    +0.000 N 
ATOM      7  C   UNL     1       6.773  -2.530  24.335  0.00  0.00    +0.000 C 
ATOM      8  C   UNL     1       7.071  -1.295  23.469  0.00  0.00    +0.000 C 
ATOM      9  N   UNL     1       8.448  -0.752  23.686  0.00  0.00    +0.000 NA
ATOM     10  C   UNL     1       9.204  -1.351  24.819  0.00  0.00    +0.000 C 
ATOM     11  C   UNL     1       9.162  -2.887  24.838  0.00  0.00    +0.000 C 
BRANCH   5  12
ATOM     12  C   UNL     1       6.620  -5.407  23.436  0.00  0.00    +0.000 C 
ATOM     13 CL   UNL     1       6.871  -6.062  21.806  0.00  0.00    +0.000 Cl
ENDBRANCH   5  12
ENDBRANCH   1   9
BRANCH   1  14
ATOM     14  C   UNL     1       8.019   0.531  21.333  0.00  0.00    +0.000 A 
ATOM     15  C   UNL     1       7.357   1.671  21.804  0.00  0.00    +0.000 A 
ATOM     16  C   UNL     1       6.261   2.166  21.099  0.00  0.00    +0.000 A 
ATOM     17  C   UNL     1       5.847   1.529  19.931  0.00  0.00    +0.000 A 
ATOM     18  F   UNL     1       4.754   1.987  19.304  0.00  0.00    +0.000 F 
ATOM     19  C   UNL     1       6.550   0.435  19.429  0.00  0.00    +0.000 A 
ATOM     20 CL   UNL     1       6.039  -0.357  17.990  0.00  0.00    +0.000 Cl
ATOM     21  C   UNL     1       7.663  -0.052  20.114  0.00  0.00    +0.000 A 
ENDBRANCH   1  14
TORSDOF 3
ENDMDL
MODEL 3
REMARK VINA RESULT:      -6.3      4.031      5.363
REMARK  Name = 
REMARK  3 active torsions:
REMARK  status: ('A' for Active; 'I' for Inactive)
REMARK    1  A    between atoms: C_2  and  C_3
REMARK    2  A    between atoms: N_8  and  S_9
REMARK    3  A    between atoms: S_9  and  C_12
REMARK                            x       y       z     vdW  Elec       q    Type
REMARK                         _______ _______ _______ _____ _____    ______ ____
ROOT
ATOM      1  S   UNL     1       8.510  -3.724  23.855  0.00  0.00    +0.000 S 
ATOM      2  O   UNL     1       7.838  -4.489  22.825  0.00  0.00    +0.000 OA
ATOM      3  O   UNL     1       9.614  -4.279  24.604  0.00  0.00    +0.000 OA
ENDROOT
BRANCH   1   9
ATOM      4  O   UNL     1       5.813  -6.882  27.533  0.00  0.00    +0.000 OA
ATOM      5  C   UNL     1       5.184  -6.093  26.824  0.00  0.00    +0.000 C 
ATOM      6  N   UNL     1       5.683  -4.826  26.550  0.00  0.00    +0.000 N 
ATOM      7  C   UNL     1       5.031  -3.770  25.771  0.00  0.00    +0.000 C 
ATOM      8  C   UNL     1       5.913  -3.335  24.589  0.00  0.00    +0.000 C 
ATOM      9  N   UNL     1       7.352  -3.177  24.967  0.00  0.00    +0.000 NA
ATOM     10  C   UNL     1       7.648  -3.262  26.422  0.00  0.00    +0.000 C 
ATOM     11  C   UNL     1       6.983  -4.462  27.112  0.00  0.00    +0.000 C 
BRANCH   5  12
ATOM     12  C   UNL     1       3.835  -6.498  26.260  0.00  0.00    +0.000 C 
ATOM     13 CL   UNL     1       4.029  -7.142  24.618  0.00  0.00    +0.000 Cl
ENDBRANCH   5  12
ENDBRANCH   1   9
BRANCH   1  14
ATOM     14  C   UNL     1       9.080  -2.213  23.108  0.00  0.00    +0.000 A 
ATOM     15  C   UNL     1      10.031  -1.427  23.768  0.00  0.00    +0.000 A 
ATOM     16  C   UNL     1      10.364  -0.176  23.250  0.00  0.00    +0.000 A 
ATOM     17  C   UNL     1       9.755   0.270  22.078  0.00  0.00    +0.000 A 
ATOM     18  F   UNL     1      10.045   1.500  21.633  0.00  0.00    +0.000 F 
ATOM     19  C   UNL     1       8.859  -0.545  21.388  0.00  0.00    +0.000 A 
ATOM     20 CL   UNL     1       8.102   0.004  19.943  0.00  0.00    +0.000 Cl
ATOM     21  C   UNL     1       8.539  -1.808  21.884  0.00  0.00    +0.000 A 
ENDBRANCH   1  14
TORSDOF 3
ENDMDL
MODEL 4
REMARK VINA RESULT:      -6.3      2.693      4.919
REMARK  Name = 
REMARK  3 active torsions:
REMARK  status: ('A' for Active; 'I' for Inactive)
REMARK    1  A    between atoms: C_2  and  C_3
REMARK    2  A    between atoms: N_8  and  S_9
REMARK    3  A    between atoms: S_9  and  C_12
REMARK                            x       y       z     vdW  Elec       q    Type
REMARK                         _______ _______ _______ _____ _____    ______ ____
ROOT
ATOM      1  S   UNL     1       8.227  -2.880  25.541  0.00  0.00    +0.000 S 
ATOM      2  O   UNL     1       7.191  -2.087  26.171  0.00  0.00    +0.000 OA
ATOM      3  O   UNL     1       8.933  -3.909  26.269  0.00  0.00    +0.000 OA
ENDROOT
BRANCH   1   9
ATOM      4  O   UNL     1       7.220   1.074  21.782  0.00  0.00    +0.000 OA
ATOM      5  C   UNL     1       8.156   0.289  21.612  0.00  0.00    +0.000 C 
ATOM      6  N   UNL     1       8.961  -0.104  22.673  0.00  0.00    +0.000 N 
ATOM      7  C   UNL     1      10.130  -0.984  22.615  0.00  0.00    +0.000 C 
ATOM      8  C   UNL     1       9.950  -2.199  23.541  0.00  0.00    +0.000 C 
ATOM      9  N   UNL     1       9.382  -1.832  24.875  0.00  0.00    +0.000 NA
ATOM     10  C   UNL     1       9.282  -0.374  25.153  0.00  0.00    +0.000 C 
ATOM     11  C   UNL     1       8.655   0.426  24.001  0.00  0.00    +0.000 C 
BRANCH   5  12
ATOM     12  C   UNL     1       8.452  -0.239  20.220  0.00  0.00    +0.000 C 
ATOM     13 CL   UNL     1       7.301   0.440  19.053  0.00  0.00    +0.000 Cl
ENDBRANCH   5  12
ENDBRANCH   1   9
BRANCH   1  14
ATOM     14  C   UNL     1       7.512  -3.641  24.100  0.00  0.00    +0.000 A 
ATOM     15  C   UNL     1       7.657  -5.018  23.898  0.00  0.00    +0.000 A 
ATOM     16  C   UNL     1       7.223  -5.583  22.699  0.00  0.00    +0.000 A 
ATOM     17  C   UNL     1       6.642  -4.773  21.725  0.00  0.00    +0.000 A 
ATOM     18  F   UNL     1       6.289  -5.328  20.557  0.00  0.00    +0.000 F 
ATOM     19  C   UNL     1       6.438  -3.414  21.959  0.00  0.00    +0.000 A 
ATOM     20 CL   UNL     1       5.725  -2.411  20.757  0.00  0.00    +0.000 Cl
ATOM     21  C   UNL     1       6.846  -2.845  23.165  0.00  0.00    +0.000 A 
ENDBRANCH   1  14
TORSDOF 3
ENDMDL
MODEL 5
REMARK VINA RESULT:      -6.2      3.371      4.093
REMARK  Name = 
REMARK  3 active torsions:
REMARK  status: ('A' for Active; 'I' for Inactive)
REMARK    1  A    between atoms: C_2  and  C_3
REMARK    2  A    between atoms: N_8  and  S_9
REMARK    3  A    between atoms: S_9  and  C_12
REMARK                            x       y       z     vdW  Elec       q    Type
REMARK                         _______ _______ _______ _____ _____    ______ ____
ROOT
ATOM      1  S   UNL     1       8.626  -0.198  21.193  0.00  0.00    +0.000 S 
ATOM      2  O   UNL     1       8.194   0.072  19.836  0.00  0.00    +0.000 OA
ATOM      3  O   UNL     1       9.775  -1.031  21.464  0.00  0.00    +0.000 OA
ENDROOT
BRANCH   1   9
ATOM      4  O   UNL     1       8.553  -5.044  23.893  0.00  0.00    +0.000 OA
ATOM      5  C   UNL     1       7.626  -4.750  23.134  0.00  0.00    +0.000 C 
ATOM      6  N   UNL     1       7.123  -3.457  23.089  0.00  0.00    +0.000 N 
ATOM      7  C   UNL     1       6.001  -2.974  22.281  0.00  0.00    +0.000 C 
ATOM      8  C   UNL     1       6.440  -1.818  21.366  0.00  0.00    +0.000 C 
ATOM      9  N   UNL     1       7.313  -0.825  22.064  0.00  0.00    +0.000 NA
ATOM     10  C   UNL     1       7.439  -1.002  23.536  0.00  0.00    +0.000 C 
ATOM     11  C   UNL     1       7.736  -2.450  23.955  0.00  0.00    +0.000 C 
BRANCH   5  12
ATOM     12  C   UNL     1       7.008  -5.819  22.252  0.00  0.00    +0.000 C 
ATOM     13 CL   UNL     1       5.506  -6.419  22.982  0.00  0.00    +0.000 Cl
ENDBRANCH   5  12
ENDBRANCH   1   9
BRANCH   1  14
ATOM     14  C   UNL     1       8.908   1.371  21.983  0.00  0.00    +0.000 A 
ATOM     15  C   UNL     1      10.103   1.596  22.674  0.00  0.00    +0.000 A 
ATOM     16  C   UNL     1      10.257   2.769  23.413  0.00  0.00    +0.000 A 
ATOM     17  C   UNL     1       9.225   3.705  23.443  0.00  0.00    +0.000 A 
ATOM     18  F   UNL     1       9.371   4.795  24.209  0.00  0.00    +0.000 F 
ATOM     19  C   UNL     1       8.063   3.508  22.699  0.00  0.00    +0.000 A 
ATOM     20 CL   UNL     1       6.785   4.659  22.737  0.00  0.00    +0.000 Cl
ATOM     21  C   UNL     1       7.910   2.350  21.937  0.00  0.00    +0.000 A 
ENDBRANCH   1  14
TORSDOF 3
ENDMDL
MODEL 6
REMARK VINA RESULT:      -6.2      2.241      4.311
REMARK  Name = 
REMARK  3 active torsions:
REMARK  status: ('A' for Active; 'I' for Inactive)
REMARK    1  A    between atoms: C_2  and  C_3
REMARK    2  A    between atoms: N_8  and  S_9
REMARK    3  A    between atoms: S_9  and  C_12
REMARK                            x       y       z     vdW  Elec       q    Type
REMARK                         _______ _______ _______ _____ _____    ______ ____
ROOT
ATOM      1  S   UNL     1       9.933  -2.075  23.351  0.00  0.00    +0.000 S 
ATOM      2  O   UNL     1       9.733  -3.314  24.076  0.00  0.00    +0.000 OA
ATOM      3  O   UNL     1      11.080  -1.883  22.495  0.00  0.00    +0.000 OA
ENDROOT
BRANCH   1   9
ATOM      4  O   UNL     1       6.172   2.003  23.407  0.00  0.00    +0.000 OA
ATOM      5  C   UNL     1       7.374   2.275  23.477  0.00  0.00    +0.000 C 
ATOM      6  N   UNL     1       8.236   1.502  24.243  0.00  0.00    +0.000 N 
ATOM      7  C   UNL     1       9.667   1.729  24.461  0.00  0.00    +0.000 C 
ATOM      8  C   UNL     1      10.491   0.509  24.018  0.00  0.00    +0.000 C 
ATOM      9  N   UNL     1       9.886  -0.788  24.454  0.00  0.00    +0.000 NA
ATOM     10  C   UNL     1       8.737  -0.679  25.392  0.00  0.00    +0.000 C 
ATOM     11  C   UNL     1       7.682   0.347  24.949  0.00  0.00    +0.000 C 
BRANCH   5  12
ATOM     12  C   UNL     1       7.917   3.483  22.737  0.00  0.00    +0.000 C 
ATOM     13 CL   UNL     1       6.637   4.692  22.521  0.00  0.00    +0.000 Cl
ENDBRANCH   5  12
ENDBRANCH   1   9
BRANCH   1  14
ATOM     14  C   UNL     1       8.478  -1.798  22.364  0.00  0.00    +0.000 A 
ATOM     15  C   UNL     1       7.353  -2.610  22.542  0.00  0.00    +0.000 A 
ATOM     16  C   UNL     1       6.273  -2.484  21.668  0.00  0.00    +0.000 A 
ATOM     17  C   UNL     1       6.324  -1.545  20.640  0.00  0.00    +0.000 A 
ATOM     18  F   UNL     1       5.300  -1.485  19.776  0.00  0.00    +0.000 F 
ATOM     19  C   UNL     1       7.418  -0.692  20.508  0.00  0.00    +0.000 A 
ATOM     20 CL   UNL     1       7.486   0.466  19.237  0.00  0.00    +0.000 Cl
ATOM     21  C   UNL     1       8.492  -0.793  21.392  0.00  0.00    +0.000 A 
ENDBRANCH   1  14
TORSDOF 3
ENDMDL
MODEL 7
REMARK VINA RESULT:      -6.2      3.812      6.118
REMARK  Name = 
REMARK  3 active torsions:
REMARK  status: ('A' for Active; 'I' for Inactive)
REMARK    1  A    between atoms: C_2  and  C_3
REMARK    2  A    between atoms: N_8  and  S_9
REMARK    3  A    between atoms: S_9  and  C_12
REMARK                            x       y       z     vdW  Elec       q    Type
REMARK                         _______ _______ _______ _____ _____    ______ ____
ROOT
ATOM      1  S   UNL     1       7.788  -4.249  26.552  0.00  0.00    +0.000 S 
ATOM      2  O   UNL     1       6.853  -4.606  27.600  0.00  0.00    +0.000 OA
ATOM      3  O   UNL     1       9.194  -4.563  26.661  0.00  0.00    +0.000 OA
ENDROOT
BRANCH   1   9
ATOM      4  O   UNL     1       6.431  -1.957  21.686  0.00  0.00    +0.000 OA
ATOM      5  C   UNL     1       7.409  -1.537  22.310  0.00  0.00    +0.000 C 
ATOM      6  N   UNL     1       7.368  -1.401  23.692  0.00  0.00    +0.000 N 
ATOM      7  C   UNL     1       8.425  -0.873  24.558  0.00  0.00    +0.000 C 
ATOM      8  C   UNL     1       8.828  -1.906  25.624  0.00  0.00    +0.000 C 
ATOM      9  N   UNL     1       7.651  -2.587  26.246  0.00  0.00    +0.000 NA
ATOM     10  C   UNL     1       6.321  -2.023  25.892  0.00  0.00    +0.000 C 
ATOM     11  C   UNL     1       6.139  -1.785  24.385  0.00  0.00    +0.000 C 
BRANCH   5  12
ATOM     12  C   UNL     1       8.667  -1.142  21.561  0.00  0.00    +0.000 C 
ATOM     13 CL   UNL     1       8.566   0.554  21.050  0.00  0.00    +0.000 Cl
ENDBRANCH   5  12
ENDBRANCH   1   9
BRANCH   1  14
ATOM     14  C   UNL     1       7.195  -4.976  25.040  0.00  0.00    +0.000 A 
ATOM     15  C   UNL     1       8.010  -4.974  23.903  0.00  0.00    +0.000 A 
ATOM     16  C   UNL     1       7.487  -5.411  22.686  0.00  0.00    +0.000 A 
ATOM     17  C   UNL     1       6.167  -5.854  22.622  0.00  0.00    +0.000 A 
ATOM     18  F   UNL     1       5.668  -6.211  21.430  0.00  0.00    +0.000 F 
ATOM     19  C   UNL     1       5.381  -5.918  23.771  0.00  0.00    +0.000 A 
ATOM     20 CL   UNL     1       3.750  -6.460  23.695  0.00  0.00    +0.000 Cl
ATOM     21  C   UNL     1       5.903  -5.507  24.997  0.00  0.00    +0.000 A 
ENDBRANCH   1  14
TORSDOF 3
ENDMDL
MODEL 8
REMARK VINA RESULT:      -6.2      3.252      5.749
REMARK  Name = 
REMARK  3 active torsions:
REMARK  status: ('A' for Active; 'I' for Inactive)
REMARK    1  A    between atoms: C_2  and  C_3
REMARK    2  A    between atoms: N_8  and  S_9
REMARK    3  A    between atoms: S_9  and  C_12
REMARK                            x       y       z     vdW  Elec       q    Type
REMARK                         _______ _______ _______ _____ _____    ______ ____
ROOT
ATOM      1  S   UNL     1       9.252  -1.963  23.646  0.00  0.00    +0.000 S 
ATOM      2  O   UNL     1       9.354  -1.473  25.006  0.00  0.00    +0.000 OA
ATOM      3  O   UNL     1      10.403  -2.482  22.946  0.00  0.00    +0.000 OA
ENDROOT
BRANCH   1   9
ATOM      4  O   UNL     1      10.942   3.316  23.406  0.00  0.00    +0.000 OA
ATOM      5  C   UNL     1       9.744   3.061  23.554  0.00  0.00    +0.000 C 
ATOM      6  N   UNL     1       9.146   2.018  22.860  0.00  0.00    +0.000 N 
ATOM      7  C   UNL     1       7.734   1.630  22.894  0.00  0.00    +0.000 C 
ATOM      8  C   UNL     1       7.576   0.166  23.337  0.00  0.00    +0.000 C 
ATOM      9  N   UNL     1       8.565  -0.747  22.684  0.00  0.00    +0.000 NA
ATOM     10  C   UNL     1       9.375  -0.143  21.592  0.00  0.00    +0.000 C 
ATOM     11  C   UNL     1       9.982   1.219  21.963  0.00  0.00    +0.000 C 
BRANCH   5  12
ATOM     12  C   UNL     1       8.903   3.912  24.487  0.00  0.00    +0.000 C 
ATOM     13 CL   UNL     1       8.975   5.614  23.992  0.00  0.00    +0.000 Cl
ENDBRANCH   5  12
ENDBRANCH   1   9
BRANCH   1  14
ATOM     14  C   UNL     1       8.002  -3.229  23.629  0.00  0.00    +0.000 A 
ATOM     15  C   UNL     1       7.512  -3.737  24.837  0.00  0.00    +0.000 A 
ATOM     16  C   UNL     1       6.643  -4.827  24.819  0.00  0.00    +0.000 A 
ATOM     17  C   UNL     1       6.265  -5.388  23.600  0.00  0.00    +0.000 A 
ATOM     18  F   UNL     1       5.478  -6.473  23.611  0.00  0.00    +0.000 F 
ATOM     19  C   UNL     1       6.701  -4.835  22.397  0.00  0.00    +0.000 A 
ATOM     20 CL   UNL     1       6.241  -5.527  20.891  0.00  0.00    +0.000 Cl
ATOM     21  C   UNL     1       7.551  -3.730  22.405  0.00  0.00    +0.000 A 
ENDBRANCH   1  14
TORSDOF 3
ENDMDL
MODEL 9
REMARK VINA RESULT:      -6.0      4.323      5.774
REMARK  Name = 
REMARK  3 active torsions:
REMARK  status: ('A' for Active; 'I' for Inactive)
REMARK    1  A    between atoms: C_2  and  C_3
REMARK    2  A    between atoms: N_8  and  S_9
REMARK    3  A    between atoms: S_9  and  C_12
REMARK                            x       y       z     vdW  Elec       q    Type
REMARK                         _______ _______ _______ _____ _____    ______ ____
ROOT
ATOM      1  S   UNL     1       8.542  -3.747  23.694  0.00  0.00    +0.000 S 
ATOM      2  O   UNL     1       8.158  -4.506  22.521  0.00  0.00    +0.000 OA
ATOM      3  O   UNL     1       9.602  -4.196  24.566  0.00  0.00    +0.000 OA
ENDROOT
BRANCH   1   9
ATOM      4  O   UNL     1       4.423  -7.378  24.483  0.00  0.00    +0.000 OA
ATOM      5  C   UNL     1       4.162  -6.212  24.177  0.00  0.00    +0.000 C 
ATOM      6  N   UNL     1       4.877  -5.154  24.723  0.00  0.00    +0.000 N 
ATOM      7  C   UNL     1       4.651  -3.725  24.494  0.00  0.00    +0.000 C 
ATOM      8  C   UNL     1       5.917  -3.051  23.940  0.00  0.00    +0.000 C 
ATOM      9  N   UNL     1       7.163  -3.486  24.645  0.00  0.00    +0.000 NA
ATOM     10  C   UNL     1       6.956  -4.314  25.863  0.00  0.00    +0.000 C 
ATOM     11  C   UNL     1       5.958  -5.464  25.658  0.00  0.00    +0.000 C 
BRANCH   5  12
ATOM     12  C   UNL     1       3.032  -5.922  23.207  0.00  0.00    +0.000 C 
ATOM     13 CL   UNL     1       1.533  -5.594  24.099  0.00  0.00    +0.000 Cl
ENDBRANCH   5  12
ENDBRANCH   1   9
BRANCH   1  14
ATOM     14  C   UNL     1       8.959  -2.105  23.150  0.00  0.00    +0.000 A 
ATOM     15  C   UNL     1       8.590  -1.683  21.868  0.00  0.00    +0.000 A 
ATOM     16  C   UNL     1       9.046  -0.453  21.395  0.00  0.00    +0.000 A 
ATOM     17  C   UNL     1       9.851   0.344  22.208  0.00  0.00    +0.000 A 
ATOM     18  F   UNL     1      10.327   1.494  21.709  0.00  0.00    +0.000 F 
ATOM     19  C   UNL     1      10.159  -0.050  23.509  0.00  0.00    +0.000 A 
ATOM     20 CL   UNL     1      11.156   0.929  24.513  0.00  0.00    +0.000 Cl
ATOM     21  C   UNL     1       9.688  -1.267  24.000  0.00  0.00    +0.000 A 
ENDBRANCH   1  14
TORSDOF 3
ENDMDL
