MODEL 1
REMARK VINA RESULT:      -6.6      0.000      0.000
REMARK  Name = 
REMARK  6 active torsions:
REMARK  status: ('A' for Active; 'I' for Inactive)
REMARK    1  A    between atoms: C_1  and  C_2
REMARK    2  A    between atoms: C_2  and  C_4
REMARK    3  A    between atoms: C_8  and  S_9
REMARK    4  A    between atoms: S_9  and  N_12
REMARK    5  A    between atoms: N_15  and  C_16
REMARK    6  A    between atoms: C_16  and  C_18
REMARK                            x       y       z     vdW  Elec       q    Type
REMARK                         _______ _______ _______ _____ _____    ______ ____
ROOT
ATOM      1  S   UNL     1       8.706  -2.241  23.985  0.00  0.00    +0.000 S 
ATOM      2  O   UNL     1       9.861  -3.082  23.809  0.00  0.00    +0.000 OA
ATOM      3  O   UNL     1       8.403  -1.750  25.291  0.00  0.00    +0.000 OA
ENDROOT
BRANCH   1   8
ATOM      4  C   UNL     1       8.206   0.262  20.842  0.00  0.00    +0.000 C 
ATOM      5  C   UNL     1       9.086   1.295  21.170  0.00  0.00    +0.000 C 
ATOM      6  C   UNL     1       9.852   1.244  22.321  0.00  0.00    +0.000 C 
ATOM      7  C   UNL     1       9.739   0.157  23.174  0.00  0.00    +0.000 C 
ATOM      8  C   UNL     1       8.857  -0.858  22.855  0.00  0.00    +0.000 C 
ATOM      9  C   UNL     1       8.096  -0.827  21.707  0.00  0.00    +0.000 C 
BRANCH   4  11
ATOM     10  C   UNL     1       6.090   1.072  19.670  0.00  0.00    +0.000 C 
ATOM     11  C   UNL     1       7.424   0.383  19.576  0.00  0.00    +0.000 C 
ATOM     12  O   UNL     1       7.853  -0.061  18.537  0.00  0.00    +0.000 OA
ENDBRANCH   4  11
ENDBRANCH   1   8
BRANCH   1  13
ATOM     13  N   UNL     1       7.320  -2.956  23.347  0.00  0.00    +0.000 NA
ATOM     14  C   UNL     1       7.561  -4.262  22.784  0.00  0.00    +0.000 C 
ATOM     15  C   UNL     1       7.758  -5.322  23.894  0.00  0.00    +0.000 C 
ATOM     16  N   UNL     1       7.086  -4.881  25.095  0.00  0.00    +0.000 NA
ATOM     17  C   UNL     1       5.826  -4.215  24.838  0.00  0.00    +0.000 C 
ATOM     18  C   UNL     1       6.105  -2.874  24.137  0.00  0.00    +0.000 C 
BRANCH  16  19
ATOM     19  C   UNL     1       7.609  -4.810  26.350  0.00  0.00    +0.000 C 
ATOM     20  O   UNL     1       8.799  -4.900  26.547  0.00  0.00    +0.000 OA
BRANCH  19  21
ATOM     21  C   UNL     1       6.600  -4.568  27.464  0.00  0.00    +0.000 C 
ATOM     22 CL   UNL     1       6.440  -6.028  28.453  0.00  0.00    +0.000 Cl
ENDBRANCH  19  21
ENDBRANCH  16  19
ENDBRANCH   1  13
TORSDOF 5
ENDMDL
MODEL 2
REMARK VINA RESULT:      -6.6      1.856      2.476
REMARK  Name = 
REMARK  6 active torsions:
REMARK  status: ('A' for Active; 'I' for Inactive)
REMARK    1  A    between atoms: C_1  and  C_2
REMARK    2  A    between atoms: C_2  and  C_4
REMARK    3  A    between atoms: C_8  and  S_9
REMARK    4  A    between atoms: S_9  and  N_12
REMARK    5  A    between atoms: N_15  and  C_16
REMARK    6  A    between atoms: C_16  and  C_18
REMARK                            x       y       z     vdW  Elec       q    Type
REMARK                         _______ _______ _______ _____ _____    ______ ____
ROOT
ATOM      1  S   UNL     1       6.880  -2.860  23.085  0.00  0.00    +0.000 S 
ATOM      2  O   UNL     1       5.484  -3.166  22.910  0.00  0.00    +0.000 OA
ATOM      3  O   UNL     1       7.829  -3.927  23.064  0.00  0.00    +0.000 OA
ENDROOT
BRANCH   1   8
ATOM      4  C   UNL     1       6.811  -0.382  19.885  0.00  0.00    +0.000 C 
ATOM      5  C   UNL     1       8.046   0.257  20.005  0.00  0.00    +0.000 C 
ATOM      6  C   UNL     1       8.920  -0.061  21.029  0.00  0.00    +0.000 C 
ATOM      7  C   UNL     1       8.563  -1.020  21.963  0.00  0.00    +0.000 C 
ATOM      8  C   UNL     1       7.334  -1.642  21.852  0.00  0.00    +0.000 C 
ATOM      9  C   UNL     1       6.458  -1.343  20.830  0.00  0.00    +0.000 C 
BRANCH   4  11
ATOM     10  C   UNL     1       5.048   1.209  18.950  0.00  0.00    +0.000 C 
ATOM     11  C   UNL     1       5.929   0.007  18.744  0.00  0.00    +0.000 C 
ATOM     12  O   UNL     1       5.930  -0.628  17.715  0.00  0.00    +0.000 OA
ENDBRANCH   4  11
ENDBRANCH   1   8
BRANCH   1  13
ATOM     13  N   UNL     1       7.140  -1.942  24.474  0.00  0.00    +0.000 NA
ATOM     14  C   UNL     1       5.936  -1.701  25.230  0.00  0.00    +0.000 C 
ATOM     15  C   UNL     1       5.489  -2.971  25.993  0.00  0.00    +0.000 C 
ATOM     16  N   UNL     1       6.640  -3.813  26.226  0.00  0.00    +0.000 NA
ATOM     17  C   UNL     1       7.841  -3.069  26.543  0.00  0.00    +0.000 C 
ATOM     18  C   UNL     1       8.287  -2.287  25.295  0.00  0.00    +0.000 C 
BRANCH  16  19
ATOM     19  C   UNL     1       6.757  -5.140  25.946  0.00  0.00    +0.000 C 
ATOM     20  O   UNL     1       7.746  -5.766  26.250  0.00  0.00    +0.000 OA
BRANCH  19  21
ATOM     21  C   UNL     1       5.549  -5.774  25.270  0.00  0.00    +0.000 C 
ATOM     22 CL   UNL     1       4.730  -6.859  26.406  0.00  0.00    +0.000 Cl
ENDBRANCH  19  21
ENDBRANCH  16  19
ENDBRANCH   1  13
TORSDOF 5
ENDMDL
MODEL 3
REMARK VINA RESULT:      -6.2      1.580      1.945
REMARK  Name = 
REMARK  6 active torsions:
REMARK  status: ('A' for Active; 'I' for Inactive)
REMARK    1  A    between atoms: C_1  and  C_2
REMARK    2  A    between atoms: C_2  and  C_4
REMARK    3  A    between atoms: C_8  and  S_9
REMARK    4  A    between atoms: S_9  and  N_12
REMARK    5  A    between atoms: N_15  and  C_16
REMARK    6  A    between atoms: C_16  and  C_18
REMARK                            x       y       z     vdW  Elec       q    Type
REMARK                         _______ _______ _______ _____ _____    ______ ____
ROOT
ATOM      1  S   UNL     1       7.083  -1.796  24.014  0.00  0.00    +0.000 S 
ATOM      2  O   UNL     1       7.534  -1.383  25.317  0.00  0.00    +0.000 OA
ATOM      3  O   UNL     1       5.748  -2.281  23.868  0.00  0.00    +0.000 OA
ENDROOT
BRANCH   1   8
ATOM      4  C   UNL     1       7.207   0.503  20.684  0.00  0.00    +0.000 C 
ATOM      5  C   UNL     1       7.712   1.700  21.194  0.00  0.00    +0.000 C 
ATOM      6  C   UNL     1       8.041   1.825  22.532  0.00  0.00    +0.000 C 
ATOM      7  C   UNL     1       7.855   0.751  23.388  0.00  0.00    +0.000 C 
ATOM      8  C   UNL     1       7.341  -0.429  22.885  0.00  0.00    +0.000 C 
ATOM      9  C   UNL     1       7.020  -0.572  21.552  0.00  0.00    +0.000 C 
BRANCH   4  11
ATOM     10  C   UNL     1       5.502   0.862  18.819  0.00  0.00    +0.000 C 
ATOM     11  C   UNL     1       6.889   0.442  19.226  0.00  0.00    +0.000 C 
ATOM     12  O   UNL     1       7.713   0.065  18.427  0.00  0.00    +0.000 OA
ENDBRANCH   4  11
ENDBRANCH   1   8
BRANCH   1  13
ATOM     13  N   UNL     1       8.137  -2.915  23.322  0.00  0.00    +0.000 NA
ATOM     14  C   UNL     1       9.315  -3.154  24.118  0.00  0.00    +0.000 C 
ATOM     15  C   UNL     1       8.989  -4.026  25.355  0.00  0.00    +0.000 C 
ATOM     16  N   UNL     1       7.817  -4.823  25.076  0.00  0.00    +0.000 NA
ATOM     17  C   UNL     1       7.765  -5.313  23.714  0.00  0.00    +0.000 C 
ATOM     18  C   UNL     1       7.553  -4.121  22.764  0.00  0.00    +0.000 C 
BRANCH  16  19
ATOM     19  C   UNL     1       6.700  -4.941  25.847  0.00  0.00    +0.000 C 
ATOM     20  O   UNL     1       6.560  -4.297  26.860  0.00  0.00    +0.000 OA
BRANCH  19  21
ATOM     21  C   UNL     1       5.642  -5.900  25.319  0.00  0.00    +0.000 C 
ATOM     22 CL   UNL     1       4.887  -6.759  26.671  0.00  0.00    +0.000 Cl
ENDBRANCH  19  21
ENDBRANCH  16  19
ENDBRANCH   1  13
TORSDOF 5
ENDMDL
MODEL 4
REMARK VINA RESULT:      -6.2      3.304      6.919
REMARK  Name = 
REMARK  6 active torsions:
REMARK  status: ('A' for Active; 'I' for Inactive)
REMARK    1  A    between atoms: C_1  and  C_2
REMARK    2  A    between atoms: C_2  and  C_4
REMARK    3  A    between atoms: C_8  and  S_9
REMARK    4  A    between atoms: S_9  and  N_12
REMARK    5  A    between atoms: N_15  and  C_16
REMARK    6  A    between atoms: C_16  and  C_18
REMARK                            x       y       z     vdW  Elec       q    Type
REMARK                         _______ _______ _______ _____ _____    ______ ____
ROOT
ATOM      1  S   UNL     1       7.692  -2.149  23.350  0.00  0.00    +0.000 S 
ATOM      2  O   UNL     1       8.222  -2.786  22.172  0.00  0.00    +0.000 OA
ATOM      3  O   UNL     1       6.412  -1.519  23.277  0.00  0.00    +0.000 OA
ENDROOT
BRANCH   1   8
ATOM      4  C   UNL     1       6.649  -5.217  25.777  0.00  0.00    +0.000 C 
ATOM      5  C   UNL     1       7.713  -5.227  26.680  0.00  0.00    +0.000 C 
ATOM      6  C   UNL     1       8.741  -4.306  26.586  0.00  0.00    +0.000 C 
ATOM      7  C   UNL     1       8.726  -3.362  25.572  0.00  0.00    +0.000 C 
ATOM      8  C   UNL     1       7.679  -3.361  24.670  0.00  0.00    +0.000 C 
ATOM      9  C   UNL     1       6.643  -4.266  24.758  0.00  0.00    +0.000 C 
BRANCH   4  11
ATOM     10  C   UNL     1       4.650  -6.452  24.783  0.00  0.00    +0.000 C 
ATOM     11  C   UNL     1       5.571  -6.235  25.953  0.00  0.00    +0.000 C 
ATOM     12  O   UNL     1       5.454  -6.841  26.992  0.00  0.00    +0.000 OA
ENDBRANCH   4  11
ENDBRANCH   1   8
BRANCH   1  13
ATOM     13  N   UNL     1       8.791  -1.053  24.005  0.00  0.00    +0.000 NA
ATOM     14  C   UNL     1      10.042  -1.004  23.289  0.00  0.00    +0.000 C 
ATOM     15  C   UNL     1       9.889  -0.251  21.945  0.00  0.00    +0.000 C 
ATOM     16  N   UNL     1       8.778   0.668  22.041  0.00  0.00    +0.000 NA
ATOM     17  C   UNL     1       8.673   1.309  23.336  0.00  0.00    +0.000 C 
ATOM     18  C   UNL     1       8.282   0.253  24.385  0.00  0.00    +0.000 C 
BRANCH  16  19
ATOM     19  C   UNL     1       7.737   0.793  21.173  0.00  0.00    +0.000 C 
ATOM     20  O   UNL     1       6.826   1.559  21.383  0.00  0.00    +0.000 OA
BRANCH  19  21
ATOM     21  C   UNL     1       7.831  -0.061  19.915  0.00  0.00    +0.000 C 
ATOM     22 CL   UNL     1       6.890   0.686  18.615  0.00  0.00    +0.000 Cl
ENDBRANCH  19  21
ENDBRANCH  16  19
ENDBRANCH   1  13
TORSDOF 5
ENDMDL
MODEL 5
REMARK VINA RESULT:      -6.1      1.831      2.526
REMARK  Name = 
REMARK  6 active torsions:
REMARK  status: ('A' for Active; 'I' for Inactive)
REMARK    1  A    between atoms: C_1  and  C_2
REMARK    2  A    between atoms: C_2  and  C_4
REMARK    3  A    between atoms: C_8  and  S_9
REMARK    4  A    between atoms: S_9  and  N_12
REMARK    5  A    between atoms: N_15  and  C_16
REMARK    6  A    between atoms: C_16  and  C_18
REMARK                            x       y       z     vdW  Elec       q    Type
REMARK                         _______ _______ _______ _____ _____    ______ ____
ROOT
ATOM      1  S   UNL     1       8.832  -2.413  24.377  0.00  0.00    +0.000 S 
ATOM      2  O   UNL     1       9.908  -3.344  24.158  0.00  0.00    +0.000 OA
ATOM      3  O   UNL     1       8.540  -1.997  25.712  0.00  0.00    +0.000 OA
ENDROOT
BRANCH   1   8
ATOM      4  C   UNL     1       9.707   1.350  23.167  0.00  0.00    +0.000 C 
ATOM      5  C   UNL     1       9.648   1.214  21.779  0.00  0.00    +0.000 C 
ATOM      6  C   UNL     1       9.326   0.003  21.192  0.00  0.00    +0.000 C 
ATOM      7  C   UNL     1       9.068  -1.100  21.990  0.00  0.00    +0.000 C 
ATOM      8  C   UNL     1       9.141  -0.968  23.364  0.00  0.00    +0.000 C 
ATOM      9  C   UNL     1       9.450   0.235  23.963  0.00  0.00    +0.000 C 
BRANCH   4  11
ATOM     10  C   UNL     1       8.994   3.363  24.564  0.00  0.00    +0.000 C 
ATOM     11  C   UNL     1      10.048   2.693  23.725  0.00  0.00    +0.000 C 
ATOM     12  O   UNL     1      11.120   3.203  23.500  0.00  0.00    +0.000 OA
ENDBRANCH   4  11
ENDBRANCH   1   8
BRANCH   1  13
ATOM     13  N   UNL     1       7.402  -2.941  23.658  0.00  0.00    +0.000 NA
ATOM     14  C   UNL     1       7.528  -4.230  23.024  0.00  0.00    +0.000 C 
ATOM     15  C   UNL     1       7.577  -5.368  24.072  0.00  0.00    +0.000 C 
ATOM     16  N   UNL     1       6.913  -4.930  25.278  0.00  0.00    +0.000 NA
ATOM     17  C   UNL     1       5.737  -4.123  25.027  0.00  0.00    +0.000 C 
ATOM     18  C   UNL     1       6.176  -2.779  24.418  0.00  0.00    +0.000 C 
BRANCH  16  19
ATOM     19  C   UNL     1       7.398  -4.986  26.549  0.00  0.00    +0.000 C 
ATOM     20  O   UNL     1       8.580  -5.108  26.772  0.00  0.00    +0.000 OA
BRANCH  19  21
ATOM     21  C   UNL     1       6.356  -4.843  27.651  0.00  0.00    +0.000 C 
ATOM     22 CL   UNL     1       5.500  -6.378  27.866  0.00  0.00    +0.000 Cl
ENDBRANCH  19  21
ENDBRANCH  16  19
ENDBRANCH   1  13
TORSDOF 5
ENDMDL
MODEL 6
REMARK VINA RESULT:      -6.1      3.215      6.591
REMARK  Name = 
REMARK  6 active torsions:
REMARK  status: ('A' for Active; 'I' for Inactive)
REMARK    1  A    between atoms: C_1  and  C_2
REMARK    2  A    between atoms: C_2  and  C_4
REMARK    3  A    between atoms: C_8  and  S_9
REMARK    4  A    between atoms: S_9  and  N_12
REMARK    5  A    between atoms: N_15  and  C_16
REMARK    6  A    between atoms: C_16  and  C_18
REMARK                            x       y       z     vdW  Elec       q    Type
REMARK                         _______ _______ _______ _____ _____    ______ ____
ROOT
ATOM      1  S   UNL     1       8.218  -3.098  24.031  0.00  0.00    +0.000 S 
ATOM      2  O   UNL     1       9.591  -3.485  24.229  0.00  0.00    +0.000 OA
ATOM      3  O   UNL     1       7.736  -2.922  22.698  0.00  0.00    +0.000 OA
ENDROOT
BRANCH   1   8
ATOM      4  C   UNL     1       5.384  -5.869  24.857  0.00  0.00    +0.000 C 
ATOM      5  C   UNL     1       5.646  -6.138  26.201  0.00  0.00    +0.000 C 
ATOM      6  C   UNL     1       6.656  -5.480  26.880  0.00  0.00    +0.000 C 
ATOM      7  C   UNL     1       7.434  -4.545  26.215  0.00  0.00    +0.000 C 
ATOM      8  C   UNL     1       7.184  -4.290  24.880  0.00  0.00    +0.000 C 
ATOM      9  C   UNL     1       6.173  -4.930  24.194  0.00  0.00    +0.000 C 
BRANCH   4  11
ATOM     10  C   UNL     1       3.496  -5.869  23.141  0.00  0.00    +0.000 C 
ATOM     11  C   UNL     1       4.268  -6.611  24.198  0.00  0.00    +0.000 C 
ATOM     12  O   UNL     1       4.007  -7.747  24.515  0.00  0.00    +0.000 OA
ENDBRANCH   4  11
ENDBRANCH   1   8
BRANCH   1  13
ATOM     13  N   UNL     1       7.830  -1.724  24.926  0.00  0.00    +0.000 NA
ATOM     14  C   UNL     1       8.943  -1.204  25.681  0.00  0.00    +0.000 C 
ATOM     15  C   UNL     1       9.956  -0.481  24.761  0.00  0.00    +0.000 C 
ATOM     16  N   UNL     1       9.272  -0.014  23.578  0.00  0.00    +0.000 NA
ATOM     17  C   UNL     1       7.936   0.481  23.844  0.00  0.00    +0.000 C 
ATOM     18  C   UNL     1       7.043  -0.700  24.263  0.00  0.00    +0.000 C 
BRANCH  16  19
ATOM     19  C   UNL     1       9.640  -0.214  22.283  0.00  0.00    +0.000 C 
ATOM     20  O   UNL     1      10.371  -1.123  21.965  0.00  0.00    +0.000 OA
BRANCH  19  21
ATOM     21  C   UNL     1       9.034   0.754  21.276  0.00  0.00    +0.000 C 
ATOM     22 CL   UNL     1       8.116  -0.148  20.059  0.00  0.00    +0.000 Cl
ENDBRANCH  19  21
ENDBRANCH  16  19
ENDBRANCH   1  13
TORSDOF 5
ENDMDL
MODEL 7
REMARK VINA RESULT:      -6.0      2.669      3.837
REMARK  Name = 
REMARK  6 active torsions:
REMARK  status: ('A' for Active; 'I' for Inactive)
REMARK    1  A    between atoms: C_1  and  C_2
REMARK    2  A    between atoms: C_2  and  C_4
REMARK    3  A    between atoms: C_8  and  S_9
REMARK    4  A    between atoms: S_9  and  N_12
REMARK    5  A    between atoms: N_15  and  C_16
REMARK    6  A    between atoms: C_16  and  C_18
REMARK                            x       y       z     vdW  Elec       q    Type
REMARK                         _______ _______ _______ _____ _____    ______ ____
ROOT
ATOM      1  S   UNL     1       6.339  -2.657  22.711  0.00  0.00    +0.000 S 
ATOM      2  O   UNL     1       5.864  -2.403  24.046  0.00  0.00    +0.000 OA
ATOM      3  O   UNL     1       5.388  -2.822  21.659  0.00  0.00    +0.000 OA
ENDROOT
BRANCH   1   8
ATOM      4  C   UNL     1       9.229   0.173  22.879  0.00  0.00    +0.000 C 
ATOM      5  C   UNL     1       9.238   0.636  21.562  0.00  0.00    +0.000 C 
ATOM      6  C   UNL     1       8.367   0.123  20.617  0.00  0.00    +0.000 C 
ATOM      7  C   UNL     1       7.477  -0.877  20.975  0.00  0.00    +0.000 C 
ATOM      8  C   UNL     1       7.479  -1.345  22.276  0.00  0.00    +0.000 C 
ATOM      9  C   UNL     1       8.333  -0.836  23.230  0.00  0.00    +0.000 C 
BRANCH   4  11
ATOM     10  C   UNL     1      10.504   2.245  23.649  0.00  0.00    +0.000 C 
ATOM     11  C   UNL     1      10.190   0.786  23.844  0.00  0.00    +0.000 C 
ATOM     12  O   UNL     1      10.688   0.128  24.726  0.00  0.00    +0.000 OA
ENDBRANCH   4  11
ENDBRANCH   1   8
BRANCH   1  13
ATOM     13  N   UNL     1       7.407  -3.960  22.675  0.00  0.00    +0.000 NA
ATOM     14  C   UNL     1       7.795  -4.415  23.987  0.00  0.00    +0.000 C 
ATOM     15  C   UNL     1       6.649  -5.202  24.669  0.00  0.00    +0.000 C 
ATOM     16  N   UNL     1       5.790  -5.762  23.653  0.00  0.00    +0.000 NA
ATOM     17  C   UNL     1       6.510  -6.241  22.490  0.00  0.00    +0.000 C 
ATOM     18  C   UNL     1       7.112  -5.036  21.746  0.00  0.00    +0.000 C 
BRANCH  16  19
ATOM     19  C   UNL     1       4.434  -5.661  23.575  0.00  0.00    +0.000 C 
ATOM     20  O   UNL     1       3.848  -5.791  22.525  0.00  0.00    +0.000 OA
BRANCH  19  21
ATOM     21  C   UNL     1       3.722  -5.419  24.899  0.00  0.00    +0.000 C 
ATOM     22 CL   UNL     1       2.521  -4.131  24.703  0.00  0.00    +0.000 Cl
ENDBRANCH  19  21
ENDBRANCH  16  19
ENDBRANCH   1  13
TORSDOF 5
ENDMDL
MODEL 8
REMARK VINA RESULT:      -6.0      3.109      7.018
REMARK  Name = 
REMARK  6 active torsions:
REMARK  status: ('A' for Active; 'I' for Inactive)
REMARK    1  A    between atoms: C_1  and  C_2
REMARK    2  A    between atoms: C_2  and  C_4
REMARK    3  A    between atoms: C_8  and  S_9
REMARK    4  A    between atoms: S_9  and  N_12
REMARK    5  A    between atoms: N_15  and  C_16
REMARK    6  A    between atoms: C_16  and  C_18
REMARK                            x       y       z     vdW  Elec       q    Type
REMARK                         _______ _______ _______ _____ _____    ______ ____
ROOT
ATOM      1  S   UNL     1       7.883  -3.664  23.674  0.00  0.00    +0.000 S 
ATOM      2  O   UNL     1       9.171  -4.133  24.114  0.00  0.00    +0.000 OA
ATOM      3  O   UNL     1       7.690  -3.375  22.289  0.00  0.00    +0.000 OA
ENDROOT
BRANCH   1   8
ATOM      4  C   UNL     1       5.496  -6.008  25.954  0.00  0.00    +0.000 C 
ATOM      5  C   UNL     1       4.738  -6.660  24.980  0.00  0.00    +0.000 C 
ATOM      6  C   UNL     1       4.947  -6.422  23.633  0.00  0.00    +0.000 C 
ATOM      7  C   UNL     1       5.915  -5.512  23.239  0.00  0.00    +0.000 C 
ATOM      8  C   UNL     1       6.655  -4.857  24.204  0.00  0.00    +0.000 C 
ATOM      9  C   UNL     1       6.466  -5.092  25.549  0.00  0.00    +0.000 C 
BRANCH   4  11
ATOM     10  C   UNL     1       6.298  -5.977  28.376  0.00  0.00    +0.000 C 
ATOM     11  C   UNL     1       5.221  -6.328  27.387  0.00  0.00    +0.000 C 
ATOM     12  O   UNL     1       4.182  -6.850  27.717  0.00  0.00    +0.000 OA
ENDBRANCH   4  11
ENDBRANCH   1   8
BRANCH   1  13
ATOM     13  N   UNL     1       7.370  -2.335  24.574  0.00  0.00    +0.000 NA
ATOM     14  C   UNL     1       8.323  -1.924  25.575  0.00  0.00    +0.000 C 
ATOM     15  C   UNL     1       9.528  -1.193  24.934  0.00  0.00    +0.000 C 
ATOM     16  N   UNL     1       9.115  -0.613  23.677  0.00  0.00    +0.000 NA
ATOM     17  C   UNL     1       7.772  -0.071  23.706  0.00  0.00    +0.000 C 
ATOM     18  C   UNL     1       6.770  -1.231  23.847  0.00  0.00    +0.000 C 
BRANCH  16  19
ATOM     19  C   UNL     1       9.732  -0.744  22.470  0.00  0.00    +0.000 C 
ATOM     20  O   UNL     1      10.439  -1.693  22.220  0.00  0.00    +0.000 OA
BRANCH  19  21
ATOM     21  C   UNL     1       9.433   0.357  21.462  0.00  0.00    +0.000 C 
ATOM     22 CL   UNL     1       8.334  -0.258  20.216  0.00  0.00    +0.000 Cl
ENDBRANCH  19  21
ENDBRANCH  16  19
ENDBRANCH   1  13
TORSDOF 5
ENDMDL
MODEL 9
REMARK VINA RESULT:      -6.0      1.777      2.007
REMARK  Name = 
REMARK  6 active torsions:
REMARK  status: ('A' for Active; 'I' for Inactive)
REMARK    1  A    between atoms: C_1  and  C_2
REMARK    2  A    between atoms: C_2  and  C_4
REMARK    3  A    between atoms: C_8  and  S_9
REMARK    4  A    between atoms: S_9  and  N_12
REMARK    5  A    between atoms: N_15  and  C_16
REMARK    6  A    between atoms: C_16  and  C_18
REMARK                            x       y       z     vdW  Elec       q    Type
REMARK                         _______ _______ _______ _____ _____    ______ ____
ROOT
ATOM      1  S   UNL     1       7.003  -2.327  24.099  0.00  0.00    +0.000 S 
ATOM      2  O   UNL     1       7.693  -2.181  25.354  0.00  0.00    +0.000 OA
ATOM      3  O   UNL     1       5.603  -2.053  24.045  0.00  0.00    +0.000 OA
ENDROOT
BRANCH   1   8
ATOM      4  C   UNL     1       7.866  -0.165  20.787  0.00  0.00    +0.000 C 
ATOM      5  C   UNL     1       9.162   0.269  21.071  0.00  0.00    +0.000 C 
ATOM      6  C   UNL     1       9.798  -0.097  22.244  0.00  0.00    +0.000 C 
ATOM      7  C   UNL     1       9.138  -0.898  23.162  0.00  0.00    +0.000 C 
ATOM      8  C   UNL     1       7.850  -1.315  22.886  0.00  0.00    +0.000 C 
ATOM      9  C   UNL     1       7.207  -0.968  21.717  0.00  0.00    +0.000 C 
BRANCH   4  11
ATOM     10  C   UNL     1       5.967   1.039  19.581  0.00  0.00    +0.000 C 
ATOM     11  C   UNL     1       7.252   0.261  19.494  0.00  0.00    +0.000 C 
ATOM     12  O   UNL     1       7.772  -0.018  18.439  0.00  0.00    +0.000 OA
ENDBRANCH   4  11
ENDBRANCH   1   8
BRANCH   1  13
ATOM     13  N   UNL     1       7.278  -3.844  23.418  0.00  0.00    +0.000 NA
ATOM     14  C   UNL     1       8.183  -4.659  24.190  0.00  0.00    +0.000 C 
ATOM     15  C   UNL     1       7.496  -5.208  25.464  0.00  0.00    +0.000 C 
ATOM     16  N   UNL     1       6.069  -5.268  25.243  0.00  0.00    +0.000 NA
ATOM     17  C   UNL     1       5.711  -5.676  23.900  0.00  0.00    +0.000 C 
ATOM     18  C   UNL     1       6.123  -4.567  22.916  0.00  0.00    +0.000 C 
BRANCH  16  19
ATOM     19  C   UNL     1       5.092  -4.766  26.047  0.00  0.00    +0.000 C 
ATOM     20  O   UNL     1       3.927  -4.802  25.725  0.00  0.00    +0.000 OA
BRANCH  19  21
ATOM     21  C   UNL     1       5.568  -4.206  27.381  0.00  0.00    +0.000 C 
ATOM     22 CL   UNL     1       5.025  -2.529  27.551  0.00  0.00    +0.000 Cl
ENDBRANCH  19  21
ENDBRANCH  16  19
ENDBRANCH   1  13
TORSDOF 5
ENDMDL
