
 OpenBabel06082022513D

 34 35  0  0  0  0  0  0  0  0999 V2000
    4.8828   10.2147    2.4897 O   0  0  0  0  0  0  0  0  0  0  0  0
    5.1366   10.0127    3.6803 C   0  0  0  0  0  0  0  0  0  0  0  0
    5.5353   11.1678    4.5808 C   0  0  0  0  0  0  0  0  0  0  0  0
    7.2971   11.1687    4.8112 Cl  0  0  0  0  0  0  0  0  0  0  0  0
    5.0477    8.7405    4.2293 N   0  0  0  0  0  0  0  0  0  0  0  0
    5.4227    8.3746    5.5944 C   0  0  0  0  0  0  0  0  0  0  0  0
    6.4079    7.1935    5.5790 C   0  0  0  0  0  0  0  0  0  0  0  0
    5.8702    5.9961    4.9237 N   0  0  0  0  0  0  0  0  0  0  0  0
    5.7909    4.7961    5.7598 C   0  0  0  0  0  0  0  0  0  0  0  0
    4.6477    4.6867    6.7558 C   0  0  0  0  0  0  0  0  0  0  0  0
    4.3651    5.6781    7.7068 C   0  0  0  0  0  0  0  0  0  0  0  0
    3.3169    5.5316    8.6179 C   0  0  0  0  0  0  0  0  0  0  0  0
    2.5611    4.3630    8.6275 C   0  0  0  0  0  0  0  0  0  0  0  0
    2.8567    3.3468    7.7268 C   0  0  0  0  0  0  0  0  0  0  0  0
    3.8875    3.5056    6.7963 C   0  0  0  0  0  0  0  0  0  0  0  0
    4.7049    6.2460    4.0615 C   0  0  0  0  0  0  0  0  0  0  0  0
    4.7731    7.6095    3.3325 C   0  0  0  0  0  0  0  0  0  0  0  0
    5.0270   11.1207    5.5476 H   0  0  0  0  0  0  0  0  0  0  0  0
    5.2600   12.1114    4.1007 H   0  0  0  0  0  0  0  0  0  0  0  0
    4.4924    8.1085    6.1094 H   0  0  0  0  0  0  0  0  0  0  0  0
    5.8566    9.2061    6.1477 H   0  0  0  0  0  0  0  0  0  0  0  0
    6.7670    6.9883    6.5926 H   0  0  0  0  0  0  0  0  0  0  0  0
    7.2958    7.4987    5.0123 H   0  0  0  0  0  0  0  0  0  0  0  0
    6.7333    4.6592    6.3067 H   0  0  0  0  0  0  0  0  0  0  0  0
    5.7430    3.9386    5.0755 H   0  0  0  0  0  0  0  0  0  0  0  0
    4.9566    6.5826    7.7665 H   0  0  0  0  0  0  0  0  0  0  0  0
    3.0999    6.3254    9.3278 H   0  0  0  0  0  0  0  0  0  0  0  0
    1.7554    4.2433    9.3457 H   0  0  0  0  0  0  0  0  0  0  0  0
    2.2860    2.4206    7.7501 H   0  0  0  0  0  0  0  0  0  0  0  0
    4.1021    2.6895    6.1113 H   0  0  0  0  0  0  0  0  0  0  0  0
    3.7797    6.2266    4.6490 H   0  0  0  0  0  0  0  0  0  0  0  0
    4.6292    5.4512    3.3098 H   0  0  0  0  0  0  0  0  0  0  0  0
    5.5696    7.5905    2.5775 H   0  0  0  0  0  0  0  0  0  0  0  0
    3.8298    7.8068    2.8082 H   0  0  0  0  0  0  0  0  0  0  0  0
  1  2  2  0  0  0  0
  2  3  1  0  0  0  0
  2  5  1  0  0  0  0
  3  4  1  0  0  0  0
  3 18  1  0  0  0  0
  3 19  1  0  0  0  0
  5  6  1  0  0  0  0
  5 17  1  0  0  0  0
  6  7  1  0  0  0  0
  6 20  1  0  0  0  0
  6 21  1  0  0  0  0
  7  8  1  0  0  0  0
  7 22  1  0  0  0  0
  7 23  1  0  0  0  0
  8  9  1  0  0  0  0
  8 16  1  0  0  0  0
  9 10  1  0  0  0  0
  9 24  1  0  0  0  0
  9 25  1  0  0  0  0
 10 11  1  0  0  0  0
 10 15  2  0  0  0  0
 11 12  2  0  0  0  0
 11 26  1  0  0  0  0
 12 13  1  0  0  0  0
 12 27  1  0  0  0  0
 13 14  2  0  0  0  0
 13 28  1  0  0  0  0
 14 15  1  0  0  0  0
 14 29  1  0  0  0  0
 15 30  1  0  0  0  0
 16 17  1  0  0  0  0
 16 31  1  0  0  0  0
 16 32  1  0  0  0  0
 17 33  1  0  0  0  0
 17 34  1  0  0  0  0
M  END
>  <name>


>  <Energy>
97.4374

$$$$
