MODEL 1
REMARK VINA RESULT:      -6.7      0.000      0.000
REMARK  Name = 
REMARK  7 active torsions:
REMARK  status: ('A' for Active; 'I' for Inactive)
REMARK    1  A    between atoms: C_1  and  O_2
REMARK    2  A    between atoms: O_2  and  C_3
REMARK    3  A    between atoms: C_6  and  O_7
REMARK    4  A    between atoms: O_7  and  C_8
REMARK    5  A    between atoms: C_9  and  S_10
REMARK    6  A    between atoms: S_10  and  N_13
REMARK    7  A    between atoms: C_17  and  C_19
REMARK                            x       y       z     vdW  Elec       q    Type
REMARK                         _______ _______ _______ _____ _____    ______ ____
ROOT
ATOM      1  S   UNL     1       8.781  -4.576  25.511  0.00  0.00    +0.000 S 
ATOM      2  O   UNL     1       9.635  -5.351  24.631  0.00  0.00    +0.000 OA
ATOM      3  O   UNL     1       9.032  -4.562  26.933  0.00  0.00    +0.000 OA
ENDROOT
BRANCH   1   4
ATOM      4  N   UNL     1       8.831  -2.965  24.941  0.00  0.00    +0.000 NA
ATOM      5  C   UNL     1       7.583  -2.168  25.032  0.00  0.00    +0.000 C 
ATOM      6  C   UNL     1       6.989  -1.992  23.632  0.00  0.00    +0.000 C 
ATOM      7  N   UNL     1       7.926  -1.320  22.711  0.00  0.00    +0.000 N 
ATOM      8  C   UNL     1       7.469  -1.026  21.431  0.00  0.00    +0.000 C 
ATOM      9  O   UNL     1       6.370  -1.432  21.044  0.00  0.00    +0.000 OA
ATOM     10  C   UNL     1       9.334  -1.270  23.135  0.00  0.00    +0.000 C 
ATOM     11  C   UNL     1       9.741  -2.584  23.822  0.00  0.00    +0.000 C 
BRANCH   8  12
ATOM     12  C   UNL     1       8.389  -0.195  20.549  0.00  0.00    +0.000 C 
ATOM     13 CL   UNL     1       7.615   0.182  18.996  0.00  0.00    +0.000 Cl
ENDBRANCH   8  12
ENDBRANCH   1   4
BRANCH   1  18
ATOM     14  C   UNL     1       5.080  -5.968  26.182  0.00  0.00    +0.000 A 
ATOM     15  C   UNL     1       4.684  -6.407  24.921  0.00  0.00    +0.000 A 
ATOM     16  C   UNL     1       5.453  -6.125  23.785  0.00  0.00    +0.000 A 
ATOM     17  C   UNL     1       6.669  -5.448  23.891  0.00  0.00    +0.000 A 
ATOM     18  C   UNL     1       7.104  -5.091  25.174  0.00  0.00    +0.000 A 
ATOM     19  C   UNL     1       6.288  -5.295  26.309  0.00  0.00    +0.000 A 
BRANCH  14  21
ATOM     20  C   UNL     1       4.852  -6.859  28.379  0.00  0.00    +0.000 C 
ATOM     21  O   UNL     1       4.252  -6.325  27.204  0.00  0.00    +0.000 OA
ENDBRANCH  14  21
BRANCH  17  22
ATOM     22  O   UNL     1       7.470  -5.171  22.824  0.00  0.00    +0.000 OA
ATOM     23  C   UNL     1       7.104  -5.692  21.551  0.00  0.00    +0.000 C 
ENDBRANCH  17  22
ENDBRANCH   1  18
TORSDOF 5
ENDMDL
MODEL 2
REMARK VINA RESULT:      -6.6      3.972      7.809
REMARK  Name = 
REMARK  7 active torsions:
REMARK  status: ('A' for Active; 'I' for Inactive)
REMARK    1  A    between atoms: C_1  and  O_2
REMARK    2  A    between atoms: O_2  and  C_3
REMARK    3  A    between atoms: C_6  and  O_7
REMARK    4  A    between atoms: O_7  and  C_8
REMARK    5  A    between atoms: C_9  and  S_10
REMARK    6  A    between atoms: S_10  and  N_13
REMARK    7  A    between atoms: C_17  and  C_19
REMARK                            x       y       z     vdW  Elec       q    Type
REMARK                         _______ _______ _______ _____ _____    ______ ____
ROOT
ATOM      1  S   UNL     1       8.813   0.068  21.392  0.00  0.00    +0.000 S 
ATOM      2  O   UNL     1      10.111  -0.574  21.473  0.00  0.00    +0.000 OA
ATOM      3  O   UNL     1       8.148   0.191  20.116  0.00  0.00    +0.000 OA
ENDROOT
BRANCH   1   4
ATOM      4  N   UNL     1       7.781  -0.784  22.456  0.00  0.00    +0.000 NA
ATOM      5  C   UNL     1       8.328  -1.159  23.784  0.00  0.00    +0.000 C 
ATOM      6  C   UNL     1       8.590  -2.666  23.819  0.00  0.00    +0.000 C 
ATOM      7  N   UNL     1       7.366  -3.450  23.561  0.00  0.00    +0.000 N 
ATOM      8  C   UNL     1       7.459  -4.835  23.651  0.00  0.00    +0.000 C 
ATOM      9  O   UNL     1       8.551  -5.385  23.810  0.00  0.00    +0.000 OA
ATOM     10  C   UNL     1       6.237  -2.717  22.967  0.00  0.00    +0.000 C 
ATOM     11  C   UNL     1       6.734  -1.703  21.924  0.00  0.00    +0.000 C 
BRANCH   8  12
ATOM     12  C   UNL     1       6.158  -5.616  23.539  0.00  0.00    +0.000 C 
ATOM     13 CL   UNL     1       5.877  -6.145  21.867  0.00  0.00    +0.000 Cl
ENDBRANCH   8  12
ENDBRANCH   1   4
BRANCH   1  18
ATOM     14  C   UNL     1      10.579   3.196  23.175  0.00  0.00    +0.000 A 
ATOM     15  C   UNL     1       9.515   3.823  23.818  0.00  0.00    +0.000 A 
ATOM     16  C   UNL     1       8.193   3.427  23.580  0.00  0.00    +0.000 A 
ATOM     17  C   UNL     1       7.907   2.352  22.737  0.00  0.00    +0.000 A 
ATOM     18  C   UNL     1       8.989   1.668  22.166  0.00  0.00    +0.000 A 
ATOM     19  C   UNL     1      10.316   2.123  22.335  0.00  0.00    +0.000 A 
BRANCH  14  21
ATOM     20  C   UNL     1      12.035   5.068  23.399  0.00  0.00    +0.000 C 
ATOM     21  O   UNL     1      11.814   3.666  23.511  0.00  0.00    +0.000 OA
ENDBRANCH  14  21
BRANCH  17  22
ATOM     22  O   UNL     1       6.644   1.906  22.490  0.00  0.00    +0.000 OA
ATOM     23  C   UNL     1       5.874   2.576  21.498  0.00  0.00    +0.000 C 
ENDBRANCH  17  22
ENDBRANCH   1  18
TORSDOF 5
ENDMDL
MODEL 3
REMARK VINA RESULT:      -6.5      3.249      6.836
REMARK  Name = 
REMARK  7 active torsions:
REMARK  status: ('A' for Active; 'I' for Inactive)
REMARK    1  A    between atoms: C_1  and  O_2
REMARK    2  A    between atoms: O_2  and  C_3
REMARK    3  A    between atoms: C_6  and  O_7
REMARK    4  A    between atoms: O_7  and  C_8
REMARK    5  A    between atoms: C_9  and  S_10
REMARK    6  A    between atoms: S_10  and  N_13
REMARK    7  A    between atoms: C_17  and  C_19
REMARK                            x       y       z     vdW  Elec       q    Type
REMARK                         _______ _______ _______ _____ _____    ______ ____
ROOT
ATOM      1  S   UNL     1       7.985   1.563  24.073  0.00  0.00    +0.000 S 
ATOM      2  O   UNL     1       6.955   2.565  24.271  0.00  0.00    +0.000 OA
ATOM      3  O   UNL     1       9.329   1.808  24.540  0.00  0.00    +0.000 OA
ENDROOT
BRANCH   1   4
ATOM      4  N   UNL     1       7.414   0.129  24.809  0.00  0.00    +0.000 NA
ATOM      5  C   UNL     1       8.205  -0.422  25.937  0.00  0.00    +0.000 C 
ATOM      6  C   UNL     1       8.938  -1.684  25.476  0.00  0.00    +0.000 C 
ATOM      7  N   UNL     1       8.008  -2.720  24.986  0.00  0.00    +0.000 N 
ATOM      8  C   UNL     1       8.549  -3.947  24.618  0.00  0.00    +0.000 C 
ATOM      9  O   UNL     1       9.771  -4.112  24.580  0.00  0.00    +0.000 OA
ATOM     10  C   UNL     1       6.642  -2.273  24.673  0.00  0.00    +0.000 C 
ATOM     11  C   UNL     1       6.662  -0.884  24.014  0.00  0.00    +0.000 C 
BRANCH   8  12
ATOM     12  C   UNL     1       7.564  -5.052  24.266  0.00  0.00    +0.000 C 
ATOM     13 CL   UNL     1       7.455  -5.271  22.507  0.00  0.00    +0.000 Cl
ENDBRANCH   8  12
ENDBRANCH   1   4
BRANCH   1  18
ATOM     14  C   UNL     1       6.637   1.190  20.315  0.00  0.00    +0.000 A 
ATOM     15  C   UNL     1       7.494   0.234  19.775  0.00  0.00    +0.000 A 
ATOM     16  C   UNL     1       8.630  -0.193  20.474  0.00  0.00    +0.000 A 
ATOM     17  C   UNL     1       8.903   0.280  21.759  0.00  0.00    +0.000 A 
ATOM     18  C   UNL     1       7.986   1.172  22.330  0.00  0.00    +0.000 A 
ATOM     19  C   UNL     1       6.890   1.672  21.592  0.00  0.00    +0.000 A 
BRANCH  14  21
ATOM     20  C   UNL     1       5.544   1.002  18.207  0.00  0.00    +0.000 C 
ATOM     21  O   UNL     1       5.561   1.503  19.540  0.00  0.00    +0.000 OA
ENDBRANCH  14  21
BRANCH  17  22
ATOM     22  O   UNL     1       9.976  -0.120  22.495  0.00  0.00    +0.000 OA
ATOM     23  C   UNL     1      10.446  -1.455  22.333  0.00  0.00    +0.000 C 
ENDBRANCH  17  22
ENDBRANCH   1  18
TORSDOF 5
ENDMDL
MODEL 4
REMARK VINA RESULT:      -6.5      3.485      7.093
REMARK  Name = 
REMARK  7 active torsions:
REMARK  status: ('A' for Active; 'I' for Inactive)
REMARK    1  A    between atoms: C_1  and  O_2
REMARK    2  A    between atoms: O_2  and  C_3
REMARK    3  A    between atoms: C_6  and  O_7
REMARK    4  A    between atoms: O_7  and  C_8
REMARK    5  A    between atoms: C_9  and  S_10
REMARK    6  A    between atoms: S_10  and  N_13
REMARK    7  A    between atoms: C_17  and  C_19
REMARK                            x       y       z     vdW  Elec       q    Type
REMARK                         _______ _______ _______ _____ _____    ______ ____
ROOT
ATOM      1  S   UNL     1       8.527  -2.832  23.326  0.00  0.00    +0.000 S 
ATOM      2  O   UNL     1       9.917  -3.097  23.647  0.00  0.00    +0.000 OA
ATOM      3  O   UNL     1       7.778  -3.775  22.530  0.00  0.00    +0.000 OA
ENDROOT
BRANCH   1   4
ATOM      4  N   UNL     1       7.716  -2.626  24.818  0.00  0.00    +0.000 NA
ATOM      5  C   UNL     1       8.530  -2.708  26.056  0.00  0.00    +0.000 C 
ATOM      6  C   UNL     1       8.225  -4.022  26.778  0.00  0.00    +0.000 C 
ATOM      7  N   UNL     1       6.796  -4.146  27.129  0.00  0.00    +0.000 N 
ATOM      8  C   UNL     1       6.410  -5.261  27.866  0.00  0.00    +0.000 C 
ATOM      9  O   UNL     1       7.209  -6.171  28.098  0.00  0.00    +0.000 OA
ATOM     10  C   UNL     1       5.875  -3.230  26.439  0.00  0.00    +0.000 C 
ATOM     11  C   UNL     1       6.292  -3.042  24.971  0.00  0.00    +0.000 C 
BRANCH   8  12
ATOM     12  C   UNL     1       4.969  -5.293  28.352  0.00  0.00    +0.000 C 
ATOM     13 CL   UNL     1       4.866  -4.838  30.066  0.00  0.00    +0.000 Cl
ENDBRANCH   8  12
ENDBRANCH   1   4
BRANCH   1  18
ATOM     14  C   UNL     1       7.502   0.108  20.800  0.00  0.00    +0.000 A 
ATOM     15  C   UNL     1       8.552   1.013  20.940  0.00  0.00    +0.000 A 
ATOM     16  C   UNL     1       9.514   0.852  21.945  0.00  0.00    +0.000 A 
ATOM     17  C   UNL     1       9.483  -0.253  22.798  0.00  0.00    +0.000 A 
ATOM     18  C   UNL     1       8.476  -1.206  22.590  0.00  0.00    +0.000 A 
ATOM     19  C   UNL     1       7.455  -0.999  21.636  0.00  0.00    +0.000 A 
BRANCH  14  21
ATOM     20  C   UNL     1       5.873  -0.712  19.268  0.00  0.00    +0.000 C 
ATOM     21  O   UNL     1       6.648   0.371  19.771  0.00  0.00    +0.000 OA
ENDBRANCH  14  21
BRANCH  17  22
ATOM     22  O   UNL     1      10.406  -0.475  23.774  0.00  0.00    +0.000 OA
ATOM     23  C   UNL     1      10.425   0.400  24.897  0.00  0.00    +0.000 C 
ENDBRANCH  17  22
ENDBRANCH   1  18
TORSDOF 5
ENDMDL
MODEL 5
REMARK VINA RESULT:      -6.4      3.441      6.922
REMARK  Name = 
REMARK  7 active torsions:
REMARK  status: ('A' for Active; 'I' for Inactive)
REMARK    1  A    between atoms: C_1  and  O_2
REMARK    2  A    between atoms: O_2  and  C_3
REMARK    3  A    between atoms: C_6  and  O_7
REMARK    4  A    between atoms: O_7  and  C_8
REMARK    5  A    between atoms: C_9  and  S_10
REMARK    6  A    between atoms: S_10  and  N_13
REMARK    7  A    between atoms: C_17  and  C_19
REMARK                            x       y       z     vdW  Elec       q    Type
REMARK                         _______ _______ _______ _____ _____    ______ ____
ROOT
ATOM      1  S   UNL     1       6.870  -3.093  22.690  0.00  0.00    +0.000 S 
ATOM      2  O   UNL     1       7.300  -4.284  21.983  0.00  0.00    +0.000 OA
ATOM      3  O   UNL     1       5.480  -2.706  22.671  0.00  0.00    +0.000 OA
ENDROOT
BRANCH   1   4
ATOM      4  N   UNL     1       7.349  -3.296  24.319  0.00  0.00    +0.000 NA
ATOM      5  C   UNL     1       8.130  -4.512  24.655  0.00  0.00    +0.000 C 
ATOM      6  C   UNL     1       7.246  -5.484  25.440  0.00  0.00    +0.000 C 
ATOM      7  N   UNL     1       6.728  -4.882  26.685  0.00  0.00    +0.000 N 
ATOM      8  C   UNL     1       5.980  -5.696  27.528  0.00  0.00    +0.000 C 
ATOM      9  O   UNL     1       5.654  -6.834  27.182  0.00  0.00    +0.000 OA
ATOM     10  C   UNL     1       6.816  -3.417  26.785  0.00  0.00    +0.000 C 
ATOM     11  C   UNL     1       6.511  -2.760  25.429  0.00  0.00    +0.000 C 
BRANCH   8  12
ATOM     12  C   UNL     1       5.588  -5.108  28.876  0.00  0.00    +0.000 C 
ATOM     13 CL   UNL     1       5.934  -6.249  30.193  0.00  0.00    +0.000 Cl
ENDBRANCH   8  12
ENDBRANCH   1   4
BRANCH   1  18
ATOM     14  C   UNL     1       9.782  -0.337  22.686  0.00  0.00    +0.000 A 
ATOM     15  C   UNL     1       9.338   0.578  21.735  0.00  0.00    +0.000 A 
ATOM     16  C   UNL     1       8.231   0.296  20.925  0.00  0.00    +0.000 A 
ATOM     17  C   UNL     1       7.504  -0.884  21.088  0.00  0.00    +0.000 A 
ATOM     18  C   UNL     1       7.904  -1.757  22.109  0.00  0.00    +0.000 A 
ATOM     19  C   UNL     1       9.072  -1.515  22.866  0.00  0.00    +0.000 A 
BRANCH  14  21
ATOM     20  C   UNL     1      10.598   0.736  24.650  0.00  0.00    +0.000 C 
ATOM     21  O   UNL     1      10.857   0.070  23.419  0.00  0.00    +0.000 OA
ENDBRANCH  14  21
BRANCH  17  22
ATOM     22  O   UNL     1       6.404  -1.198  20.348  0.00  0.00    +0.000 OA
ATOM     23  C   UNL     1       6.047  -0.338  19.272  0.00  0.00    +0.000 C 
ENDBRANCH  17  22
ENDBRANCH   1  18
TORSDOF 5
ENDMDL
MODEL 6
REMARK VINA RESULT:      -6.4      3.285      6.764
REMARK  Name = 
REMARK  7 active torsions:
REMARK  status: ('A' for Active; 'I' for Inactive)
REMARK    1  A    between atoms: C_1  and  O_2
REMARK    2  A    between atoms: O_2  and  C_3
REMARK    3  A    between atoms: C_6  and  O_7
REMARK    4  A    between atoms: O_7  and  C_8
REMARK    5  A    between atoms: C_9  and  S_10
REMARK    6  A    between atoms: S_10  and  N_13
REMARK    7  A    between atoms: C_17  and  C_19
REMARK                            x       y       z     vdW  Elec       q    Type
REMARK                         _______ _______ _______ _____ _____    ______ ____
ROOT
ATOM      1  S   UNL     1       9.531  -1.619  23.710  0.00  0.00    +0.000 S 
ATOM      2  O   UNL     1      10.090  -0.821  24.785  0.00  0.00    +0.000 OA
ATOM      3  O   UNL     1      10.402  -2.390  22.855  0.00  0.00    +0.000 OA
ENDROOT
BRANCH   1   4
ATOM      4  N   UNL     1       8.407  -2.686  24.433  0.00  0.00    +0.000 NA
ATOM      5  C   UNL     1       8.848  -4.083  24.673  0.00  0.00    +0.000 C 
ATOM      6  C   UNL     1       8.153  -5.014  23.676  0.00  0.00    +0.000 C 
ATOM      7  N   UNL     1       6.683  -4.945  23.783  0.00  0.00    +0.000 N 
ATOM      8  C   UNL     1       5.940  -5.810  22.985  0.00  0.00    +0.000 C 
ATOM      9  O   UNL     1       6.489  -6.509  22.130  0.00  0.00    +0.000 OA
ATOM     10  C   UNL     1       6.136  -3.790  24.511  0.00  0.00    +0.000 C 
ATOM     11  C   UNL     1       6.944  -2.519  24.200  0.00  0.00    +0.000 C 
BRANCH   8  12
ATOM     12  C   UNL     1       4.437  -5.837  23.221  0.00  0.00    +0.000 C 
ATOM     13 CL   UNL     1       4.005  -7.063  24.431  0.00  0.00    +0.000 Cl
ENDBRANCH   8  12
ENDBRANCH   1   4
BRANCH   1  18
ATOM     14  C   UNL     1       7.917   0.125  20.480  0.00  0.00    +0.000 A 
ATOM     15  C   UNL     1       7.454   1.338  20.985  0.00  0.00    +0.000 A 
ATOM     16  C   UNL     1       7.447   1.590  22.363  0.00  0.00    +0.000 A 
ATOM     17  C   UNL     1       7.961   0.657  23.266  0.00  0.00    +0.000 A 
ATOM     18  C   UNL     1       8.508  -0.522  22.741  0.00  0.00    +0.000 A 
ATOM     19  C   UNL     1       8.433  -0.815  21.361  0.00  0.00    +0.000 A 
BRANCH  14  21
ATOM     20  C   UNL     1       6.694   0.425  18.458  0.00  0.00    +0.000 C 
ATOM     21  O   UNL     1       7.886   0.016  19.122  0.00  0.00    +0.000 OA
ENDBRANCH  14  21
BRANCH  17  22
ATOM     22  O   UNL     1       8.004   0.859  24.612  0.00  0.00    +0.000 OA
ATOM     23  C   UNL     1       8.234   2.181  25.089  0.00  0.00    +0.000 C 
ENDBRANCH  17  22
ENDBRANCH   1  18
TORSDOF 5
ENDMDL
MODEL 7
REMARK VINA RESULT:      -6.3      2.137      3.598
REMARK  Name = 
REMARK  7 active torsions:
REMARK  status: ('A' for Active; 'I' for Inactive)
REMARK    1  A    between atoms: C_1  and  O_2
REMARK    2  A    between atoms: O_2  and  C_3
REMARK    3  A    between atoms: C_6  and  O_7
REMARK    4  A    between atoms: O_7  and  C_8
REMARK    5  A    between atoms: C_9  and  S_10
REMARK    6  A    between atoms: S_10  and  N_13
REMARK    7  A    between atoms: C_17  and  C_19
REMARK                            x       y       z     vdW  Elec       q    Type
REMARK                         _______ _______ _______ _____ _____    ______ ____
ROOT
ATOM      1  S   UNL     1       8.839  -3.948  25.192  0.00  0.00    +0.000 S 
ATOM      2  O   UNL     1      10.020  -4.702  24.818  0.00  0.00    +0.000 OA
ATOM      3  O   UNL     1       8.761  -3.326  26.492  0.00  0.00    +0.000 OA
ENDROOT
BRANCH   1   4
ATOM      4  N   UNL     1       8.642  -2.734  24.004  0.00  0.00    +0.000 NA
ATOM      5  C   UNL     1       9.872  -2.166  23.398  0.00  0.00    +0.000 C 
ATOM      6  C   UNL     1      10.090  -0.746  23.926  0.00  0.00    +0.000 C 
ATOM      7  N   UNL     1       8.948   0.141  23.626  0.00  0.00    +0.000 N 
ATOM      8  C   UNL     1       9.065   1.481  23.981  0.00  0.00    +0.000 C 
ATOM      9  O   UNL     1      10.030   1.877  24.639  0.00  0.00    +0.000 OA
ATOM     10  C   UNL     1       7.695  -0.522  23.233  0.00  0.00    +0.000 C 
ATOM     11  C   UNL     1       7.478  -1.804  24.053  0.00  0.00    +0.000 C 
BRANCH   8  12
ATOM     12  C   UNL     1       7.949   2.409  23.525  0.00  0.00    +0.000 C 
ATOM     13 CL   UNL     1       8.015   2.667  21.769  0.00  0.00    +0.000 Cl
ENDBRANCH   8  12
ENDBRANCH   1   4
BRANCH   1  18
ATOM     14  C   UNL     1       5.864  -5.823  23.266  0.00  0.00    +0.000 A 
ATOM     15  C   UNL     1       5.011  -6.192  24.303  0.00  0.00    +0.000 A 
ATOM     16  C   UNL     1       5.399  -6.050  25.641  0.00  0.00    +0.000 A 
ATOM     17  C   UNL     1       6.628  -5.479  25.976  0.00  0.00    +0.000 A 
ATOM     18  C   UNL     1       7.441  -5.027  24.927  0.00  0.00    +0.000 A 
ATOM     19  C   UNL     1       7.089  -5.251  23.577  0.00  0.00    +0.000 A 
BRANCH  14  21
ATOM     20  C   UNL     1       6.194  -5.659  20.913  0.00  0.00    +0.000 C 
ATOM     21  O   UNL     1       5.356  -5.996  22.013  0.00  0.00    +0.000 OA
ENDBRANCH  14  21
BRANCH  17  22
ATOM     22  O   UNL     1       7.046  -5.292  27.258  0.00  0.00    +0.000 OA
ATOM     23  C   UNL     1       6.322  -5.931  28.304  0.00  0.00    +0.000 C 
ENDBRANCH  17  22
ENDBRANCH   1  18
TORSDOF 5
ENDMDL
MODEL 8
REMARK VINA RESULT:      -6.3      1.724      3.155
REMARK  Name = 
REMARK  7 active torsions:
REMARK  status: ('A' for Active; 'I' for Inactive)
REMARK    1  A    between atoms: C_1  and  O_2
REMARK    2  A    between atoms: O_2  and  C_3
REMARK    3  A    between atoms: C_6  and  O_7
REMARK    4  A    between atoms: O_7  and  C_8
REMARK    5  A    between atoms: C_9  and  S_10
REMARK    6  A    between atoms: S_10  and  N_13
REMARK    7  A    between atoms: C_17  and  C_19
REMARK                            x       y       z     vdW  Elec       q    Type
REMARK                         _______ _______ _______ _____ _____    ______ ____
ROOT
ATOM      1  S   UNL     1       8.744  -4.311  25.518  0.00  0.00    +0.000 S 
ATOM      2  O   UNL     1       9.482  -5.306  24.764  0.00  0.00    +0.000 OA
ATOM      3  O   UNL     1       8.745  -4.351  26.961  0.00  0.00    +0.000 OA
ENDROOT
BRANCH   1   4
ATOM      4  N   UNL     1       9.341  -2.787  25.023  0.00  0.00    +0.000 NA
ATOM      5  C   UNL     1       8.786  -1.585  25.692  0.00  0.00    +0.000 C 
ATOM      6  C   UNL     1       7.859  -0.846  24.723  0.00  0.00    +0.000 C 
ATOM      7  N   UNL     1       8.559  -0.433  23.491  0.00  0.00    +0.000 N 
ATOM      8  C   UNL     1       7.843   0.323  22.568  0.00  0.00    +0.000 C 
ATOM      9  O   UNL     1       6.635   0.524  22.718  0.00  0.00    +0.000 OA
ATOM     10  C   UNL     1       9.851  -1.085  23.225  0.00  0.00    +0.000 C 
ATOM     11  C   UNL     1       9.801  -2.570  23.621  0.00  0.00    +0.000 C 
BRANCH   8  12
ATOM     12  C   UNL     1       8.622   0.871  21.382  0.00  0.00    +0.000 C 
ATOM     13 CL   UNL     1       7.990   0.226  19.853  0.00  0.00    +0.000 Cl
ENDBRANCH   8  12
ENDBRANCH   1   4
BRANCH   1  18
ATOM     14  C   UNL     1       5.737  -4.469  22.869  0.00  0.00    +0.000 A 
ATOM     15  C   UNL     1       4.678  -3.901  23.573  0.00  0.00    +0.000 A 
ATOM     16  C   UNL     1       4.789  -3.621  24.941  0.00  0.00    +0.000 A 
ATOM     17  C   UNL     1       5.984  -3.847  25.626  0.00  0.00    +0.000 A 
ATOM     18  C   UNL     1       7.072  -4.333  24.889  0.00  0.00    +0.000 A 
ATOM     19  C   UNL     1       6.935  -4.699  23.531  0.00  0.00    +0.000 A 
BRANCH  14  21
ATOM     20  C   UNL     1       6.211  -5.732  20.907  0.00  0.00    +0.000 C 
ATOM     21  O   UNL     1       5.504  -4.672  21.542  0.00  0.00    +0.000 OA
ENDBRANCH  14  21
BRANCH  17  22
ATOM     22  O   UNL     1       6.157  -3.570  26.948  0.00  0.00    +0.000 OA
ATOM     23  C   UNL     1       5.175  -4.033  27.869  0.00  0.00    +0.000 C 
ENDBRANCH  17  22
ENDBRANCH   1  18
TORSDOF 5
ENDMDL
MODEL 9
REMARK VINA RESULT:      -6.3      2.137      2.535
REMARK  Name = 
REMARK  7 active torsions:
REMARK  status: ('A' for Active; 'I' for Inactive)
REMARK    1  A    between atoms: C_1  and  O_2
REMARK    2  A    between atoms: O_2  and  C_3
REMARK    3  A    between atoms: C_6  and  O_7
REMARK    4  A    between atoms: O_7  and  C_8
REMARK    5  A    between atoms: C_9  and  S_10
REMARK    6  A    between atoms: S_10  and  N_13
REMARK    7  A    between atoms: C_17  and  C_19
REMARK                            x       y       z     vdW  Elec       q    Type
REMARK                         _______ _______ _______ _____ _____    ______ ____
ROOT
ATOM      1  S   UNL     1       8.330  -4.390  25.214  0.00  0.00    +0.000 S 
ATOM      2  O   UNL     1       9.186  -5.207  24.376  0.00  0.00    +0.000 OA
ATOM      3  O   UNL     1       8.734  -4.069  26.563  0.00  0.00    +0.000 OA
ENDROOT
BRANCH   1   4
ATOM      4  N   UNL     1       8.075  -2.927  24.367  0.00  0.00    +0.000 NA
ATOM      5  C   UNL     1       9.020  -2.599  23.270  0.00  0.00    +0.000 C 
ATOM      6  C   UNL     1       9.941  -1.461  23.716  0.00  0.00    +0.000 C 
ATOM      7  N   UNL     1       9.187  -0.247  24.084  0.00  0.00    +0.000 N 
ATOM      8  C   UNL     1       9.920   0.885  24.425  0.00  0.00    +0.000 C 
ATOM      9  O   UNL     1      11.146   0.832  24.542  0.00  0.00    +0.000 OA
ATOM     10  C   UNL     1       7.746  -0.422  24.322  0.00  0.00    +0.000 C 
ATOM     11  C   UNL     1       7.473  -1.748  25.052  0.00  0.00    +0.000 C 
BRANCH   8  12
ATOM     12  C   UNL     1       9.132   2.168  24.648  0.00  0.00    +0.000 C 
ATOM     13 CL   UNL     1       8.852   3.017  23.114  0.00  0.00    +0.000 Cl
ENDBRANCH   8  12
ENDBRANCH   1   4
BRANCH   1  18
ATOM     14  C   UNL     1       5.142  -6.420  26.555  0.00  0.00    +0.000 A 
ATOM     15  C   UNL     1       4.543  -6.863  25.378  0.00  0.00    +0.000 A 
ATOM     16  C   UNL     1       4.980  -6.403  24.129  0.00  0.00    +0.000 A 
ATOM     17  C   UNL     1       6.068  -5.535  24.024  0.00  0.00    +0.000 A 
ATOM     18  C   UNL     1       6.722  -5.167  25.208  0.00  0.00    +0.000 A 
ATOM     19  C   UNL     1       6.227  -5.558  26.472  0.00  0.00    +0.000 A 
BRANCH  14  21
ATOM     20  C   UNL     1       3.336  -6.535  28.104  0.00  0.00    +0.000 C 
ATOM     21  O   UNL     1       4.634  -6.959  27.699  0.00  0.00    +0.000 OA
ENDBRANCH  14  21
BRANCH  17  22
ATOM     22  O   UNL     1       6.552  -5.077  22.836  0.00  0.00    +0.000 OA
ATOM     23  C   UNL     1       6.389  -5.893  21.681  0.00  0.00    +0.000 C 
ENDBRANCH  17  22
ENDBRANCH   1  18
TORSDOF 5
ENDMDL
