MODEL 1
REMARK VINA RESULT:      -6.7      0.000      0.000
REMARK  Name = 
REMARK  6 active torsions:
REMARK  status: ('A' for Active; 'I' for Inactive)
REMARK    1  A    between atoms: C_2  and  C_3
REMARK    2  A    between atoms: C_2  and  N_5
REMARK    3  A    between atoms: N_8  and  S_9
REMARK    4  A    between atoms: S_9  and  C_12
REMARK    5  A    between atoms: C_12  and  C_13
REMARK    6  A    between atoms: C_13  and  C_14
REMARK                            x       y       z     vdW  Elec       q    Type
REMARK                         _______ _______ _______ _____ _____    ______ ____
ROOT
ATOM      1  S   UNL     1       9.795  -1.296  23.301  0.00  0.00    +0.000 S 
ATOM      2  O   UNL     1      10.340  -2.611  23.441  0.00  0.00    +0.000 OA
ATOM      3  O   UNL     1      10.619  -0.154  23.572  0.00  0.00    +0.000 OA
ENDROOT
BRANCH   1   7
ATOM      4  N   UNL     1       7.314  -3.573  24.159  0.00  0.00    +0.000 NA
ATOM      5  C   UNL     1       6.702  -2.548  23.338  0.00  0.00    +0.000 C 
ATOM      6  C   UNL     1       7.188  -1.159  23.800  0.00  0.00    +0.000 C 
ATOM      7  N   UNL     1       8.507  -1.211  24.364  0.00  0.00    +0.000 NA
ATOM      8  C   UNL     1       8.618  -2.020  25.556  0.00  0.00    +0.000 C 
ATOM      9  C   UNL     1       7.605  -3.178  25.523  0.00  0.00    +0.000 C 
BRANCH   4  11
ATOM     10  O   UNL     1       8.678  -5.355  24.006  0.00  0.00    +0.000 OA
ATOM     11  C   UNL     1       7.610  -4.827  23.761  0.00  0.00    +0.000 C 
BRANCH  11  12
ATOM     12  C   UNL     1       6.539  -5.592  22.998  0.00  0.00    +0.000 C 
ATOM     13 CL   UNL     1       7.012  -5.814  21.296  0.00  0.00    +0.000 Cl
ENDBRANCH  11  12
ENDBRANCH   4  11
ENDBRANCH   1   7
BRANCH   1  14
ATOM     14  C   UNL     1       9.154  -1.170  21.638  0.00  0.00    +0.000 C 
BRANCH  14  15
ATOM     15  C   UNL     1       8.924   0.034  21.133  0.00  0.00    +0.000 C 
BRANCH  15  16
ATOM     16  C   UNL     1       7.744   0.483  20.409  0.00  0.00    +0.000 C 
ATOM     17  C   UNL     1       7.562   0.055  19.091  0.00  0.00    +0.000 C 
ATOM     18  C   UNL     1       6.455   0.454  18.366  0.00  0.00    +0.000 C 
ATOM     19  C   UNL     1       5.512   1.288  18.943  0.00  0.00    +0.000 C 
ATOM     20  C   UNL     1       5.681   1.722  20.249  0.00  0.00    +0.000 C 
ATOM     21  C   UNL     1       6.785   1.326  20.979  0.00  0.00    +0.000 C 
ENDBRANCH  15  16
ENDBRANCH  14  15
ENDBRANCH   1  14
TORSDOF 6
ENDMDL
MODEL 2
REMARK VINA RESULT:      -6.5      1.993      2.164
REMARK  Name = 
REMARK  6 active torsions:
REMARK  status: ('A' for Active; 'I' for Inactive)
REMARK    1  A    between atoms: C_2  and  C_3
REMARK    2  A    between atoms: C_2  and  N_5
REMARK    3  A    between atoms: N_8  and  S_9
REMARK    4  A    between atoms: S_9  and  C_12
REMARK    5  A    between atoms: C_12  and  C_13
REMARK    6  A    between atoms: C_13  and  C_14
REMARK                            x       y       z     vdW  Elec       q    Type
REMARK                         _______ _______ _______ _____ _____    ______ ____
ROOT
ATOM      1  S   UNL     1       9.116  -2.055  23.077  0.00  0.00    +0.000 S 
ATOM      2  O   UNL     1       8.034  -2.633  22.341  0.00  0.00    +0.000 OA
ATOM      3  O   UNL     1      10.011  -2.904  23.808  0.00  0.00    +0.000 OA
ENDROOT
BRANCH   1   7
ATOM      4  N   UNL     1       7.638  -2.625  26.171  0.00  0.00    +0.000 NA
ATOM      5  C   UNL     1       6.580  -2.316  25.230  0.00  0.00    +0.000 C 
ATOM      6  C   UNL     1       6.995  -1.107  24.367  0.00  0.00    +0.000 C 
ATOM      7  N   UNL     1       8.419  -1.029  24.198  0.00  0.00    +0.000 NA
ATOM      8  C   UNL     1       9.159  -0.838  25.425  0.00  0.00    +0.000 C 
ATOM      9  C   UNL     1       8.425  -1.489  26.609  0.00  0.00    +0.000 C 
BRANCH   4  11
ATOM     10  O   UNL     1       9.052  -4.309  26.649  0.00  0.00    +0.000 OA
ATOM     11  C   UNL     1       7.925  -3.850  26.656  0.00  0.00    +0.000 C 
BRANCH  11  12
ATOM     12  C   UNL     1       6.779  -4.654  27.252  0.00  0.00    +0.000 C 
ATOM     13 CL   UNL     1       6.163  -5.842  26.076  0.00  0.00    +0.000 Cl
ENDBRANCH  11  12
ENDBRANCH   4  11
ENDBRANCH   1   7
BRANCH   1  14
ATOM     14  C   UNL     1      10.060  -1.066  21.927  0.00  0.00    +0.000 C 
BRANCH  14  15
ATOM     15  C   UNL     1       9.646   0.164  21.656  0.00  0.00    +0.000 C 
BRANCH  15  16
ATOM     16  C   UNL     1       8.399   0.563  21.020  0.00  0.00    +0.000 C 
ATOM     17  C   UNL     1       8.047  -0.027  19.805  0.00  0.00    +0.000 C 
ATOM     18  C   UNL     1       6.870   0.318  19.166  0.00  0.00    +0.000 C 
ATOM     19  C   UNL     1       6.027   1.261  19.730  0.00  0.00    +0.000 C 
ATOM     20  C   UNL     1       6.366   1.857  20.936  0.00  0.00    +0.000 C 
ATOM     21  C   UNL     1       7.540   1.515  21.579  0.00  0.00    +0.000 C 
ENDBRANCH  15  16
ENDBRANCH  14  15
ENDBRANCH   1  14
TORSDOF 6
ENDMDL
MODEL 3
REMARK VINA RESULT:      -6.4      1.917      2.618
REMARK  Name = 
REMARK  6 active torsions:
REMARK  status: ('A' for Active; 'I' for Inactive)
REMARK    1  A    between atoms: C_2  and  C_3
REMARK    2  A    between atoms: C_2  and  N_5
REMARK    3  A    between atoms: N_8  and  S_9
REMARK    4  A    between atoms: S_9  and  C_12
REMARK    5  A    between atoms: C_12  and  C_13
REMARK    6  A    between atoms: C_13  and  C_14
REMARK                            x       y       z     vdW  Elec       q    Type
REMARK                         _______ _______ _______ _____ _____    ______ ____
ROOT
ATOM      1  S   UNL     1       9.451  -1.991  23.665  0.00  0.00    +0.000 S 
ATOM      2  O   UNL     1      10.195  -3.180  23.948  0.00  0.00    +0.000 OA
ATOM      3  O   UNL     1       9.284  -0.998  24.687  0.00  0.00    +0.000 OA
ENDROOT
BRANCH   1   7
ATOM      4  N   UNL     1       7.162  -4.087  25.229  0.00  0.00    +0.000 NA
ATOM      5  C   UNL     1       7.709  -4.804  24.095  0.00  0.00    +0.000 C 
ATOM      6  C   UNL     1       7.751  -3.871  22.867  0.00  0.00    +0.000 C 
ATOM      7  N   UNL     1       7.914  -2.495  23.243  0.00  0.00    +0.000 NA
ATOM      8  C   UNL     1       6.833  -1.958  24.037  0.00  0.00    +0.000 C 
ATOM      9  C   UNL     1       6.194  -3.059  24.901  0.00  0.00    +0.000 C 
BRANCH   4  11
ATOM     10  O   UNL     1       8.617  -4.297  26.931  0.00  0.00    +0.000 OA
ATOM     11  C   UNL     1       7.472  -4.309  26.522  0.00  0.00    +0.000 C 
BRANCH  11  12
ATOM     12  C   UNL     1       6.321  -4.555  27.487  0.00  0.00    +0.000 C 
ATOM     13 CL   UNL     1       5.563  -6.135  27.175  0.00  0.00    +0.000 Cl
ENDBRANCH  11  12
ENDBRANCH   4  11
ENDBRANCH   1   7
BRANCH   1  14
ATOM     14  C   UNL     1      10.203  -1.232  22.234  0.00  0.00    +0.000 C 
BRANCH  14  15
ATOM     15  C   UNL     1       9.844   0.001  21.904  0.00  0.00    +0.000 C 
BRANCH  15  16
ATOM     16  C   UNL     1       8.617   0.424  21.245  0.00  0.00    +0.000 C 
ATOM     17  C   UNL     1       7.836   1.411  21.851  0.00  0.00    +0.000 C 
ATOM     18  C   UNL     1       6.665   1.846  21.260  0.00  0.00    +0.000 C 
ATOM     19  C   UNL     1       6.252   1.301  20.055  0.00  0.00    +0.000 C 
ATOM     20  C   UNL     1       7.017   0.319  19.444  0.00  0.00    +0.000 C 
ATOM     21  C   UNL     1       8.190  -0.119  20.030  0.00  0.00    +0.000 C 
ENDBRANCH  15  16
ENDBRANCH  14  15
ENDBRANCH   1  14
TORSDOF 6
ENDMDL
MODEL 4
REMARK VINA RESULT:      -6.4      3.398      4.834
REMARK  Name = 
REMARK  6 active torsions:
REMARK  status: ('A' for Active; 'I' for Inactive)
REMARK    1  A    between atoms: C_2  and  C_3
REMARK    2  A    between atoms: C_2  and  N_5
REMARK    3  A    between atoms: N_8  and  S_9
REMARK    4  A    between atoms: S_9  and  C_12
REMARK    5  A    between atoms: C_12  and  C_13
REMARK    6  A    between atoms: C_13  and  C_14
REMARK                            x       y       z     vdW  Elec       q    Type
REMARK                         _______ _______ _______ _____ _____    ______ ____
ROOT
ATOM      1  S   UNL     1       9.491  -2.389  23.616  0.00  0.00    +0.000 S 
ATOM      2  O   UNL     1       9.833  -1.964  22.293  0.00  0.00    +0.000 OA
ATOM      3  O   UNL     1      10.161  -3.518  24.194  0.00  0.00    +0.000 OA
ENDROOT
BRANCH   1   7
ATOM      4  N   UNL     1       6.803  -1.018  21.892  0.00  0.00    +0.000 NA
ATOM      5  C   UNL     1       6.674  -0.632  23.282  0.00  0.00    +0.000 C 
ATOM      6  C   UNL     1       6.951  -1.853  24.184  0.00  0.00    +0.000 C 
ATOM      7  N   UNL     1       7.865  -2.776  23.573  0.00  0.00    +0.000 NA
ATOM      8  C   UNL     1       7.389  -3.366  22.343  0.00  0.00    +0.000 C 
ATOM      9  C   UNL     1       6.457  -2.395  21.599  0.00  0.00    +0.000 C 
BRANCH   4  11
ATOM     10  O   UNL     1       6.812  -0.357  19.741  0.00  0.00    +0.000 OA
ATOM     11  C   UNL     1       7.198  -0.211  20.886  0.00  0.00    +0.000 C 
BRANCH  11  12
ATOM     12  C   UNL     1       8.144   0.929  21.231  0.00  0.00    +0.000 C 
ATOM     13 CL   UNL     1       7.233   2.409  21.622  0.00  0.00    +0.000 Cl
ENDBRANCH  11  12
ENDBRANCH   4  11
ENDBRANCH   1   7
BRANCH   1  14
ATOM     14  C   UNL     1       9.700  -0.976  24.688  0.00  0.00    +0.000 C 
BRANCH  14  15
ATOM     15  C   UNL     1      10.357   0.081  24.228  0.00  0.00    +0.000 C 
BRANCH  15  16
ATOM     16  C   UNL     1       9.933   1.473  24.259  0.00  0.00    +0.000 C 
ATOM     17  C   UNL     1      10.687   2.419  23.561  0.00  0.00    +0.000 C 
ATOM     18  C   UNL     1      10.321   3.752  23.559  0.00  0.00    +0.000 C 
ATOM     19  C   UNL     1       9.197   4.163  24.257  0.00  0.00    +0.000 C 
ATOM     20  C   UNL     1       8.441   3.234  24.956  0.00  0.00    +0.000 C 
ATOM     21  C   UNL     1       8.802   1.900  24.960  0.00  0.00    +0.000 C 
ENDBRANCH  15  16
ENDBRANCH  14  15
ENDBRANCH   1  14
TORSDOF 6
ENDMDL
MODEL 5
REMARK VINA RESULT:      -6.4      3.204      4.216
REMARK  Name = 
REMARK  6 active torsions:
REMARK  status: ('A' for Active; 'I' for Inactive)
REMARK    1  A    between atoms: C_2  and  C_3
REMARK    2  A    between atoms: C_2  and  N_5
REMARK    3  A    between atoms: N_8  and  S_9
REMARK    4  A    between atoms: S_9  and  C_12
REMARK    5  A    between atoms: C_12  and  C_13
REMARK    6  A    between atoms: C_13  and  C_14
REMARK                            x       y       z     vdW  Elec       q    Type
REMARK                         _______ _______ _______ _____ _____    ______ ____
ROOT
ATOM      1  S   UNL     1       8.296  -4.007  24.224  0.00  0.00    +0.000 S 
ATOM      2  O   UNL     1       8.837  -5.322  24.068  0.00  0.00    +0.000 OA
ATOM      3  O   UNL     1       7.552  -3.681  25.406  0.00  0.00    +0.000 OA
ENDROOT
BRANCH   1   7
ATOM      4  N   UNL     1       5.296  -5.521  23.335  0.00  0.00    +0.000 NA
ATOM      5  C   UNL     1       6.316  -6.003  22.426  0.00  0.00    +0.000 C 
ATOM      6  C   UNL     1       7.185  -4.820  21.951  0.00  0.00    +0.000 C 
ATOM      7  N   UNL     1       7.257  -3.776  22.935  0.00  0.00    +0.000 NA
ATOM      8  C   UNL     1       5.988  -3.159  23.249  0.00  0.00    +0.000 C 
ATOM      9  C   UNL     1       4.838  -4.168  23.087  0.00  0.00    +0.000 C 
BRANCH   4  11
ATOM     10  O   UNL     1       4.467  -7.399  24.255  0.00  0.00    +0.000 OA
ATOM     11  C   UNL     1       4.755  -6.221  24.353  0.00  0.00    +0.000 C 
BRANCH  11  12
ATOM     12  C   UNL     1       4.532  -5.488  25.667  0.00  0.00    +0.000 C 
ATOM     13 CL   UNL     1       5.619  -6.113  26.932  0.00  0.00    +0.000 Cl
ENDBRANCH  11  12
ENDBRANCH   4  11
ENDBRANCH   1   7
BRANCH   1  14
ATOM     14  C   UNL     1       9.656  -2.861  24.057  0.00  0.00    +0.000 C 
BRANCH  14  15
ATOM     15  C   UNL     1       9.657  -2.019  23.032  0.00  0.00    +0.000 C 
BRANCH  15  16
ATOM     16  C   UNL     1       9.913  -0.586  23.059  0.00  0.00    +0.000 C 
ATOM     17  C   UNL     1       9.678   0.160  21.902  0.00  0.00    +0.000 C 
ATOM     18  C   UNL     1       9.905   1.523  21.882  0.00  0.00    +0.000 C 
ATOM     19  C   UNL     1      10.372   2.165  23.018  0.00  0.00    +0.000 C 
ATOM     20  C   UNL     1      10.611   1.435  24.173  0.00  0.00    +0.000 C 
ATOM     21  C   UNL     1      10.386   0.073  24.198  0.00  0.00    +0.000 C 
ENDBRANCH  15  16
ENDBRANCH  14  15
ENDBRANCH   1  14
TORSDOF 6
ENDMDL
MODEL 6
REMARK VINA RESULT:      -6.3      3.280      4.161
REMARK  Name = 
REMARK  6 active torsions:
REMARK  status: ('A' for Active; 'I' for Inactive)
REMARK    1  A    between atoms: C_2  and  C_3
REMARK    2  A    between atoms: C_2  and  N_5
REMARK    3  A    between atoms: N_8  and  S_9
REMARK    4  A    between atoms: S_9  and  C_12
REMARK    5  A    between atoms: C_12  and  C_13
REMARK    6  A    between atoms: C_13  and  C_14
REMARK                            x       y       z     vdW  Elec       q    Type
REMARK                         _______ _______ _______ _____ _____    ______ ____
ROOT
ATOM      1  S   UNL     1       6.805  -2.131  22.412  0.00  0.00    +0.000 S 
ATOM      2  O   UNL     1       6.330  -1.570  23.640  0.00  0.00    +0.000 OA
ATOM      3  O   UNL     1       6.627  -1.409  21.186  0.00  0.00    +0.000 OA
ENDROOT
BRANCH   1   7
ATOM      4  N   UNL     1       6.726  -5.026  24.333  0.00  0.00    +0.000 NA
ATOM      5  C   UNL     1       7.513  -5.307  23.150  0.00  0.00    +0.000 C 
ATOM      6  C   UNL     1       6.796  -4.740  21.907  0.00  0.00    +0.000 C 
ATOM      7  N   UNL     1       6.003  -3.585  22.224  0.00  0.00    +0.000 NA
ATOM      8  C   UNL     1       4.923  -3.835  23.152  0.00  0.00    +0.000 C 
ATOM      9  C   UNL     1       5.293  -4.970  24.123  0.00  0.00    +0.000 C 
BRANCH   4  11
ATOM     10  O   UNL     1       7.841  -5.684  26.173  0.00  0.00    +0.000 OA
ATOM     11  C   UNL     1       7.216  -4.830  25.574  0.00  0.00    +0.000 C 
BRANCH  11  12
ATOM     12  C   UNL     1       6.982  -3.469  26.213  0.00  0.00    +0.000 C 
ATOM     13 CL   UNL     1       8.492  -2.526  26.261  0.00  0.00    +0.000 Cl
ENDBRANCH  11  12
ENDBRANCH   4  11
ENDBRANCH   1   7
BRANCH   1  14
ATOM     14  C   UNL     1       8.543  -2.477  22.636  0.00  0.00    +0.000 C 
BRANCH  14  15
ATOM     15  C   UNL     1       9.432  -1.638  22.121  0.00  0.00    +0.000 C 
BRANCH  15  16
ATOM     16  C   UNL     1       9.831  -0.338  22.641  0.00  0.00    +0.000 C 
ATOM     17  C   UNL     1       9.733   0.777  21.806  0.00  0.00    +0.000 C 
ATOM     18  C   UNL     1      10.097   2.032  22.257  0.00  0.00    +0.000 C 
ATOM     19  C   UNL     1      10.568   2.194  23.550  0.00  0.00    +0.000 C 
ATOM     20  C   UNL     1      10.672   1.094  24.389  0.00  0.00    +0.000 C 
ATOM     21  C   UNL     1      10.308  -0.162  23.943  0.00  0.00    +0.000 C 
ENDBRANCH  15  16
ENDBRANCH  14  15
ENDBRANCH   1  14
TORSDOF 6
ENDMDL
MODEL 7
REMARK VINA RESULT:      -6.3      2.507      5.787
REMARK  Name = 
REMARK  6 active torsions:
REMARK  status: ('A' for Active; 'I' for Inactive)
REMARK    1  A    between atoms: C_2  and  C_3
REMARK    2  A    between atoms: C_2  and  N_5
REMARK    3  A    between atoms: N_8  and  S_9
REMARK    4  A    between atoms: S_9  and  C_12
REMARK    5  A    between atoms: C_12  and  C_13
REMARK    6  A    between atoms: C_13  and  C_14
REMARK                            x       y       z     vdW  Elec       q    Type
REMARK                         _______ _______ _______ _____ _____    ______ ____
ROOT
ATOM      1  S   UNL     1       9.208  -2.019  23.121  0.00  0.00    +0.000 S 
ATOM      2  O   UNL     1      10.557  -2.182  22.670  0.00  0.00    +0.000 OA
ATOM      3  O   UNL     1       8.124  -2.250  22.212  0.00  0.00    +0.000 OA
ENDROOT
BRANCH   1   7
ATOM      4  N   UNL     1       8.221   0.877  21.472  0.00  0.00    +0.000 NA
ATOM      5  C   UNL     1       9.657   0.943  21.650  0.00  0.00    +0.000 C 
ATOM      6  C   UNL     1      10.020   0.512  23.086  0.00  0.00    +0.000 C 
ATOM      7  N   UNL     1       9.075  -0.429  23.620  0.00  0.00    +0.000 NA
ATOM      8  C   UNL     1       7.729   0.081  23.750  0.00  0.00    +0.000 C 
ATOM      9  C   UNL     1       7.439   1.134  22.666  0.00  0.00    +0.000 C 
BRANCH   4  11
ATOM     10  O   UNL     1       8.076  -0.071  19.438  0.00  0.00    +0.000 OA
ATOM     11  C   UNL     1       7.583   0.614  20.314  0.00  0.00    +0.000 C 
BRANCH  11  12
ATOM     12  C   UNL     1       6.186   1.189  20.136  0.00  0.00    +0.000 C 
ATOM     13 CL   UNL     1       5.709   1.171  18.420  0.00  0.00    +0.000 Cl
ENDBRANCH  11  12
ENDBRANCH   4  11
ENDBRANCH   1   7
BRANCH   1  14
ATOM     14  C   UNL     1       9.006  -3.071  24.550  0.00  0.00    +0.000 C 
BRANCH  14  15
ATOM     15  C   UNL     1       8.763  -4.361  24.361  0.00  0.00    +0.000 C 
BRANCH  15  16
ATOM     16  C   UNL     1       7.512  -4.978  23.945  0.00  0.00    +0.000 C 
ATOM     17  C   UNL     1       7.425  -5.519  22.660  0.00  0.00    +0.000 C 
ATOM     18  C   UNL     1       6.259  -6.118  22.223  0.00  0.00    +0.000 C 
ATOM     19  C   UNL     1       5.158  -6.185  23.061  0.00  0.00    +0.000 C 
ATOM     20  C   UNL     1       5.230  -5.651  24.339  0.00  0.00    +0.000 C 
ATOM     21  C   UNL     1       6.394  -5.052  24.781  0.00  0.00    +0.000 C 
ENDBRANCH  15  16
ENDBRANCH  14  15
ENDBRANCH   1  14
TORSDOF 6
ENDMDL
MODEL 8
REMARK VINA RESULT:      -6.3      1.479      1.980
REMARK  Name = 
REMARK  6 active torsions:
REMARK  status: ('A' for Active; 'I' for Inactive)
REMARK    1  A    between atoms: C_2  and  C_3
REMARK    2  A    between atoms: C_2  and  N_5
REMARK    3  A    between atoms: N_8  and  S_9
REMARK    4  A    between atoms: S_9  and  C_12
REMARK    5  A    between atoms: C_12  and  C_13
REMARK    6  A    between atoms: C_13  and  C_14
REMARK                            x       y       z     vdW  Elec       q    Type
REMARK                         _______ _______ _______ _____ _____    ______ ____
ROOT
ATOM      1  S   UNL     1       7.841  -1.049  23.017  0.00  0.00    +0.000 S 
ATOM      2  O   UNL     1       6.499  -0.685  23.357  0.00  0.00    +0.000 OA
ATOM      3  O   UNL     1       8.073  -2.029  21.997  0.00  0.00    +0.000 OA
ENDROOT
BRANCH   1   7
ATOM      4  N   UNL     1       7.960  -4.246  24.374  0.00  0.00    +0.000 NA
ATOM      5  C   UNL     1       7.029  -3.469  25.167  0.00  0.00    +0.000 C 
ATOM      6  C   UNL     1       7.634  -2.080  25.458  0.00  0.00    +0.000 C 
ATOM      7  N   UNL     1       8.527  -1.653  24.417  0.00  0.00    +0.000 NA
ATOM      8  C   UNL     1       9.687  -2.496  24.239  0.00  0.00    +0.000 C 
ATOM      9  C   UNL     1       9.361  -3.954  24.606  0.00  0.00    +0.000 C 
BRANCH   4  11
ATOM     10  O   UNL     1       8.405  -6.058  23.118  0.00  0.00    +0.000 OA
ATOM     11  C   UNL     1       7.626  -5.195  23.477  0.00  0.00    +0.000 C 
BRANCH  11  12
ATOM     12  C   UNL     1       6.207  -5.174  22.928  0.00  0.00    +0.000 C 
ATOM     13 CL   UNL     1       6.151  -5.881  21.294  0.00  0.00    +0.000 Cl
ENDBRANCH  11  12
ENDBRANCH   4  11
ENDBRANCH   1   7
BRANCH   1  14
ATOM     14  C   UNL     1       8.695   0.458  22.583  0.00  0.00    +0.000 C 
BRANCH  14  15
ATOM     15  C   UNL     1       8.688   0.852  21.316  0.00  0.00    +0.000 C 
BRANCH  15  16
ATOM     16  C   UNL     1       7.567   0.843  20.389  0.00  0.00    +0.000 C 
ATOM     17  C   UNL     1       6.448   1.627  20.681  0.00  0.00    +0.000 C 
ATOM     18  C   UNL     1       5.361   1.653  19.828  0.00  0.00    +0.000 C 
ATOM     19  C   UNL     1       5.372   0.894  18.669  0.00  0.00    +0.000 C 
ATOM     20  C   UNL     1       6.475   0.110  18.368  0.00  0.00    +0.000 C 
ATOM     21  C   UNL     1       7.565   0.081  19.217  0.00  0.00    +0.000 C 
ENDBRANCH  15  16
ENDBRANCH  14  15
ENDBRANCH   1  14
TORSDOF 6
ENDMDL
MODEL 9
REMARK VINA RESULT:      -6.1      2.873      3.644
REMARK  Name = 
REMARK  6 active torsions:
REMARK  status: ('A' for Active; 'I' for Inactive)
REMARK    1  A    between atoms: C_2  and  C_3
REMARK    2  A    between atoms: C_2  and  N_5
REMARK    3  A    between atoms: N_8  and  S_9
REMARK    4  A    between atoms: S_9  and  C_12
REMARK    5  A    between atoms: C_12  and  C_13
REMARK    6  A    between atoms: C_13  and  C_14
REMARK                            x       y       z     vdW  Elec       q    Type
REMARK                         _______ _______ _______ _____ _____    ______ ____
ROOT
ATOM      1  S   UNL     1       7.776  -2.365  25.462  0.00  0.00    +0.000 S 
ATOM      2  O   UNL     1       8.623  -1.897  26.516  0.00  0.00    +0.000 OA
ATOM      3  O   UNL     1       6.907  -1.445  24.788  0.00  0.00    +0.000 OA
ENDROOT
BRANCH   1   7
ATOM      4  N   UNL     1       5.285  -4.389  24.129  0.00  0.00    +0.000 NA
ATOM      5  C   UNL     1       4.639  -3.375  24.938  0.00  0.00    +0.000 C 
ATOM      6  C   UNL     1       5.396  -3.223  26.274  0.00  0.00    +0.000 C 
ATOM      7  N   UNL     1       6.792  -3.534  26.140  0.00  0.00    +0.000 NA
ATOM      8  C   UNL     1       7.068  -4.897  25.749  0.00  0.00    +0.000 C 
ATOM      9  C   UNL     1       5.933  -5.452  24.872  0.00  0.00    +0.000 C 
BRANCH   4  11
ATOM     10  O   UNL     1       5.159  -3.418  22.103  0.00  0.00    +0.000 OA
ATOM     11  C   UNL     1       5.315  -4.417  22.781  0.00  0.00    +0.000 C 
BRANCH  11  12
ATOM     12  C   UNL     1       5.580  -5.758  22.113  0.00  0.00    +0.000 C 
ATOM     13 CL   UNL     1       7.273  -5.871  21.573  0.00  0.00    +0.000 Cl
ENDBRANCH  11  12
ENDBRANCH   4  11
ENDBRANCH   1   7
BRANCH   1  14
ATOM     14  C   UNL     1       8.832  -3.156  24.258  0.00  0.00    +0.000 C 
BRANCH  14  15
ATOM     15  C   UNL     1       9.879  -2.488  23.791  0.00  0.00    +0.000 C 
BRANCH  15  16
ATOM     16  C   UNL     1       9.895  -1.150  23.218  0.00  0.00    +0.000 C 
ATOM     17  C   UNL     1       9.364  -0.960  21.941  0.00  0.00    +0.000 C 
ATOM     18  C   UNL     1       9.356   0.293  21.358  0.00  0.00    +0.000 C 
ATOM     19  C   UNL     1       9.880   1.379  22.041  0.00  0.00    +0.000 C 
ATOM     20  C   UNL     1      10.412   1.203  23.310  0.00  0.00    +0.000 C 
ATOM     21  C   UNL     1      10.422  -0.047  23.897  0.00  0.00    +0.000 C 
ENDBRANCH  15  16
ENDBRANCH  14  15
ENDBRANCH   1  14
TORSDOF 6
ENDMDL
