
 OpenBabel06082022513D

 36 37  0  0  0  0  0  0  0  0999 V2000
    3.6971    9.1013    5.2773 O   0  0  0  0  0  0  0  0  0  0  0  0
    3.8075   10.2513    5.7118 C   0  0  0  0  0  0  0  0  0  0  0  0
    4.4916   11.3443    4.8973 C   0  0  0  0  0  0  0  0  0  0  0  0
    5.6885   10.6425    3.7776 Cl  0  0  0  0  0  0  0  0  0  0  0  0
    3.2210   10.5935    6.9338 N   0  0  0  0  0  0  0  0  0  0  0  0
    3.6669   11.6580    7.8459 C   0  0  0  0  0  0  0  0  0  0  0  0
    4.1244   11.0981    9.2296 C   0  0  0  0  0  0  0  0  0  0  0  0
    4.4341    9.6434    9.1999 N   0  0  0  0  0  0  0  0  0  0  0  0
    5.9425    9.0307    9.6010 S   0  0  0  0  0  0  0  0  0  0  0  0
    6.5259    9.9084   10.5899 O   0  0  0  0  0  0  0  0  0  0  0  0
    5.7921    7.6051    9.8407 O   0  0  0  0  0  0  0  0  0  0  0  0
    6.9735    9.2008    8.1522 C   0  0  0  0  0  0  0  0  0  0  0  0
    8.1027    8.3806    8.0368 C   0  0  0  0  0  0  0  0  0  0  0  0
    9.2224    8.8814    7.3742 C   0  0  0  0  0  0  0  0  0  0  0  0
    9.1534   10.1696    6.8308 C   0  0  0  0  0  0  0  0  0  0  0  0
   10.3497   10.9862    6.8888 N   0  3  0  0  0  0  0  0  0  0  0  0
   11.0365   11.0583    5.8615 O   0  0  0  0  0  0  0  0  0  0  0  0
   10.5659   11.5719    7.9572 O   0  5  0  0  0  0  0  0  0  0  0  0
    7.9584   10.8672    6.7170 C   0  0  0  0  0  0  0  0  0  0  0  0
    6.8667   10.3669    7.3988 C   0  0  0  0  0  0  0  0  0  0  0  0
    3.4688    8.7435    8.5226 C   0  0  0  0  0  0  0  0  0  0  0  0
    2.5022    9.5293    7.6350 C   0  0  0  0  0  0  0  0  0  0  0  0
    5.0386   12.0587    5.5066 H   0  0  0  0  0  0  0  0  0  0  0  0
    3.7395   11.8674    4.3032 H   0  0  0  0  0  0  0  0  0  0  0  0
    2.8194   12.3347    7.9995 H   0  0  0  0  0  0  0  0  0  0  0  0
    4.4547   12.2710    7.4074 H   0  0  0  0  0  0  0  0  0  0  0  0
    3.3113   11.2393    9.9530 H   0  0  0  0  0  0  0  0  0  0  0  0
    4.9638   11.6898    9.6099 H   0  0  0  0  0  0  0  0  0  0  0  0
    8.1775    7.4495    8.5964 H   0  0  0  0  0  0  0  0  0  0  0  0
   10.1677    8.3467    7.4176 H   0  0  0  0  0  0  0  0  0  0  0  0
    7.9135   11.8608    6.2789 H   0  0  0  0  0  0  0  0  0  0  0  0
    6.0025   10.9900    7.4787 H   0  0  0  0  0  0  0  0  0  0  0  0
    2.9076    8.1899    9.2837 H   0  0  0  0  0  0  0  0  0  0  0  0
    4.0144    8.0206    7.9085 H   0  0  0  0  0  0  0  0  0  0  0  0
    2.0017    8.8569    6.9317 H   0  0  0  0  0  0  0  0  0  0  0  0
    1.7217   10.0054    8.2407 H   0  0  0  0  0  0  0  0  0  0  0  0
  1  2  2  0  0  0  0
  2  3  1  0  0  0  0
  2  5  1  0  0  0  0
  3  4  1  0  0  0  0
  3 23  1  0  0  0  0
  3 24  1  0  0  0  0
  5  6  1  0  0  0  0
  5 22  1  0  0  0  0
  6  7  1  0  0  0  0
  6 25  1  0  0  0  0
  6 26  1  0  0  0  0
  7  8  1  0  0  0  0
  7 27  1  0  0  0  0
  7 28  1  0  0  0  0
  8  9  1  0  0  0  0
  8 21  1  0  0  0  0
  9 10  2  0  0  0  0
  9 11  2  0  0  0  0
  9 12  1  0  0  0  0
 12 13  1  0  0  0  0
 12 20  2  0  0  0  0
 13 14  2  0  0  0  0
 13 29  1  0  0  0  0
 14 15  1  0  0  0  0
 14 30  1  0  0  0  0
 15 16  1  0  0  0  0
 15 19  2  0  0  0  0
 16 17  2  0  0  0  0
 16 18  1  0  0  0  0
 19 20  1  0  0  0  0
 19 31  1  0  0  0  0
 20 32  1  0  0  0  0
 21 22  1  0  0  0  0
 21 33  1  0  0  0  0
 21 34  1  0  0  0  0
 22 35  1  0  0  0  0
 22 36  1  0  0  0  0
M  CHG  2  16   1  18  -1
M  END
>  <name>


>  <Energy>
115.316

$$$$
