MODEL 1
REMARK VINA RESULT:      -5.8      0.000      0.000
REMARK  Name = 
REMARK  4 active torsions:
REMARK  status: ('A' for Active; 'I' for Inactive)
REMARK    1  A    between atoms: C_2  and  C_3
REMARK    2  A    between atoms: C_2  and  N_5
REMARK    3  A    between atoms: N_8  and  C_9
REMARK    4  A    between atoms: C_9  and  C_10
REMARK                            x       y       z     vdW  Elec       q    Type
REMARK                         _______ _______ _______ _____ _____    ______ ____
ROOT
ATOM      1  N   UNL     1       9.625  -0.326  23.496  0.00  0.00    +0.000 NA
ATOM      2  C   UNL     1      10.416   0.867  23.307  0.00  0.00    +0.000 C 
ATOM      3  C   UNL     1       9.925   1.614  22.041  0.00  0.00    +0.000 C 
ATOM      4  N   UNL     1       8.525   1.352  21.748  0.00  0.00    +0.000 NA
ATOM      5  C   UNL     1       7.780   1.191  22.977  0.00  0.00    +0.000 C 
ATOM      6  C   UNL     1       8.231  -0.040  23.790  0.00  0.00    +0.000 C 
ENDROOT
BRANCH   1   8
ATOM      7  O   UNL     1      10.681  -1.887  22.269  0.00  0.00    +0.000 OA
ATOM      8  C   UNL     1       9.984  -1.593  23.223  0.00  0.00    +0.000 C 
BRANCH   8   9
ATOM      9  C   UNL     1       9.498  -2.686  24.170  0.00  0.00    +0.000 C 
ATOM     10 CL   UNL     1       8.200  -3.656  23.419  0.00  0.00    +0.000 Cl
ENDBRANCH   8   9
ENDBRANCH   1   8
BRANCH   4  11
ATOM     11  C   UNL     1       8.329   0.292  20.758  0.00  0.00    +0.000 C 
BRANCH  11  12
ATOM     12  C   UNL     1       7.226   0.603  19.804  0.00  0.00    +0.000 C 
ATOM     13  C   UNL     1       6.022   1.210  20.012  0.00  0.00    +0.000 C 
ATOM     14  C   UNL     1       5.369   1.231  18.756  0.00  0.00    +0.000 C 
ATOM     15  C   UNL     1       6.224   0.636  17.884  0.00  0.00    +0.000 C 
ATOM     16  O   UNL     1       7.349   0.251  18.508  0.00  0.00    +0.000 OA
ENDBRANCH  11  12
ENDBRANCH   4  11
TORSDOF 4
ENDMDL
MODEL 2
REMARK VINA RESULT:      -5.5      3.485      5.224
REMARK  Name = 
REMARK  4 active torsions:
REMARK  status: ('A' for Active; 'I' for Inactive)
REMARK    1  A    between atoms: C_2  and  C_3
REMARK    2  A    between atoms: C_2  and  N_5
REMARK    3  A    between atoms: N_8  and  C_9
REMARK    4  A    between atoms: C_9  and  C_10
REMARK                            x       y       z     vdW  Elec       q    Type
REMARK                         _______ _______ _______ _____ _____    ______ ____
ROOT
ATOM      1  N   UNL     1       7.925   0.424  21.477  0.00  0.00    +0.000 NA
ATOM      2  C   UNL     1       7.749   0.631  22.896  0.00  0.00    +0.000 C 
ATOM      3  C   UNL     1       7.275  -0.690  23.553  0.00  0.00    +0.000 C 
ATOM      4  N   UNL     1       7.709  -1.866  22.815  0.00  0.00    +0.000 NA
ATOM      5  C   UNL     1       9.010  -1.634  22.227  0.00  0.00    +0.000 C 
ATOM      6  C   UNL     1       8.994  -0.511  21.170  0.00  0.00    +0.000 C 
ENDROOT
BRANCH   1   8
ATOM      7  O   UNL     1       6.209   1.628  20.662  0.00  0.00    +0.000 OA
ATOM      8  C   UNL     1       7.102   0.818  20.489  0.00  0.00    +0.000 C 
BRANCH   8   9
ATOM      9  C   UNL     1       7.324   0.221  19.103  0.00  0.00    +0.000 C 
ATOM     10 CL   UNL     1       5.916   0.511  18.045  0.00  0.00    +0.000 Cl
ENDBRANCH   8   9
ENDBRANCH   1   8
BRANCH   4  11
ATOM     11  C   UNL     1       6.693  -2.380  21.895  0.00  0.00    +0.000 C 
BRANCH  11  12
ATOM     12  C   UNL     1       6.651  -3.870  21.871  0.00  0.00    +0.000 C 
ATOM     13  C   UNL     1       7.291  -4.786  22.655  0.00  0.00    +0.000 C 
ATOM     14  C   UNL     1       6.893  -6.059  22.180  0.00  0.00    +0.000 C 
ATOM     15  C   UNL     1       6.045  -5.820  21.146  0.00  0.00    +0.000 C 
ATOM     16  O   UNL     1       5.893  -4.500  20.950  0.00  0.00    +0.000 OA
ENDBRANCH  11  12
ENDBRANCH   4  11
TORSDOF 4
ENDMDL
MODEL 3
REMARK VINA RESULT:      -5.4      2.354      3.070
REMARK  Name = 
REMARK  4 active torsions:
REMARK  status: ('A' for Active; 'I' for Inactive)
REMARK    1  A    between atoms: C_2  and  C_3
REMARK    2  A    between atoms: C_2  and  N_5
REMARK    3  A    between atoms: N_8  and  C_9
REMARK    4  A    between atoms: C_9  and  C_10
REMARK                            x       y       z     vdW  Elec       q    Type
REMARK                         _______ _______ _______ _____ _____    ______ ____
ROOT
ATOM      1  N   UNL     1       9.232   0.304  23.559  0.00  0.00    +0.000 NA
ATOM      2  C   UNL     1       7.986  -0.360  23.862  0.00  0.00    +0.000 C 
ATOM      3  C   UNL     1       7.278  -0.752  22.541  0.00  0.00    +0.000 C 
ATOM      4  N   UNL     1       8.213  -0.953  21.446  0.00  0.00    +0.000 NA
ATOM      5  C   UNL     1       9.450  -1.517  21.942  0.00  0.00    +0.000 C 
ATOM      6  C   UNL     1      10.193  -0.568  22.905  0.00  0.00    +0.000 C 
ENDROOT
BRANCH   1   8
ATOM      7  O   UNL     1      10.605   2.083  23.467  0.00  0.00    +0.000 OA
ATOM      8  C   UNL     1       9.488   1.623  23.619  0.00  0.00    +0.000 C 
BRANCH   8   9
ATOM      9  C   UNL     1       8.313   2.561  23.878  0.00  0.00    +0.000 C 
ATOM     10 CL   UNL     1       7.781   3.357  22.371  0.00  0.00    +0.000 Cl
ENDBRANCH   8   9
ENDBRANCH   1   8
BRANCH   4  11
ATOM     11  C   UNL     1       8.366   0.226  20.592  0.00  0.00    +0.000 C 
BRANCH  11  12
ATOM     12  C   UNL     1       7.173   0.463  19.731  0.00  0.00    +0.000 C 
ATOM     13  C   UNL     1       6.084   1.262  19.928  0.00  0.00    +0.000 C 
ATOM     14  C   UNL     1       5.257   1.089  18.792  0.00  0.00    +0.000 C 
ATOM     15  C   UNL     1       5.904   0.200  17.994  0.00  0.00    +0.000 C 
ATOM     16  O   UNL     1       7.063  -0.187  18.553  0.00  0.00    +0.000 OA
ENDBRANCH  11  12
ENDBRANCH   4  11
TORSDOF 4
ENDMDL
MODEL 4
REMARK VINA RESULT:      -5.4      2.291      2.886
REMARK  Name = 
REMARK  4 active torsions:
REMARK  status: ('A' for Active; 'I' for Inactive)
REMARK    1  A    between atoms: C_2  and  C_3
REMARK    2  A    between atoms: C_2  and  N_5
REMARK    3  A    between atoms: N_8  and  C_9
REMARK    4  A    between atoms: C_9  and  C_10
REMARK                            x       y       z     vdW  Elec       q    Type
REMARK                         _______ _______ _______ _____ _____    ______ ____
ROOT
ATOM      1  N   UNL     1       8.573  -3.084  24.448  0.00  0.00    +0.000 NA
ATOM      2  C   UNL     1       9.858  -2.662  23.941  0.00  0.00    +0.000 C 
ATOM      3  C   UNL     1       9.648  -1.691  22.752  0.00  0.00    +0.000 C 
ATOM      4  N   UNL     1       8.383  -0.978  22.833  0.00  0.00    +0.000 NA
ATOM      5  C   UNL     1       8.049  -0.708  24.214  0.00  0.00    +0.000 C 
ATOM      6  C   UNL     1       7.809  -1.994  25.031  0.00  0.00    +0.000 C 
ENDROOT
BRANCH   1   8
ATOM      7  O   UNL     1       8.194  -4.962  23.271  0.00  0.00    +0.000 OA
ATOM      8  C   UNL     1       7.966  -4.266  24.244  0.00  0.00    +0.000 C 
BRANCH   8   9
ATOM      9  C   UNL     1       6.967  -4.739  25.295  0.00  0.00    +0.000 C 
ATOM     10 CL   UNL     1       7.801  -5.289  26.775  0.00  0.00    +0.000 Cl
ENDBRANCH   8   9
ENDBRANCH   1   8
BRANCH   4  11
ATOM     11  C   UNL     1       7.317  -1.599  22.045  0.00  0.00    +0.000 C 
BRANCH  11  12
ATOM     12  C   UNL     1       7.103  -0.914  20.739  0.00  0.00    +0.000 C 
ATOM     13  C   UNL     1       7.858   0.025  20.098  0.00  0.00    +0.000 C 
ATOM     14  C   UNL     1       7.173   0.330  18.897  0.00  0.00    +0.000 C 
ATOM     15  C   UNL     1       6.058  -0.446  18.899  0.00  0.00    +0.000 C 
ATOM     16  O   UNL     1       6.004  -1.200  20.009  0.00  0.00    +0.000 OA
ENDBRANCH  11  12
ENDBRANCH   4  11
TORSDOF 4
ENDMDL
MODEL 5
REMARK VINA RESULT:      -5.3      2.525      5.719
REMARK  Name = 
REMARK  4 active torsions:
REMARK  status: ('A' for Active; 'I' for Inactive)
REMARK    1  A    between atoms: C_2  and  C_3
REMARK    2  A    between atoms: C_2  and  N_5
REMARK    3  A    between atoms: N_8  and  C_9
REMARK    4  A    between atoms: C_9  and  C_10
REMARK                            x       y       z     vdW  Elec       q    Type
REMARK                         _______ _______ _______ _____ _____    ______ ____
ROOT
ATOM      1  N   UNL     1       7.815   0.248  21.425  0.00  0.00    +0.000 NA
ATOM      2  C   UNL     1       7.260   0.654  22.695  0.00  0.00    +0.000 C 
ATOM      3  C   UNL     1       7.665  -0.370  23.785  0.00  0.00    +0.000 C 
ATOM      4  N   UNL     1       8.912  -1.050  23.474  0.00  0.00    +0.000 NA
ATOM      5  C   UNL     1       9.810  -0.153  22.780  0.00  0.00    +0.000 C 
ATOM      6  C   UNL     1       9.268   0.288  21.406  0.00  0.00    +0.000 C 
ENDROOT
BRANCH   1   8
ATOM      7  O   UNL     1       6.358  -1.232  20.564  0.00  0.00    +0.000 OA
ATOM      8  C   UNL     1       7.168  -0.338  20.402  0.00  0.00    +0.000 C 
BRANCH   8   9
ATOM      9  C   UNL     1       7.468   0.166  18.994  0.00  0.00    +0.000 C 
ATOM     10 CL   UNL     1       6.024   0.913  18.257  0.00  0.00    +0.000 Cl
ENDBRANCH   8   9
ENDBRANCH   1   8
BRANCH   4  11
ATOM     11  C   UNL     1       8.718  -2.352  22.834  0.00  0.00    +0.000 C 
BRANCH  11  12
ATOM     12  C   UNL     1       8.696  -3.471  23.819  0.00  0.00    +0.000 C 
ATOM     13  C   UNL     1       7.654  -4.222  24.282  0.00  0.00    +0.000 C 
ATOM     14  C   UNL     1       8.208  -5.135  25.212  0.00  0.00    +0.000 C 
ATOM     15  C   UNL     1       9.541  -4.868  25.244  0.00  0.00    +0.000 C 
ATOM     16  O   UNL     1       9.845  -3.863  24.406  0.00  0.00    +0.000 OA
ENDBRANCH  11  12
ENDBRANCH   4  11
TORSDOF 4
ENDMDL
MODEL 6
REMARK VINA RESULT:      -5.3      3.732      4.657
REMARK  Name = 
REMARK  4 active torsions:
REMARK  status: ('A' for Active; 'I' for Inactive)
REMARK    1  A    between atoms: C_2  and  C_3
REMARK    2  A    between atoms: C_2  and  N_5
REMARK    3  A    between atoms: N_8  and  C_9
REMARK    4  A    between atoms: C_9  and  C_10
REMARK                            x       y       z     vdW  Elec       q    Type
REMARK                         _______ _______ _______ _____ _____    ______ ____
ROOT
ATOM      1  N   UNL     1       6.853  -5.109  23.649  0.00  0.00    +0.000 NA
ATOM      2  C   UNL     1       5.432  -4.978  23.872  0.00  0.00    +0.000 C 
ATOM      3  C   UNL     1       4.889  -3.788  23.041  0.00  0.00    +0.000 C 
ATOM      4  N   UNL     1       5.686  -3.529  21.853  0.00  0.00    +0.000 NA
ATOM      5  C   UNL     1       6.202  -4.769  21.317  0.00  0.00    +0.000 C 
ATOM      6  C   UNL     1       7.178  -5.474  22.280  0.00  0.00    +0.000 C 
ENDROOT
BRANCH   1   8
ATOM      7  O   UNL     1       9.021  -4.841  24.179  0.00  0.00    +0.000 OA
ATOM      8  C   UNL     1       7.845  -4.733  24.475  0.00  0.00    +0.000 C 
BRANCH   8   9
ATOM      9  C   UNL     1       7.456  -4.138  25.824  0.00  0.00    +0.000 C 
ATOM     10 CL   UNL     1       7.258  -5.415  27.056  0.00  0.00    +0.000 Cl
ENDBRANCH   8   9
ENDBRANCH   1   8
BRANCH   4  11
ATOM     11  C   UNL     1       6.682  -2.472  22.044  0.00  0.00    +0.000 C 
BRANCH  11  12
ATOM     12  C   UNL     1       6.688  -1.489  20.923  0.00  0.00    +0.000 C 
ATOM     13  C   UNL     1       7.506  -0.422  20.687  0.00  0.00    +0.000 C 
ATOM     14  C   UNL     1       7.049   0.167  19.483  0.00  0.00    +0.000 C 
ATOM     15  C   UNL     1       5.990  -0.585  19.082  0.00  0.00    +0.000 C 
ATOM     16  O   UNL     1       5.763  -1.587  19.946  0.00  0.00    +0.000 OA
ENDBRANCH  11  12
ENDBRANCH   4  11
TORSDOF 4
ENDMDL
MODEL 7
REMARK VINA RESULT:      -5.2      3.250      4.620
REMARK  Name = 
REMARK  4 active torsions:
REMARK  status: ('A' for Active; 'I' for Inactive)
REMARK    1  A    between atoms: C_2  and  C_3
REMARK    2  A    between atoms: C_2  and  N_5
REMARK    3  A    between atoms: N_8  and  C_9
REMARK    4  A    between atoms: C_9  and  C_10
REMARK                            x       y       z     vdW  Elec       q    Type
REMARK                         _______ _______ _______ _____ _____    ______ ____
ROOT
ATOM      1  N   UNL     1       7.284  -4.781  24.294  0.00  0.00    +0.000 NA
ATOM      2  C   UNL     1       6.198  -3.871  24.571  0.00  0.00    +0.000 C 
ATOM      3  C   UNL     1       6.324  -2.627  23.656  0.00  0.00    +0.000 C 
ATOM      4  N   UNL     1       7.019  -2.918  22.413  0.00  0.00    +0.000 NA
ATOM      5  C   UNL     1       6.714  -4.263  21.974  0.00  0.00    +0.000 C 
ATOM      6  C   UNL     1       7.227  -5.339  22.953  0.00  0.00    +0.000 C 
ENDROOT
BRANCH   1   8
ATOM      7  O   UNL     1       9.398  -5.494  24.581  0.00  0.00    +0.000 OA
ATOM      8  C   UNL     1       8.392  -4.977  25.032  0.00  0.00    +0.000 C 
BRANCH   8   9
ATOM      9  C   UNL     1       8.365  -4.513  26.484  0.00  0.00    +0.000 C 
ATOM     10 CL   UNL     1       7.326  -5.570  27.478  0.00  0.00    +0.000 Cl
ENDBRANCH   8   9
ENDBRANCH   1   8
BRANCH   4  11
ATOM     11  C   UNL     1       8.443  -2.585  22.453  0.00  0.00    +0.000 C 
BRANCH  11  12
ATOM     12  C   UNL     1       8.714  -1.192  21.995  0.00  0.00    +0.000 C 
ATOM     13  C   UNL     1       9.733  -0.340  22.310  0.00  0.00    +0.000 C 
ATOM     14  C   UNL     1       9.481   0.856  21.596  0.00  0.00    +0.000 C 
ATOM     15  C   UNL     1       8.332   0.640  20.903  0.00  0.00    +0.000 C 
ATOM     16  O   UNL     1       7.859  -0.595  21.140  0.00  0.00    +0.000 OA
ENDBRANCH  11  12
ENDBRANCH   4  11
TORSDOF 4
ENDMDL
MODEL 8
REMARK VINA RESULT:      -5.1      2.643      4.924
REMARK  Name = 
REMARK  4 active torsions:
REMARK  status: ('A' for Active; 'I' for Inactive)
REMARK    1  A    between atoms: C_2  and  C_3
REMARK    2  A    between atoms: C_2  and  N_5
REMARK    3  A    between atoms: N_8  and  C_9
REMARK    4  A    between atoms: C_9  and  C_10
REMARK                            x       y       z     vdW  Elec       q    Type
REMARK                         _______ _______ _______ _____ _____    ______ ____
ROOT
ATOM      1  N   UNL     1       9.470   0.462  22.014  0.00  0.00    +0.000 NA
ATOM      2  C   UNL     1      10.151   0.960  23.186  0.00  0.00    +0.000 C 
ATOM      3  C   UNL     1       9.851   0.029  24.388  0.00  0.00    +0.000 C 
ATOM      4  N   UNL     1       9.552  -1.333  23.977  0.00  0.00    +0.000 NA
ATOM      5  C   UNL     1      10.329  -1.684  22.809  0.00  0.00    +0.000 C 
ATOM      6  C   UNL     1       9.970  -0.830  21.576  0.00  0.00    +0.000 C 
ENDROOT
BRANCH   1   8
ATOM      7  O   UNL     1       8.021   2.115  21.542  0.00  0.00    +0.000 OA
ATOM      8  C   UNL     1       8.343   0.944  21.459  0.00  0.00    +0.000 C 
BRANCH   8   9
ATOM      9  C   UNL     1       7.458  -0.033  20.692  0.00  0.00    +0.000 C 
ATOM     10 CL   UNL     1       7.506   0.298  18.938  0.00  0.00    +0.000 Cl
ENDBRANCH   8   9
ENDBRANCH   1   8
BRANCH   4  11
ATOM     11  C   UNL     1       8.117  -1.604  23.874  0.00  0.00    +0.000 C 
BRANCH  11  12
ATOM     12  C   UNL     1       7.833  -3.007  23.456  0.00  0.00    +0.000 C 
ATOM     13  C   UNL     1       7.175  -3.488  22.362  0.00  0.00    +0.000 C 
ATOM     14  C   UNL     1       7.191  -4.899  22.480  0.00  0.00    +0.000 C 
ATOM     15  C   UNL     1       7.856  -5.166  23.634  0.00  0.00    +0.000 C 
ATOM     16  O   UNL     1       8.247  -4.029  24.233  0.00  0.00    +0.000 OA
ENDBRANCH  11  12
ENDBRANCH   4  11
TORSDOF 4
ENDMDL
MODEL 9
REMARK VINA RESULT:      -5.1      3.392      5.308
REMARK  Name = 
REMARK  4 active torsions:
REMARK  status: ('A' for Active; 'I' for Inactive)
REMARK    1  A    between atoms: C_2  and  C_3
REMARK    2  A    between atoms: C_2  and  N_5
REMARK    3  A    between atoms: N_8  and  C_9
REMARK    4  A    between atoms: C_9  and  C_10
REMARK                            x       y       z     vdW  Elec       q    Type
REMARK                         _______ _______ _______ _____ _____    ______ ____
ROOT
ATOM      1  N   UNL     1       8.858  -0.904  23.607  0.00  0.00    +0.000 NA
ATOM      2  C   UNL     1       7.433  -0.673  23.599  0.00  0.00    +0.000 C 
ATOM      3  C   UNL     1       6.696  -1.992  23.942  0.00  0.00    +0.000 C 
ATOM      4  N   UNL     1       7.504  -2.885  24.758  0.00  0.00    +0.000 NA
ATOM      5  C   UNL     1       8.335  -2.120  25.662  0.00  0.00    +0.000 C 
ATOM      6  C   UNL     1       9.369  -1.245  24.924  0.00  0.00    +0.000 C 
ENDROOT
BRANCH   1   8
ATOM      7  O   UNL     1      10.531  -1.900  22.480  0.00  0.00    +0.000 OA
ATOM      8  C   UNL     1       9.667  -1.043  22.541  0.00  0.00    +0.000 C 
BRANCH   8   9
ATOM      9  C   UNL     1       9.467  -0.086  21.371  0.00  0.00    +0.000 C 
ATOM     10 CL   UNL     1       9.885   1.587  21.830  0.00  0.00    +0.000 Cl
ENDBRANCH   8   9
ENDBRANCH   1   8
BRANCH   4  11
ATOM     11  C   UNL     1       8.209  -3.904  23.978  0.00  0.00    +0.000 C 
BRANCH  11  12
ATOM     12  C   UNL     1       7.274  -4.805  23.245  0.00  0.00    +0.000 C 
ATOM     13  C   UNL     1       7.212  -5.127  21.920  0.00  0.00    +0.000 C 
ATOM     14  C   UNL     1       6.119  -6.017  21.781  0.00  0.00    +0.000 C 
ATOM     15  C   UNL     1       5.603  -6.167  23.029  0.00  0.00    +0.000 C 
ATOM     16  O   UNL     1       6.292  -5.437  23.921  0.00  0.00    +0.000 OA
ENDBRANCH  11  12
ENDBRANCH   4  11
TORSDOF 4
ENDMDL
