MODEL 1
REMARK VINA RESULT:      -6.9      0.000      0.000
REMARK  Name = 
REMARK  5 active torsions:
REMARK  status: ('A' for Active; 'I' for Inactive)
REMARK    1  A    between atoms: C_1  and  C_2
REMARK    2  A    between atoms: C_5  and  S_6
REMARK    3  A    between atoms: S_6  and  N_9
REMARK    4  A    between atoms: C_13  and  C_15
REMARK    5  A    between atoms: C_20  and  C_21
REMARK                            x       y       z     vdW  Elec       q    Type
REMARK                         _______ _______ _______ _____ _____    ______ ____
ROOT
ATOM      1  S   UNL     1      10.111  -0.609  22.961  0.00  0.00    +0.000 S 
ATOM      2  O   UNL     1      10.903  -1.576  22.222  0.00  0.00    +0.000 OA
ATOM      3  O   UNL     1      10.734   0.483  23.678  0.00  0.00    +0.000 OA
ENDROOT
BRANCH   1   8
ATOM      4  C   UNL     1       5.594   1.501  19.525  0.00  0.00    +0.000 C 
ATOM      5  C   UNL     1       6.786   1.090  20.342  0.00  0.00    +0.000 A 
ATOM      6  C   UNL     1       7.435  -0.105  19.977  0.00  0.00    +0.000 A 
ATOM      7  C   UNL     1       8.504  -0.613  20.722  0.00  0.00    +0.000 A 
ATOM      8  C   UNL     1       8.925   0.089  21.843  0.00  0.00    +0.000 A 
ATOM      9  C   UNL     1       8.342   1.316  22.181  0.00  0.00    +0.000 A 
ATOM     10  C   UNL     1       7.234   1.804  21.471  0.00  0.00    +0.000 A 
ATOM     11  C   UNL     1       6.604   3.067  21.990  0.00  0.00    +0.000 C 
ENDBRANCH   1   8
BRANCH   1  12
ATOM     12  N   UNL     1       9.125  -1.435  24.069  0.00  0.00    +0.000 NA
ATOM     13  C   UNL     1       9.338  -2.892  24.256  0.00  0.00    +0.000 C 
ATOM     14  C   UNL     1       8.044  -3.708  24.209  0.00  0.00    +0.000 C 
ATOM     15  N   UNL     1       7.091  -3.157  23.250  0.00  0.00    +0.000 N 
ATOM     16  C   UNL     1       6.393  -3.886  22.288  0.00  0.00    +0.000 C 
ATOM     17  O   UNL     1       5.361  -3.440  21.788  0.00  0.00    +0.000 OA
ATOM     18  C   UNL     1       6.680  -1.776  23.513  0.00  0.00    +0.000 C 
ATOM     19  C   UNL     1       7.733  -0.950  24.286  0.00  0.00    +0.000 C 
BRANCH  16  20
ATOM     20  C   UNL     1       7.025  -5.203  21.852  0.00  0.00    +0.000 C 
ATOM     21 CL   UNL     1       6.052  -6.030  20.618  0.00  0.00    +0.000 Cl
ENDBRANCH  16  20
ENDBRANCH   1  12
TORSDOF 3
ENDMDL
MODEL 2
REMARK VINA RESULT:      -6.9      3.040      6.487
REMARK  Name = 
REMARK  5 active torsions:
REMARK  status: ('A' for Active; 'I' for Inactive)
REMARK    1  A    between atoms: C_1  and  C_2
REMARK    2  A    between atoms: C_5  and  S_6
REMARK    3  A    between atoms: S_6  and  N_9
REMARK    4  A    between atoms: C_13  and  C_15
REMARK    5  A    between atoms: C_20  and  C_21
REMARK                            x       y       z     vdW  Elec       q    Type
REMARK                         _______ _______ _______ _____ _____    ______ ____
ROOT
ATOM      1  S   UNL     1       8.564  -3.464  24.064  0.00  0.00    +0.000 S 
ATOM      2  O   UNL     1       9.973  -3.702  24.326  0.00  0.00    +0.000 OA
ATOM      3  O   UNL     1       8.019  -3.567  22.728  0.00  0.00    +0.000 OA
ENDROOT
BRANCH   1   8
ATOM      4  C   UNL     1       4.931  -6.652  27.711  0.00  0.00    +0.000 C 
ATOM      5  C   UNL     1       5.866  -5.980  26.745  0.00  0.00    +0.000 A 
ATOM      6  C   UNL     1       6.982  -5.314  27.287  0.00  0.00    +0.000 A 
ATOM      7  C   UNL     1       7.867  -4.594  26.479  0.00  0.00    +0.000 A 
ATOM      8  C   UNL     1       7.627  -4.543  25.113  0.00  0.00    +0.000 A 
ATOM      9  C   UNL     1       6.565  -5.257  24.545  0.00  0.00    +0.000 A 
ATOM     10  C   UNL     1       5.643  -5.937  25.355  0.00  0.00    +0.000 A 
ATOM     11  C   UNL     1       4.470  -6.568  24.657  0.00  0.00    +0.000 C 
ENDBRANCH   1   8
BRANCH   1  12
ATOM     12  N   UNL     1       8.147  -1.928  24.655  0.00  0.00    +0.000 NA
ATOM     13  C   UNL     1       6.930  -1.270  24.117  0.00  0.00    +0.000 C 
ATOM     14  C   UNL     1       7.157   0.186  23.705  0.00  0.00    +0.000 C 
ATOM     15  N   UNL     1       8.489   0.389  23.143  0.00  0.00    +0.000 N 
ATOM     16  C   UNL     1       8.776   1.070  21.960  0.00  0.00    +0.000 C 
ATOM     17  O   UNL     1       9.904   1.518  21.752  0.00  0.00    +0.000 OA
ATOM     18  C   UNL     1       9.595   0.055  24.043  0.00  0.00    +0.000 C 
ATOM     19  C   UNL     1       9.236  -1.013  25.100  0.00  0.00    +0.000 C 
BRANCH  16  20
ATOM     20  C   UNL     1       7.650   1.145  20.937  0.00  0.00    +0.000 C 
ATOM     21 CL   UNL     1       7.892   0.003  19.598  0.00  0.00    +0.000 Cl
ENDBRANCH  16  20
ENDBRANCH   1  12
TORSDOF 3
ENDMDL
MODEL 3
REMARK VINA RESULT:      -6.8      2.594      3.569
REMARK  Name = 
REMARK  5 active torsions:
REMARK  status: ('A' for Active; 'I' for Inactive)
REMARK    1  A    between atoms: C_1  and  C_2
REMARK    2  A    between atoms: C_5  and  S_6
REMARK    3  A    between atoms: S_6  and  N_9
REMARK    4  A    between atoms: C_13  and  C_15
REMARK    5  A    between atoms: C_20  and  C_21
REMARK                            x       y       z     vdW  Elec       q    Type
REMARK                         _______ _______ _______ _____ _____    ______ ____
ROOT
ATOM      1  S   UNL     1       8.626  -0.356  21.475  0.00  0.00    +0.000 S 
ATOM      2  O   UNL     1       8.172  -0.014  20.138  0.00  0.00    +0.000 OA
ATOM      3  O   UNL     1       9.784  -1.198  21.683  0.00  0.00    +0.000 OA
ENDROOT
BRANCH   1   8
ATOM      4  C   UNL     1       9.822   5.042  23.943  0.00  0.00    +0.000 C 
ATOM      5  C   UNL     1       9.415   3.696  23.413  0.00  0.00    +0.000 A 
ATOM      6  C   UNL     1      10.309   2.627  23.616  0.00  0.00    +0.000 A 
ATOM      7  C   UNL     1      10.057   1.355  23.093  0.00  0.00    +0.000 A 
ATOM      8  C   UNL     1       8.895   1.156  22.360  0.00  0.00    +0.000 A 
ATOM      9  C   UNL     1       7.959   2.185  22.209  0.00  0.00    +0.000 A 
ATOM     10  C   UNL     1       8.229   3.478  22.684  0.00  0.00    +0.000 A 
ATOM     11  C   UNL     1       7.215   4.541  22.362  0.00  0.00    +0.000 C 
ENDBRANCH   1   8
BRANCH   1  12
ATOM     12  N   UNL     1       7.339  -1.056  22.332  0.00  0.00    +0.000 NA
ATOM     13  C   UNL     1       7.391  -1.050  23.815  0.00  0.00    +0.000 C 
ATOM     14  C   UNL     1       7.073  -2.409  24.442  0.00  0.00    +0.000 C 
ATOM     15  N   UNL     1       7.580  -3.512  23.630  0.00  0.00    +0.000 N 
ATOM     16  C   UNL     1       8.312  -4.599  24.104  0.00  0.00    +0.000 C 
ATOM     17  O   UNL     1       8.376  -5.644  23.456  0.00  0.00    +0.000 OA
ATOM     18  C   UNL     1       7.048  -3.569  22.267  0.00  0.00    +0.000 C 
ATOM     19  C   UNL     1       6.605  -2.196  21.713  0.00  0.00    +0.000 C 
BRANCH  16  20
ATOM     20  C   UNL     1       9.075  -4.381  25.405  0.00  0.00    +0.000 C 
ATOM     21 CL   UNL     1       8.204  -5.044  26.805  0.00  0.00    +0.000 Cl
ENDBRANCH  16  20
ENDBRANCH   1  12
TORSDOF 3
ENDMDL
MODEL 4
REMARK VINA RESULT:      -6.8      3.608      6.369
REMARK  Name = 
REMARK  5 active torsions:
REMARK  status: ('A' for Active; 'I' for Inactive)
REMARK    1  A    between atoms: C_1  and  C_2
REMARK    2  A    between atoms: C_5  and  S_6
REMARK    3  A    between atoms: S_6  and  N_9
REMARK    4  A    between atoms: C_13  and  C_15
REMARK    5  A    between atoms: C_20  and  C_21
REMARK                            x       y       z     vdW  Elec       q    Type
REMARK                         _______ _______ _______ _____ _____    ______ ____
ROOT
ATOM      1  S   UNL     1       9.113  -2.568  24.198  0.00  0.00    +0.000 S 
ATOM      2  O   UNL     1       8.943  -1.883  25.467  0.00  0.00    +0.000 OA
ATOM      3  O   UNL     1      10.383  -3.145  23.819  0.00  0.00    +0.000 OA
ENDROOT
BRANCH   1   8
ATOM      4  C   UNL     1       4.510  -6.472  23.699  0.00  0.00    +0.000 C 
ATOM      5  C   UNL     1       5.736  -5.606  23.785  0.00  0.00    +0.000 A 
ATOM      6  C   UNL     1       6.060  -5.073  25.048  0.00  0.00    +0.000 A 
ATOM      7  C   UNL     1       7.134  -4.195  25.216  0.00  0.00    +0.000 A 
ATOM      8  C   UNL     1       7.890  -3.849  24.104  0.00  0.00    +0.000 A 
ATOM      9  C   UNL     1       7.630  -4.423  22.855  0.00  0.00    +0.000 A 
ATOM     10  C   UNL     1       6.522  -5.263  22.667  0.00  0.00    +0.000 A 
ATOM     11  C   UNL     1       6.258  -5.728  21.262  0.00  0.00    +0.000 C 
ENDBRANCH   1   8
BRANCH   1  12
ATOM     12  N   UNL     1       8.644  -1.525  22.942  0.00  0.00    +0.000 NA
ATOM     13  C   UNL     1       9.703  -0.891  22.117  0.00  0.00    +0.000 C 
ATOM     14  C   UNL     1       9.508   0.615  21.929  0.00  0.00    +0.000 C 
ATOM     15  N   UNL     1       8.941   1.241  23.120  0.00  0.00    +0.000 N 
ATOM     16  C   UNL     1       9.414   2.403  23.729  0.00  0.00    +0.000 C 
ATOM     17  O   UNL     1       8.688   3.063  24.473  0.00  0.00    +0.000 OA
ATOM     18  C   UNL     1       7.635   0.720  23.529  0.00  0.00    +0.000 C 
ATOM     19  C   UNL     1       7.385  -0.742  23.097  0.00  0.00    +0.000 C 
BRANCH  16  20
ATOM     20  C   UNL     1      10.878   2.745  23.481  0.00  0.00    +0.000 C 
ATOM     21 CL   UNL     1      11.164   4.498  23.505  0.00  0.00    +0.000 Cl
ENDBRANCH  16  20
ENDBRANCH   1  12
TORSDOF 3
ENDMDL
MODEL 5
REMARK VINA RESULT:      -6.7      3.419      4.984
REMARK  Name = 
REMARK  5 active torsions:
REMARK  status: ('A' for Active; 'I' for Inactive)
REMARK    1  A    between atoms: C_1  and  C_2
REMARK    2  A    between atoms: C_5  and  S_6
REMARK    3  A    between atoms: S_6  and  N_9
REMARK    4  A    between atoms: C_13  and  C_15
REMARK    5  A    between atoms: C_20  and  C_21
REMARK                            x       y       z     vdW  Elec       q    Type
REMARK                         _______ _______ _______ _____ _____    ______ ____
ROOT
ATOM      1  S   UNL     1       6.427  -4.362  21.782  0.00  0.00    +0.000 S 
ATOM      2  O   UNL     1       5.671  -3.847  20.654  0.00  0.00    +0.000 OA
ATOM      3  O   UNL     1       7.217  -5.568  21.670  0.00  0.00    +0.000 OA
ENDROOT
BRANCH   1   8
ATOM      4  C   UNL     1      10.481  -0.104  23.234  0.00  0.00    +0.000 C 
ATOM      5  C   UNL     1       9.378  -1.077  22.924  0.00  0.00    +0.000 A 
ATOM      6  C   UNL     1       9.418  -2.324  23.577  0.00  0.00    +0.000 A 
ATOM      7  C   UNL     1       8.482  -3.325  23.298  0.00  0.00    +0.000 A 
ATOM      8  C   UNL     1       7.496  -3.068  22.355  0.00  0.00    +0.000 A 
ATOM      9  C   UNL     1       7.395  -1.811  21.748  0.00  0.00    +0.000 A 
ATOM     10  C   UNL     1       8.361  -0.821  21.983  0.00  0.00    +0.000 A 
ATOM     11  C   UNL     1       8.231   0.449  21.189  0.00  0.00    +0.000 C 
ENDBRANCH   1   8
BRANCH   1  12
ATOM     12  N   UNL     1       5.376  -4.574  23.099  0.00  0.00    +0.000 NA
ATOM     13  C   UNL     1       4.783  -3.370  23.732  0.00  0.00    +0.000 C 
ATOM     14  C   UNL     1       4.890  -3.370  25.259  0.00  0.00    +0.000 C 
ATOM     15  N   UNL     1       6.134  -3.982  25.715  0.00  0.00    +0.000 N 
ATOM     16  C   UNL     1       7.002  -3.445  26.666  0.00  0.00    +0.000 C 
ATOM     17  O   UNL     1       7.804  -4.165  27.261  0.00  0.00    +0.000 OA
ATOM     18  C   UNL     1       6.324  -5.374  25.304  0.00  0.00    +0.000 C 
ATOM     19  C   UNL     1       5.585  -5.744  23.998  0.00  0.00    +0.000 C 
BRANCH  16  20
ATOM     20  C   UNL     1       6.946  -1.934  26.851  0.00  0.00    +0.000 C 
ATOM     21 CL   UNL     1       8.564  -1.201  26.820  0.00  0.00    +0.000 Cl
ENDBRANCH  16  20
ENDBRANCH   1  12
TORSDOF 3
ENDMDL
MODEL 6
REMARK VINA RESULT:      -6.7      3.289      4.389
REMARK  Name = 
REMARK  5 active torsions:
REMARK  status: ('A' for Active; 'I' for Inactive)
REMARK    1  A    between atoms: C_1  and  C_2
REMARK    2  A    between atoms: C_5  and  S_6
REMARK    3  A    between atoms: S_6  and  N_9
REMARK    4  A    between atoms: C_13  and  C_15
REMARK    5  A    between atoms: C_20  and  C_21
REMARK                            x       y       z     vdW  Elec       q    Type
REMARK                         _______ _______ _______ _____ _____    ______ ____
ROOT
ATOM      1  S   UNL     1       8.008  -3.615  24.098  0.00  0.00    +0.000 S 
ATOM      2  O   UNL     1       8.923  -4.732  23.950  0.00  0.00    +0.000 OA
ATOM      3  O   UNL     1       7.488  -3.234  25.394  0.00  0.00    +0.000 OA
ENDROOT
BRANCH   1   8
ATOM      4  C   UNL     1      10.136   1.621  21.924  0.00  0.00    +0.000 C 
ATOM      5  C   UNL     1       9.739   0.280  22.474  0.00  0.00    +0.000 A 
ATOM      6  C   UNL     1       8.958  -0.550  21.645  0.00  0.00    +0.000 A 
ATOM      7  C   UNL     1       8.473  -1.782  22.093  0.00  0.00    +0.000 A 
ATOM      8  C   UNL     1       8.777  -2.184  23.387  0.00  0.00    +0.000 A 
ATOM      9  C   UNL     1       9.611  -1.410  24.201  0.00  0.00    +0.000 A 
ATOM     10  C   UNL     1      10.057  -0.148  23.778  0.00  0.00    +0.000 A 
ATOM     11  C   UNL     1      10.844   0.658  24.774  0.00  0.00    +0.000 C 
ENDBRANCH   1   8
BRANCH   1  12
ATOM     12  N   UNL     1       6.673  -3.857  23.077  0.00  0.00    +0.000 NA
ATOM     13  C   UNL     1       5.363  -3.286  23.479  0.00  0.00    +0.000 C 
ATOM     14  C   UNL     1       4.206  -4.281  23.369  0.00  0.00    +0.000 C 
ATOM     15  N   UNL     1       4.623  -5.638  23.709  0.00  0.00    +0.000 N 
ATOM     16  C   UNL     1       3.951  -6.502  24.572  0.00  0.00    +0.000 C 
ATOM     17  O   UNL     1       4.142  -7.718  24.519  0.00  0.00    +0.000 OA
ATOM     18  C   UNL     1       5.695  -6.181  22.872  0.00  0.00    +0.000 C 
ATOM     19  C   UNL     1       6.616  -5.101  22.260  0.00  0.00    +0.000 C 
BRANCH  16  20
ATOM     20  C   UNL     1       3.050  -5.848  25.613  0.00  0.00    +0.000 C 
ATOM     21 CL   UNL     1       3.490  -6.326  27.266  0.00  0.00    +0.000 Cl
ENDBRANCH  16  20
ENDBRANCH   1  12
TORSDOF 3
ENDMDL
MODEL 7
REMARK VINA RESULT:      -6.6      3.246      5.027
REMARK  Name = 
REMARK  5 active torsions:
REMARK  status: ('A' for Active; 'I' for Inactive)
REMARK    1  A    between atoms: C_1  and  C_2
REMARK    2  A    between atoms: C_5  and  S_6
REMARK    3  A    between atoms: S_6  and  N_9
REMARK    4  A    between atoms: C_13  and  C_15
REMARK    5  A    between atoms: C_20  and  C_21
REMARK                            x       y       z     vdW  Elec       q    Type
REMARK                         _______ _______ _______ _____ _____    ______ ____
ROOT
ATOM      1  S   UNL     1       5.953  -4.566  23.077  0.00  0.00    +0.000 S 
ATOM      2  O   UNL     1       4.762  -4.776  22.273  0.00  0.00    +0.000 OA
ATOM      3  O   UNL     1       6.896  -5.636  23.317  0.00  0.00    +0.000 OA
ENDROOT
BRANCH   1   8
ATOM      4  C   UNL     1       8.859   0.415  21.229  0.00  0.00    +0.000 C 
ATOM      5  C   UNL     1       8.231  -0.894  21.617  0.00  0.00    +0.000 A 
ATOM      6  C   UNL     1       6.912  -1.129  21.183  0.00  0.00    +0.000 A 
ATOM      7  C   UNL     1       6.214  -2.281  21.557  0.00  0.00    +0.000 A 
ATOM      8  C   UNL     1       6.849  -3.206  22.375  0.00  0.00    +0.000 A 
ATOM      9  C   UNL     1       8.183  -3.027  22.757  0.00  0.00    +0.000 A 
ATOM     10  C   UNL     1       8.872  -1.849  22.431  0.00  0.00    +0.000 A 
ATOM     11  C   UNL     1      10.258  -1.700  22.994  0.00  0.00    +0.000 C 
ENDBRANCH   1   8
BRANCH   1  12
ATOM     12  N   UNL     1       5.494  -3.956  24.593  0.00  0.00    +0.000 NA
ATOM     13  C   UNL     1       4.888  -2.602  24.656  0.00  0.00    +0.000 C 
ATOM     14  C   UNL     1       5.505  -1.709  25.735  0.00  0.00    +0.000 C 
ATOM     15  N   UNL     1       6.937  -1.951  25.886  0.00  0.00    +0.000 N 
ATOM     16  C   UNL     1       7.925  -0.969  25.938  0.00  0.00    +0.000 C 
ATOM     17  O   UNL     1       9.027  -1.212  26.431  0.00  0.00    +0.000 OA
ATOM     18  C   UNL     1       7.295  -3.323  26.253  0.00  0.00    +0.000 C 
ATOM     19  C   UNL     1       6.264  -4.379  25.796  0.00  0.00    +0.000 C 
BRANCH  16  20
ATOM     20  C   UNL     1       7.584   0.365  25.285  0.00  0.00    +0.000 C 
ATOM     21 CL   UNL     1       9.040   1.274  24.831  0.00  0.00    +0.000 Cl
ENDBRANCH  16  20
ENDBRANCH   1  12
TORSDOF 3
ENDMDL
MODEL 8
REMARK VINA RESULT:      -6.6      2.912      3.755
REMARK  Name = 
REMARK  5 active torsions:
REMARK  status: ('A' for Active; 'I' for Inactive)
REMARK    1  A    between atoms: C_1  and  C_2
REMARK    2  A    between atoms: C_5  and  S_6
REMARK    3  A    between atoms: S_6  and  N_9
REMARK    4  A    between atoms: C_13  and  C_15
REMARK    5  A    between atoms: C_20  and  C_21
REMARK                            x       y       z     vdW  Elec       q    Type
REMARK                         _______ _______ _______ _____ _____    ______ ____
ROOT
ATOM      1  S   UNL     1       8.565  -3.774  23.903  0.00  0.00    +0.000 S 
ATOM      2  O   UNL     1       8.067  -4.466  22.728  0.00  0.00    +0.000 OA
ATOM      3  O   UNL     1       9.724  -4.253  24.624  0.00  0.00    +0.000 OA
ENDROOT
BRANCH   1   8
ATOM      4  C   UNL     1      10.141   1.759  22.014  0.00  0.00    +0.000 C 
ATOM      5  C   UNL     1       9.619   0.430  22.482  0.00  0.00    +0.000 A 
ATOM      6  C   UNL     1      10.035  -0.014  23.752  0.00  0.00    +0.000 A 
ATOM      7  C   UNL     1       9.668  -1.271  24.243  0.00  0.00    +0.000 A 
ATOM      8  C   UNL     1       8.874  -2.088  23.449  0.00  0.00    +0.000 A 
ATOM      9  C   UNL     1       8.390  -1.637  22.216  0.00  0.00    +0.000 A 
ATOM     10  C   UNL     1       8.798  -0.400  21.693  0.00  0.00    +0.000 A 
ATOM     11  C   UNL     1       8.321  -0.064  20.307  0.00  0.00    +0.000 C 
ENDBRANCH   1   8
BRANCH   1  12
ATOM     12  N   UNL     1       7.305  -3.623  25.030  0.00  0.00    +0.000 NA
ATOM     13  C   UNL     1       6.926  -4.814  25.831  0.00  0.00    +0.000 C 
ATOM     14  C   UNL     1       5.418  -5.072  25.862  0.00  0.00    +0.000 C 
ATOM     15  N   UNL     1       4.782  -4.728  24.594  0.00  0.00    +0.000 N 
ATOM     16  C   UNL     1       3.881  -5.529  23.893  0.00  0.00    +0.000 C 
ATOM     17  O   UNL     1       3.120  -5.038  23.060  0.00  0.00    +0.000 OA
ATOM     18  C   UNL     1       4.937  -3.330  24.186  0.00  0.00    +0.000 C 
ATOM     19  C   UNL     1       6.208  -2.654  24.749  0.00  0.00    +0.000 C 
BRANCH  16  20
ATOM     20  C   UNL     1       3.960  -7.027  24.165  0.00  0.00    +0.000 C 
ATOM     21 CL   UNL     1       2.657  -7.576  25.240  0.00  0.00    +0.000 Cl
ENDBRANCH  16  20
ENDBRANCH   1  12
TORSDOF 3
ENDMDL
MODEL 9
REMARK VINA RESULT:      -6.5      2.684      3.141
REMARK  Name = 
REMARK  5 active torsions:
REMARK  status: ('A' for Active; 'I' for Inactive)
REMARK    1  A    between atoms: C_1  and  C_2
REMARK    2  A    between atoms: C_5  and  S_6
REMARK    3  A    between atoms: S_6  and  N_9
REMARK    4  A    between atoms: C_13  and  C_15
REMARK    5  A    between atoms: C_20  and  C_21
REMARK                            x       y       z     vdW  Elec       q    Type
REMARK                         _______ _______ _______ _____ _____    ______ ____
ROOT
ATOM      1  S   UNL     1       8.566  -1.159  24.225  0.00  0.00    +0.000 S 
ATOM      2  O   UNL     1       9.875  -0.719  24.673  0.00  0.00    +0.000 OA
ATOM      3  O   UNL     1       7.385  -0.950  25.033  0.00  0.00    +0.000 OA
ENDROOT
BRANCH   1   8
ATOM      4  C   UNL     1       6.982   0.958  18.777  0.00  0.00    +0.000 C 
ATOM      5  C   UNL     1       7.435   0.555  20.152  0.00  0.00    +0.000 A 
ATOM      6  C   UNL     1       8.337  -0.523  20.242  0.00  0.00    +0.000 A 
ATOM      7  C   UNL     1       8.756  -1.023  21.479  0.00  0.00    +0.000 A 
ATOM      8  C   UNL     1       8.265  -0.433  22.635  0.00  0.00    +0.000 A 
ATOM      9  C   UNL     1       7.425   0.684  22.568  0.00  0.00    +0.000 A 
ATOM     10  C   UNL     1       6.958   1.158  21.332  0.00  0.00    +0.000 A 
ATOM     11  C   UNL     1       5.963   2.285  21.375  0.00  0.00    +0.000 C 
ENDBRANCH   1   8
BRANCH   1  12
ATOM     12  N   UNL     1       8.635  -2.816  23.862  0.00  0.00    +0.000 NA
ATOM     13  C   UNL     1       7.382  -3.506  23.468  0.00  0.00    +0.000 C 
ATOM     14  C   UNL     1       7.153  -4.824  24.212  0.00  0.00    +0.000 C 
ATOM     15  N   UNL     1       7.629  -4.758  25.590  0.00  0.00    +0.000 N 
ATOM     16  C   UNL     1       6.916  -5.170  26.716  0.00  0.00    +0.000 C 
ATOM     17  O   UNL     1       7.500  -5.433  27.767  0.00  0.00    +0.000 OA
ATOM     18  C   UNL     1       9.055  -4.462  25.737  0.00  0.00    +0.000 C 
ATOM     19  C   UNL     1       9.648  -3.658  24.559  0.00  0.00    +0.000 C 
BRANCH  16  20
ATOM     20  C   UNL     1       5.398  -5.193  26.581  0.00  0.00    +0.000 C 
ATOM     21 CL   UNL     1       4.793  -6.808  26.156  0.00  0.00    +0.000 Cl
ENDBRANCH  16  20
ENDBRANCH   1  12
TORSDOF 3
ENDMDL
