MODEL 1
REMARK VINA RESULT:      -6.4      0.000      0.000
REMARK  Name = 
REMARK  6 active torsions:
REMARK  status: ('A' for Active; 'I' for Inactive)
REMARK    1  A    between atoms: C_1  and  C_2
REMARK    2  A    between atoms: C_2  and  O_3
REMARK    3  A    between atoms: O_3  and  C_4
REMARK    4  A    between atoms: C_7  and  S_8
REMARK    5  A    between atoms: S_8  and  N_11
REMARK    6  A    between atoms: C_15  and  C_17
REMARK                            x       y       z     vdW  Elec       q    Type
REMARK                         _______ _______ _______ _____ _____    ______ ____
ROOT
ATOM      1  S   UNL     1       8.931  -2.038  23.285  0.00  0.00    +0.000 S 
ATOM      2  O   UNL     1      10.169  -2.486  22.684  0.00  0.00    +0.000 OA
ATOM      3  O   UNL     1       7.710  -2.036  22.507  0.00  0.00    +0.000 OA
ENDROOT
BRANCH   1   4
ATOM      4  N   UNL     1       9.221  -0.445  23.855  0.00  0.00    +0.000 NA
ATOM      5  C   UNL     1       8.100   0.473  24.225  0.00  0.00    +0.000 C 
ATOM      6  C   UNL     1       7.679   1.421  23.078  0.00  0.00    +0.000 C 
ATOM      7  N   UNL     1       8.210   0.990  21.783  0.00  0.00    +0.000 N 
ATOM      8  C   UNL     1       7.358   0.939  20.688  0.00  0.00    +0.000 C 
ATOM      9  O   UNL     1       6.258   1.498  20.722  0.00  0.00    +0.000 OA
ATOM     10  C   UNL     1       9.670   0.800  21.732  0.00  0.00    +0.000 C 
ATOM     11  C   UNL     1      10.255   0.296  23.071  0.00  0.00    +0.000 C 
BRANCH   8  12
ATOM     12  C   UNL     1       7.802   0.095  19.496  0.00  0.00    +0.000 C 
ATOM     13 CL   UNL     1       6.389  -0.373  18.511  0.00  0.00    +0.000 Cl
ENDBRANCH   8  12
ENDBRANCH   1   4
BRANCH   1  17
ATOM     14  C   UNL     1       7.926  -4.781  26.764  0.00  0.00    +0.000 A 
ATOM     15  C   UNL     1       7.369  -3.498  26.726  0.00  0.00    +0.000 A 
ATOM     16  C   UNL     1       7.713  -2.616  25.697  0.00  0.00    +0.000 A 
ATOM     17  C   UNL     1       8.616  -3.034  24.718  0.00  0.00    +0.000 A 
ATOM     18  C   UNL     1       9.263  -4.267  24.834  0.00  0.00    +0.000 A 
ATOM     19  C   UNL     1       8.878  -5.160  25.826  0.00  0.00    +0.000 A 
BRANCH  14  20
ATOM     20  O   UNL     1       7.519  -5.767  27.617  0.00  0.00    +0.000 OA
BRANCH  20  22
ATOM     21  C   UNL     1       5.268  -6.517  27.243  0.00  0.00    +0.000 C 
ATOM     22  C   UNL     1       6.176  -5.645  28.088  0.00  0.00    +0.000 C 
ENDBRANCH  20  22
ENDBRANCH  14  20
ENDBRANCH   1  17
TORSDOF 5
ENDMDL
MODEL 2
REMARK VINA RESULT:      -6.1      3.664      7.225
REMARK  Name = 
REMARK  6 active torsions:
REMARK  status: ('A' for Active; 'I' for Inactive)
REMARK    1  A    between atoms: C_1  and  C_2
REMARK    2  A    between atoms: C_2  and  O_3
REMARK    3  A    between atoms: O_3  and  C_4
REMARK    4  A    between atoms: C_7  and  S_8
REMARK    5  A    between atoms: S_8  and  N_11
REMARK    6  A    between atoms: C_15  and  C_17
REMARK                            x       y       z     vdW  Elec       q    Type
REMARK                         _______ _______ _______ _____ _____    ______ ____
ROOT
ATOM      1  S   UNL     1       9.039  -2.463  24.405  0.00  0.00    +0.000 S 
ATOM      2  O   UNL     1      10.038  -3.467  24.106  0.00  0.00    +0.000 OA
ATOM      3  O   UNL     1       8.572  -2.290  25.764  0.00  0.00    +0.000 OA
ENDROOT
BRANCH   1   4
ATOM      4  N   UNL     1       7.691  -2.813  23.402  0.00  0.00    +0.000 NA
ATOM      5  C   UNL     1       6.339  -2.233  23.673  0.00  0.00    +0.000 C 
ATOM      6  C   UNL     1       5.424  -3.167  24.497  0.00  0.00    +0.000 C 
ATOM      7  N   UNL     1       6.173  -4.252  25.134  0.00  0.00    +0.000 N 
ATOM      8  C   UNL     1       5.952  -4.526  26.477  0.00  0.00    +0.000 C 
ATOM      9  O   UNL     1       4.963  -4.069  27.057  0.00  0.00    +0.000 OA
ATOM     10  C   UNL     1       6.994  -5.071  24.224  0.00  0.00    +0.000 C 
ATOM     11  C   UNL     1       7.567  -4.257  23.041  0.00  0.00    +0.000 C 
BRANCH   8  12
ATOM     12  C   UNL     1       7.021  -5.333  27.210  0.00  0.00    +0.000 C 
ATOM     13 CL   UNL     1       6.311  -6.148  28.631  0.00  0.00    +0.000 Cl
ENDBRANCH   8  12
ENDBRANCH   1   4
BRANCH   1  17
ATOM     14  C   UNL     1      10.344   1.712  23.177  0.00  0.00    +0.000 A 
ATOM     15  C   UNL     1       9.947   0.805  22.189  0.00  0.00    +0.000 A 
ATOM     16  C   UNL     1       9.600  -0.504  22.539  0.00  0.00    +0.000 A 
ATOM     17  C   UNL     1       9.659  -0.887  23.879  0.00  0.00    +0.000 A 
ATOM     18  C   UNL     1      10.178  -0.015  24.840  0.00  0.00    +0.000 A 
ATOM     19  C   UNL     1      10.469   1.299  24.498  0.00  0.00    +0.000 A 
BRANCH  14  20
ATOM     20  O   UNL     1      10.527   3.048  22.961  0.00  0.00    +0.000 OA
BRANCH  20  22
ATOM     21  C   UNL     1      10.348   5.276  23.840  0.00  0.00    +0.000 C 
ATOM     22  C   UNL     1       9.702   3.908  23.748  0.00  0.00    +0.000 C 
ENDBRANCH  20  22
ENDBRANCH  14  20
ENDBRANCH   1  17
TORSDOF 5
ENDMDL
MODEL 3
REMARK VINA RESULT:      -6.1      2.715      6.605
REMARK  Name = 
REMARK  6 active torsions:
REMARK  status: ('A' for Active; 'I' for Inactive)
REMARK    1  A    between atoms: C_1  and  C_2
REMARK    2  A    between atoms: C_2  and  O_3
REMARK    3  A    between atoms: O_3  and  C_4
REMARK    4  A    between atoms: C_7  and  S_8
REMARK    5  A    between atoms: S_8  and  N_11
REMARK    6  A    between atoms: C_15  and  C_17
REMARK                            x       y       z     vdW  Elec       q    Type
REMARK                         _______ _______ _______ _____ _____    ______ ____
ROOT
ATOM      1  S   UNL     1       7.335  -0.161  24.583  0.00  0.00    +0.000 S 
ATOM      2  O   UNL     1       7.406   1.221  25.009  0.00  0.00    +0.000 OA
ATOM      3  O   UNL     1       6.185  -0.967  24.935  0.00  0.00    +0.000 OA
ENDROOT
BRANCH   1   4
ATOM      4  N   UNL     1       8.747  -0.924  25.191  0.00  0.00    +0.000 NA
ATOM      5  C   UNL     1       9.676  -1.683  24.298  0.00  0.00    +0.000 C 
ATOM      6  C   UNL     1       9.390  -3.202  24.262  0.00  0.00    +0.000 C 
ATOM      7  N   UNL     1       8.075  -3.529  24.817  0.00  0.00    +0.000 N 
ATOM      8  C   UNL     1       7.240  -4.386  24.113  0.00  0.00    +0.000 C 
ATOM      9  O   UNL     1       7.682  -5.076  23.190  0.00  0.00    +0.000 OA
ATOM     10  C   UNL     1       7.824  -3.029  26.180  0.00  0.00    +0.000 C 
ATOM     11  C   UNL     1       8.524  -1.679  26.461  0.00  0.00    +0.000 C 
BRANCH   8  12
ATOM     12  C   UNL     1       5.756  -4.365  24.470  0.00  0.00    +0.000 C 
ATOM     13 CL   UNL     1       4.784  -3.916  23.042  0.00  0.00    +0.000 Cl
ENDBRANCH   8  12
ENDBRANCH   1   4
BRANCH   1  17
ATOM     14  C   UNL     1       7.432  -0.031  20.043  0.00  0.00    +0.000 A 
ATOM     15  C   UNL     1       6.813  -1.112  20.680  0.00  0.00    +0.000 A 
ATOM     16  C   UNL     1       6.826  -1.202  22.076  0.00  0.00    +0.000 A 
ATOM     17  C   UNL     1       7.463  -0.206  22.815  0.00  0.00    +0.000 A 
ATOM     18  C   UNL     1       8.186   0.799  22.169  0.00  0.00    +0.000 A 
ATOM     19  C   UNL     1       8.126   0.916  20.786  0.00  0.00    +0.000 A 
BRANCH  14  20
ATOM     20  O   UNL     1       7.319   0.238  18.709  0.00  0.00    +0.000 OA
BRANCH  20  22
ATOM     21  C   UNL     1       5.198   1.364  18.670  0.00  0.00    +0.000 C 
ATOM     22  C   UNL     1       5.992   0.166  18.187  0.00  0.00    +0.000 C 
ENDBRANCH  20  22
ENDBRANCH  14  20
ENDBRANCH   1  17
TORSDOF 5
ENDMDL
MODEL 4
REMARK VINA RESULT:      -6.1      2.919      6.164
REMARK  Name = 
REMARK  6 active torsions:
REMARK  status: ('A' for Active; 'I' for Inactive)
REMARK    1  A    between atoms: C_1  and  C_2
REMARK    2  A    between atoms: C_2  and  O_3
REMARK    3  A    between atoms: O_3  and  C_4
REMARK    4  A    between atoms: C_7  and  S_8
REMARK    5  A    between atoms: S_8  and  N_11
REMARK    6  A    between atoms: C_15  and  C_17
REMARK                            x       y       z     vdW  Elec       q    Type
REMARK                         _______ _______ _______ _____ _____    ______ ____
ROOT
ATOM      1  S   UNL     1       8.190  -3.084  23.507  0.00  0.00    +0.000 S 
ATOM      2  O   UNL     1       7.798  -4.386  23.011  0.00  0.00    +0.000 OA
ATOM      3  O   UNL     1       9.557  -2.852  23.925  0.00  0.00    +0.000 OA
ENDROOT
BRANCH   1   4
ATOM      4  N   UNL     1       7.146  -2.738  24.825  0.00  0.00    +0.000 NA
ATOM      5  C   UNL     1       6.128  -1.644  24.753  0.00  0.00    +0.000 C 
ATOM      6  C   UNL     1       6.622  -0.306  25.349  0.00  0.00    +0.000 C 
ATOM      7  N   UNL     1       8.075  -0.286  25.531  0.00  0.00    +0.000 N 
ATOM      8  C   UNL     1       8.794   0.816  25.089  0.00  0.00    +0.000 C 
ATOM      9  O   UNL     1       8.218   1.870  24.803  0.00  0.00    +0.000 OA
ATOM     10  C   UNL     1       8.625  -1.394  26.330  0.00  0.00    +0.000 C 
ATOM     11  C   UNL     1       7.836  -2.711  26.149  0.00  0.00    +0.000 C 
BRANCH   8  12
ATOM     12  C   UNL     1      10.297   0.635  24.890  0.00  0.00    +0.000 C 
ATOM     13 CL   UNL     1      10.938   1.918  23.827  0.00  0.00    +0.000 Cl
ENDBRANCH   8  12
ENDBRANCH   1   4
BRANCH   1  17
ATOM     14  C   UNL     1       7.356  -0.234  20.070  0.00  0.00    +0.000 A 
ATOM     15  C   UNL     1       8.506  -0.048  20.844  0.00  0.00    +0.000 A 
ATOM     16  C   UNL     1       8.750  -0.876  21.944  0.00  0.00    +0.000 A 
ATOM     17  C   UNL     1       7.833  -1.881  22.255  0.00  0.00    +0.000 A 
ATOM     18  C   UNL     1       6.627  -1.977  21.556  0.00  0.00    +0.000 A 
ATOM     19  C   UNL     1       6.414  -1.190  20.432  0.00  0.00    +0.000 A 
BRANCH  14  20
ATOM     20  O   UNL     1       7.122   0.399  18.882  0.00  0.00    +0.000 OA
BRANCH  20  22
ATOM     21  C   UNL     1       4.992   1.509  18.924  0.00  0.00    +0.000 C 
ATOM     22  C   UNL     1       5.777   0.319  18.408  0.00  0.00    +0.000 C 
ENDBRANCH  20  22
ENDBRANCH  14  20
ENDBRANCH   1  17
TORSDOF 5
ENDMDL
MODEL 5
REMARK VINA RESULT:      -6.1      3.236      6.627
REMARK  Name = 
REMARK  6 active torsions:
REMARK  status: ('A' for Active; 'I' for Inactive)
REMARK    1  A    between atoms: C_1  and  C_2
REMARK    2  A    between atoms: C_2  and  O_3
REMARK    3  A    between atoms: O_3  and  C_4
REMARK    4  A    between atoms: C_7  and  S_8
REMARK    5  A    between atoms: S_8  and  N_11
REMARK    6  A    between atoms: C_15  and  C_17
REMARK                            x       y       z     vdW  Elec       q    Type
REMARK                         _______ _______ _______ _____ _____    ______ ____
ROOT
ATOM      1  S   UNL     1       8.973  -4.499  24.597  0.00  0.00    +0.000 S 
ATOM      2  O   UNL     1       8.363  -5.559  23.822  0.00  0.00    +0.000 OA
ATOM      3  O   UNL     1      10.355  -4.613  25.014  0.00  0.00    +0.000 OA
ENDROOT
BRANCH   1   4
ATOM      4  N   UNL     1       7.993  -4.298  25.991  0.00  0.00    +0.000 NA
ATOM      5  C   UNL     1       7.459  -5.470  26.752  0.00  0.00    +0.000 C 
ATOM      6  C   UNL     1       6.028  -5.875  26.330  0.00  0.00    +0.000 C 
ATOM      7  N   UNL     1       5.636  -5.269  25.056  0.00  0.00    +0.000 N 
ATOM      8  C   UNL     1       5.055  -6.067  24.080  0.00  0.00    +0.000 C 
ATOM      9  O   UNL     1       4.622  -7.189  24.361  0.00  0.00    +0.000 OA
ATOM     10  C   UNL     1       5.753  -3.801  24.994  0.00  0.00    +0.000 C 
ATOM     11  C   UNL     1       6.931  -3.259  25.836  0.00  0.00    +0.000 C 
BRANCH   8  12
ATOM     12  C   UNL     1       5.060  -5.536  22.648  0.00  0.00    +0.000 C 
ATOM     13 CL   UNL     1       6.328  -6.352  21.693  0.00  0.00    +0.000 Cl
ENDBRANCH   8  12
ENDBRANCH   1   4
BRANCH   1  17
ATOM     14  C   UNL     1       8.832  -0.782  21.989  0.00  0.00    +0.000 A 
ATOM     15  C   UNL     1       9.637  -0.781  23.133  0.00  0.00    +0.000 A 
ATOM     16  C   UNL     1       9.648  -1.891  23.982  0.00  0.00    +0.000 A 
ATOM     17  C   UNL     1       8.847  -2.991  23.673  0.00  0.00    +0.000 A 
ATOM     18  C   UNL     1       7.952  -2.933  22.601  0.00  0.00    +0.000 A 
ATOM     19  C   UNL     1       7.984  -1.852  21.730  0.00  0.00    +0.000 A 
BRANCH  14  20
ATOM     20  O   UNL     1       8.888   0.171  21.012  0.00  0.00    +0.000 OA
BRANCH  20  22
ATOM     21  C   UNL     1       7.491   0.283  19.061  0.00  0.00    +0.000 C 
ATOM     22  C   UNL     1       7.620   0.623  20.533  0.00  0.00    +0.000 C 
ENDBRANCH  20  22
ENDBRANCH  14  20
ENDBRANCH   1  17
TORSDOF 5
ENDMDL
MODEL 6
REMARK VINA RESULT:      -5.9      3.350      7.053
REMARK  Name = 
REMARK  6 active torsions:
REMARK  status: ('A' for Active; 'I' for Inactive)
REMARK    1  A    between atoms: C_1  and  C_2
REMARK    2  A    between atoms: C_2  and  O_3
REMARK    3  A    between atoms: O_3  and  C_4
REMARK    4  A    between atoms: C_7  and  S_8
REMARK    5  A    between atoms: S_8  and  N_11
REMARK    6  A    between atoms: C_15  and  C_17
REMARK                            x       y       z     vdW  Elec       q    Type
REMARK                         _______ _______ _______ _____ _____    ______ ____
ROOT
ATOM      1  S   UNL     1       7.660  -1.283  23.547  0.00  0.00    +0.000 S 
ATOM      2  O   UNL     1       6.433  -0.735  24.086  0.00  0.00    +0.000 OA
ATOM      3  O   UNL     1       7.645  -1.974  22.275  0.00  0.00    +0.000 OA
ENDROOT
BRANCH   1   4
ATOM      4  N   UNL     1       8.277  -2.348  24.743  0.00  0.00    +0.000 NA
ATOM      5  C   UNL     1       9.210  -3.464  24.395  0.00  0.00    +0.000 C 
ATOM      6  C   UNL     1       8.494  -4.816  24.174  0.00  0.00    +0.000 C 
ATOM      7  N   UNL     1       7.049  -4.654  24.003  0.00  0.00    +0.000 N 
ATOM      8  C   UNL     1       6.417  -5.306  22.952  0.00  0.00    +0.000 C 
ATOM      9  O   UNL     1       6.988  -6.214  22.342  0.00  0.00    +0.000 OA
ATOM     10  C   UNL     1       6.364  -3.924  25.084  0.00  0.00    +0.000 C 
ATOM     11  C   UNL     1       7.247  -2.823  25.715  0.00  0.00    +0.000 C 
BRANCH   8  12
ATOM     12  C   UNL     1       5.041  -4.791  22.537  0.00  0.00    +0.000 C 
ATOM     13 CL   UNL     1       3.771  -5.921  23.079  0.00  0.00    +0.000 Cl
ENDBRANCH   8  12
ENDBRANCH   1   4
BRANCH   1  17
ATOM     14  C   UNL     1      10.421   2.307  23.194  0.00  0.00    +0.000 A 
ATOM     15  C   UNL     1      10.115   1.568  22.046  0.00  0.00    +0.000 A 
ATOM     16  C   UNL     1       9.317   0.424  22.142  0.00  0.00    +0.000 A 
ATOM     17  C   UNL     1       8.838   0.034  23.393  0.00  0.00    +0.000 A 
ATOM     18  C   UNL     1       9.252   0.703  24.548  0.00  0.00    +0.000 A 
ATOM     19  C   UNL     1       9.998   1.869  24.442  0.00  0.00    +0.000 A 
BRANCH  14  20
ATOM     20  O   UNL     1      11.037   3.527  23.177  0.00  0.00    +0.000 OA
BRANCH  20  22
ATOM     21  C   UNL     1      11.122   5.859  23.745  0.00  0.00    +0.000 C 
ATOM     22  C   UNL     1      10.340   4.566  23.867  0.00  0.00    +0.000 C 
ENDBRANCH  20  22
ENDBRANCH  14  20
ENDBRANCH   1  17
TORSDOF 5
ENDMDL
MODEL 7
REMARK VINA RESULT:      -5.9      3.676      7.279
REMARK  Name = 
REMARK  6 active torsions:
REMARK  status: ('A' for Active; 'I' for Inactive)
REMARK    1  A    between atoms: C_1  and  C_2
REMARK    2  A    between atoms: C_2  and  O_3
REMARK    3  A    between atoms: O_3  and  C_4
REMARK    4  A    between atoms: C_7  and  S_8
REMARK    5  A    between atoms: S_8  and  N_11
REMARK    6  A    between atoms: C_15  and  C_17
REMARK                            x       y       z     vdW  Elec       q    Type
REMARK                         _______ _______ _______ _____ _____    ______ ____
ROOT
ATOM      1  S   UNL     1       8.091  -1.676  25.149  0.00  0.00    +0.000 S 
ATOM      2  O   UNL     1       8.526  -2.182  26.434  0.00  0.00    +0.000 OA
ATOM      3  O   UNL     1       6.677  -1.538  24.868  0.00  0.00    +0.000 OA
ENDROOT
BRANCH   1   4
ATOM      4  N   UNL     1       8.790  -2.704  23.966  0.00  0.00    +0.000 NA
ATOM      5  C   UNL     1       8.038  -3.113  22.739  0.00  0.00    +0.000 C 
ATOM      6  C   UNL     1       7.325  -4.477  22.882  0.00  0.00    +0.000 C 
ATOM      7  N   UNL     1       7.236  -4.909  24.279  0.00  0.00    +0.000 N 
ATOM      8  C   UNL     1       6.020  -5.369  24.766  0.00  0.00    +0.000 C 
ATOM      9  O   UNL     1       5.107  -5.673  23.992  0.00  0.00    +0.000 OA
ATOM     10  C   UNL     1       8.517  -4.964  25.004  0.00  0.00    +0.000 C 
ATOM     11  C   UNL     1       9.514  -3.878  24.540  0.00  0.00    +0.000 C 
BRANCH   8  12
ATOM     12  C   UNL     1       5.839  -5.395  26.282  0.00  0.00    +0.000 C 
ATOM     13 CL   UNL     1       4.897  -6.831  26.767  0.00  0.00    +0.000 Cl
ENDBRANCH   8  12
ENDBRANCH   1   4
BRANCH   1  17
ATOM     14  C   UNL     1       9.782   2.441  24.236  0.00  0.00    +0.000 A 
ATOM     15  C   UNL     1      10.631   1.330  24.188  0.00  0.00    +0.000 A 
ATOM     16  C   UNL     1      10.145   0.062  24.525  0.00  0.00    +0.000 A 
ATOM     17  C   UNL     1       8.812  -0.073  24.910  0.00  0.00    +0.000 A 
ATOM     18  C   UNL     1       8.007   1.057  25.078  0.00  0.00    +0.000 A 
ATOM     19  C   UNL     1       8.476   2.305  24.690  0.00  0.00    +0.000 A 
BRANCH  14  20
ATOM     20  O   UNL     1      10.111   3.677  23.758  0.00  0.00    +0.000 OA
BRANCH  20  22
ATOM     21  C   UNL     1      11.858   5.296  23.451  0.00  0.00    +0.000 C 
ATOM     22  C   UNL     1      11.476   3.831  23.367  0.00  0.00    +0.000 C 
ENDBRANCH  20  22
ENDBRANCH  14  20
ENDBRANCH   1  17
TORSDOF 5
ENDMDL
MODEL 8
REMARK VINA RESULT:      -5.9      3.479      7.462
REMARK  Name = 
REMARK  6 active torsions:
REMARK  status: ('A' for Active; 'I' for Inactive)
REMARK    1  A    between atoms: C_1  and  C_2
REMARK    2  A    between atoms: C_2  and  O_3
REMARK    3  A    between atoms: O_3  and  C_4
REMARK    4  A    between atoms: C_7  and  S_8
REMARK    5  A    between atoms: S_8  and  N_11
REMARK    6  A    between atoms: C_15  and  C_17
REMARK                            x       y       z     vdW  Elec       q    Type
REMARK                         _______ _______ _______ _____ _____    ______ ____
ROOT
ATOM      1  S   UNL     1       7.990  -2.227  24.355  0.00  0.00    +0.000 S 
ATOM      2  O   UNL     1       9.067  -1.667  25.145  0.00  0.00    +0.000 OA
ATOM      3  O   UNL     1       6.646  -2.268  24.892  0.00  0.00    +0.000 OA
ENDROOT
BRANCH   1   4
ATOM      4  N   UNL     1       8.471  -3.825  23.953  0.00  0.00    +0.000 NA
ATOM      5  C   UNL     1       7.524  -4.792  23.315  0.00  0.00    +0.000 C 
ATOM      6  C   UNL     1       6.818  -5.719  24.331  0.00  0.00    +0.000 C 
ATOM      7  N   UNL     1       6.947  -5.232  25.706  0.00  0.00    +0.000 N 
ATOM      8  C   UNL     1       5.818  -5.178  26.511  0.00  0.00    +0.000 C 
ATOM      9  O   UNL     1       4.787  -5.776  26.189  0.00  0.00    +0.000 OA
ATOM     10  C   UNL     1       8.327  -4.991  26.162  0.00  0.00    +0.000 C 
ATOM     11  C   UNL     1       9.256  -4.506  25.025  0.00  0.00    +0.000 C 
BRANCH   8  12
ATOM     12  C   UNL     1       5.883  -4.285  27.748  0.00  0.00    +0.000 C 
ATOM     13 CL   UNL     1       5.485  -5.227  29.211  0.00  0.00    +0.000 Cl
ENDBRANCH   8  12
ENDBRANCH   1   4
BRANCH   1  17
ATOM     14  C   UNL     1       7.802  -0.225  20.282  0.00  0.00    +0.000 A 
ATOM     15  C   UNL     1       8.929  -0.025  21.087  0.00  0.00    +0.000 A 
ATOM     16  C   UNL     1       8.980  -0.582  22.369  0.00  0.00    +0.000 A 
ATOM     17  C   UNL     1       7.897  -1.331  22.828  0.00  0.00    +0.000 A 
ATOM     18  C   UNL     1       6.727  -1.419  22.069  0.00  0.00    +0.000 A 
ATOM     19  C   UNL     1       6.700  -0.912  20.776  0.00  0.00    +0.000 A 
BRANCH  14  20
ATOM     20  O   UNL     1       7.733   0.122  18.962  0.00  0.00    +0.000 OA
BRANCH  20  22
ATOM     21  C   UNL     1       5.902   1.245  17.888  0.00  0.00    +0.000 C 
ATOM     22  C   UNL     1       6.461  -0.087  18.347  0.00  0.00    +0.000 C 
ENDBRANCH  20  22
ENDBRANCH  14  20
ENDBRANCH   1  17
TORSDOF 5
ENDMDL
MODEL 9
REMARK VINA RESULT:      -5.8      3.921      6.732
REMARK  Name = 
REMARK  6 active torsions:
REMARK  status: ('A' for Active; 'I' for Inactive)
REMARK    1  A    between atoms: C_1  and  C_2
REMARK    2  A    between atoms: C_2  and  O_3
REMARK    3  A    between atoms: O_3  and  C_4
REMARK    4  A    between atoms: C_7  and  S_8
REMARK    5  A    between atoms: S_8  and  N_11
REMARK    6  A    between atoms: C_15  and  C_17
REMARK                            x       y       z     vdW  Elec       q    Type
REMARK                         _______ _______ _______ _____ _____    ______ ____
ROOT
ATOM      1  S   UNL     1       8.033  -4.083  24.327  0.00  0.00    +0.000 S 
ATOM      2  O   UNL     1       8.988  -5.148  24.107  0.00  0.00    +0.000 OA
ATOM      3  O   UNL     1       7.125  -4.147  25.453  0.00  0.00    +0.000 OA
ENDROOT
BRANCH   1   4
ATOM      4  N   UNL     1       7.111  -3.958  22.884  0.00  0.00    +0.000 NA
ATOM      5  C   UNL     1       5.853  -3.152  22.823  0.00  0.00    +0.000 C 
ATOM      6  C   UNL     1       4.575  -3.988  23.059  0.00  0.00    +0.000 C 
ATOM      7  N   UNL     1       4.874  -5.301  23.636  0.00  0.00    +0.000 N 
ATOM      8  C   UNL     1       4.138  -5.740  24.729  0.00  0.00    +0.000 C 
ATOM      9  O   UNL     1       3.083  -5.181  25.042  0.00  0.00    +0.000 OA
ATOM     10  C   UNL     1       5.843  -6.115  22.882  0.00  0.00    +0.000 C 
ATOM     11  C   UNL     1       6.921  -5.261  22.177  0.00  0.00    +0.000 C 
BRANCH   8  12
ATOM     12  C   UNL     1       4.735  -6.871  25.564  0.00  0.00    +0.000 C 
ATOM     13 CL   UNL     1       5.031  -6.315  27.233  0.00  0.00    +0.000 Cl
ENDBRANCH   8  12
ENDBRANCH   1   4
BRANCH   1  17
ATOM     14  C   UNL     1      10.032  -0.016  24.657  0.00  0.00    +0.000 A 
ATOM     15  C   UNL     1      10.310  -0.824  23.549  0.00  0.00    +0.000 A 
ATOM     16  C   UNL     1       9.754  -2.103  23.458  0.00  0.00    +0.000 A 
ATOM     17  C   UNL     1       8.925  -2.558  24.484  0.00  0.00    +0.000 A 
ATOM     18  C   UNL     1       8.756  -1.798  25.644  0.00  0.00    +0.000 A 
ATOM     19  C   UNL     1       9.265  -0.507  25.706  0.00  0.00    +0.000 A 
BRANCH  14  20
ATOM     20  O   UNL     1      10.378   1.302  24.750  0.00  0.00    +0.000 OA
BRANCH  20  22
ATOM     21  C   UNL     1       9.142   2.763  23.300  0.00  0.00    +0.000 C 
ATOM     22  C   UNL     1      10.436   2.002  23.507  0.00  0.00    +0.000 C 
ENDBRANCH  20  22
ENDBRANCH  14  20
ENDBRANCH   1  17
TORSDOF 5
ENDMDL
