
 OpenBabel06082022513D

 37 38  0  0  0  0  0  0  0  0999 V2000
    8.0657    5.2131    8.6306 C   0  0  0  0  0  0  0  0  0  0  0  0
    9.5119    4.8041    8.7324 C   0  0  0  0  0  0  0  0  0  0  0  0
    9.8038    3.4379    8.5683 C   0  0  0  0  0  0  0  0  0  0  0  0
   11.1083    2.9609    8.6684 C   0  0  0  0  0  0  0  0  0  0  0  0
   12.1462    3.8445    8.9283 C   0  0  0  0  0  0  0  0  0  0  0  0
   11.8805    5.2083    9.0752 C   0  0  0  0  0  0  0  0  0  0  0  0
   10.5700    5.7195    8.9716 C   0  0  0  0  0  0  0  0  0  0  0  0
   10.3854    7.2087    9.2598 C   0  0  0  0  0  0  0  0  0  0  0  0
    9.2801    7.8152    8.5337 N   0  0  0  0  0  0  0  0  0  0  0  0
    9.6243    8.3519    7.2168 C   0  0  0  0  0  0  0  0  0  0  0  0
    8.3346    8.6193    6.4124 C   0  0  0  0  0  0  0  0  0  0  0  0
    7.2866    9.3478    7.1494 N   0  0  0  0  0  0  0  0  0  0  0  0
    6.0755    9.7121    6.5450 C   0  0  0  0  0  0  0  0  0  0  0  0
    5.0889   10.0332    7.2160 O   0  0  0  0  0  0  0  0  0  0  0  0
    5.9849    9.7227    5.0302 C   0  0  0  0  0  0  0  0  0  0  0  0
    5.6012    8.0948    4.4367 Cl  0  0  0  0  0  0  0  0  0  0  0  0
    7.1913    9.0809    8.5913 C   0  0  0  0  0  0  0  0  0  0  0  0
    8.5353    8.8217    9.2898 C   0  0  0  0  0  0  0  0  0  0  0  0
    7.7689    5.8220    9.4897 H   0  0  0  0  0  0  0  0  0  0  0  0
    7.4016    4.3417    8.6252 H   0  0  0  0  0  0  0  0  0  0  0  0
    7.8860    5.7502    7.6954 H   0  0  0  0  0  0  0  0  0  0  0  0
    9.0029    2.7276    8.3721 H   0  0  0  0  0  0  0  0  0  0  0  0
   11.3059    1.8985    8.5624 H   0  0  0  0  0  0  0  0  0  0  0  0
   13.1641    3.4759    9.0252 H   0  0  0  0  0  0  0  0  0  0  0  0
   12.7115    5.8759    9.2946 H   0  0  0  0  0  0  0  0  0  0  0  0
   11.3146    7.7579    9.0563 H   0  0  0  0  0  0  0  0  0  0  0  0
   10.2227    7.2746   10.3436 H   0  0  0  0  0  0  0  0  0  0  0  0
   10.2389    7.6423    6.6490 H   0  0  0  0  0  0  0  0  0  0  0  0
   10.2022    9.2791    7.3126 H   0  0  0  0  0  0  0  0  0  0  0  0
    7.9054    7.6601    6.1013 H   0  0  0  0  0  0  0  0  0  0  0  0
    8.5908    9.1799    5.5090 H   0  0  0  0  0  0  0  0  0  0  0  0
    6.9028   10.0851    4.5637 H   0  0  0  0  0  0  0  0  0  0  0  0
    5.1702   10.3883    4.7294 H   0  0  0  0  0  0  0  0  0  0  0  0
    6.5470    8.2000    8.7089 H   0  0  0  0  0  0  0  0  0  0  0  0
    6.6844    9.9204    9.0805 H   0  0  0  0  0  0  0  0  0  0  0  0
    9.1112    9.7518    9.3800 H   0  0  0  0  0  0  0  0  0  0  0  0
    8.3197    8.4698   10.3061 H   0  0  0  0  0  0  0  0  0  0  0  0
  1  2  1  0  0  0  0
  1 19  1  0  0  0  0
  1 20  1  0  0  0  0
  1 21  1  0  0  0  0
  2  3  1  0  0  0  0
  2  7  2  0  0  0  0
  3  4  2  0  0  0  0
  3 22  1  0  0  0  0
  4  5  1  0  0  0  0
  4 23  1  0  0  0  0
  5  6  2  0  0  0  0
  5 24  1  0  0  0  0
  6  7  1  0  0  0  0
  6 25  1  0  0  0  0
  7  8  1  0  0  0  0
  8  9  1  0  0  0  0
  8 26  1  0  0  0  0
  8 27  1  0  0  0  0
  9 10  1  0  0  0  0
  9 18  1  0  0  0  0
 10 11  1  0  0  0  0
 10 28  1  0  0  0  0
 10 29  1  0  0  0  0
 11 12  1  0  0  0  0
 11 30  1  0  0  0  0
 11 31  1  0  0  0  0
 12 13  1  0  0  0  0
 12 17  1  0  0  0  0
 13 14  2  0  0  0  0
 13 15  1  0  0  0  0
 15 16  1  0  0  0  0
 15 32  1  0  0  0  0
 15 33  1  0  0  0  0
 17 18  1  0  0  0  0
 17 34  1  0  0  0  0
 17 35  1  0  0  0  0
 18 36  1  0  0  0  0
 18 37  1  0  0  0  0
M  END
>  <name>


>  <Energy>
97.2924

$$$$
