
  xtb     06082023113D
xtb: 6.2.3 (830e466)
 42 43  0     0  0            999 V2000
    7.1371   10.1141   13.3361 C   0  0  0  0  0  0  0  0  0  0  0  0
    7.3169    8.8078   12.8356 O   0  0  0  0  0  0  0  0  0  0  0  0
    7.0513    8.5802   11.5253 C   0  0  0  0  0  0  0  0  0  0  0  0
    7.1842    7.2638   11.0796 C   0  0  0  0  0  0  0  0  0  0  0  0
    6.9360    6.9240    9.7656 C   0  0  0  0  0  0  0  0  0  0  0  0
    6.5455    7.8958    8.8426 C   0  0  0  0  0  0  0  0  0  0  0  0
    6.3067    7.6704    7.5268 O   0  0  0  0  0  0  0  0  0  0  0  0
    6.2885    6.3387    7.0588 C   0  0  0  0  0  0  0  0  0  0  0  0
    6.4136    9.2045    9.2950 C   0  0  0  0  0  0  0  0  0  0  0  0
    5.8545   10.5221    8.2002 S   0  0  0  0  0  0  0  0  0  0  0  0
    5.6968   11.6886    9.0206 O   0  0  0  0  0  0  0  0  0  0  0  0
    4.7479   10.0859    7.4092 O   0  0  0  0  0  0  0  0  0  0  0  0
    7.1135   10.8715    7.1640 N   0  0  0  0  0  0  0  0  0  0  0  0
    7.2800   10.0762    5.9657 C   0  0  0  0  0  0  0  0  0  0  0  0
    8.5976    9.3143    5.9975 C   0  0  0  0  0  0  0  0  0  0  0  0
    9.7021   10.2596    6.0758 N   0  0  0  0  0  0  0  0  0  0  0  0
   10.8069   10.0166    5.3298 C   0  0  0  0  0  0  0  0  0  0  0  0
   10.9417    9.0002    4.6870 O   0  0  0  0  0  0  0  0  0  0  0  0
   11.8654   11.1166    5.3763 C   0  0  0  0  0  0  0  0  0  0  0  0
   13.1892   10.7293    4.2595 Cl  0  0  0  0  0  0  0  0  0  0  0  0
    9.4509   11.4756    6.8247 C   0  0  0  0  0  0  0  0  0  0  0  0
    8.3371   11.2373    7.8396 C   0  0  0  0  0  0  0  0  0  0  0  0
    6.6606    9.5508   10.6089 C   0  0  0  0  0  0  0  0  0  0  0  0
    7.8188   10.8237   12.8578 H   0  0  0  0  0  0  0  0  0  0  0  0
    7.3650   10.0530   14.3989 H   0  0  0  0  0  0  0  0  0  0  0  0
    6.1067   10.4553   13.2023 H   0  0  0  0  0  0  0  0  0  0  0  0
    7.4828    6.5099   11.7903 H   0  0  0  0  0  0  0  0  0  0  0  0
    7.0467    5.8951    9.4641 H   0  0  0  0  0  0  0  0  0  0  0  0
    5.9921    6.4034    6.0137 H   0  0  0  0  0  0  0  0  0  0  0  0
    5.5608    5.7326    7.6049 H   0  0  0  0  0  0  0  0  0  0  0  0
    7.2787    5.8769    7.1260 H   0  0  0  0  0  0  0  0  0  0  0  0
    7.2615   10.7426    5.0950 H   0  0  0  0  0  0  0  0  0  0  0  0
    6.4288    9.3995    5.9025 H   0  0  0  0  0  0  0  0  0  0  0  0
    8.7342    8.7242    5.0888 H   0  0  0  0  0  0  0  0  0  0  0  0
    8.6244    8.6364    6.8571 H   0  0  0  0  0  0  0  0  0  0  0  0
   12.2967   11.1956    6.3750 H   0  0  0  0  0  0  0  0  0  0  0  0
   11.4459   12.0755    5.0718 H   0  0  0  0  0  0  0  0  0  0  0  0
    9.1516   12.2892    6.1516 H   0  0  0  0  0  0  0  0  0  0  0  0
   10.3540   11.7796    7.3595 H   0  0  0  0  0  0  0  0  0  0  0  0
    8.6528   10.4551    8.5480 H   0  0  0  0  0  0  0  0  0  0  0  0
    8.1343   12.1485    8.4061 H   0  0  0  0  0  0  0  0  0  0  0  0
    6.5161   10.5853   10.8719 H   0  0  0  0  0  0  0  0  0  0  0  0
  1  2  1  0  0  0  0
  1 24  1  0  0  0  0
  1 25  1  0  0  0  0
  1 26  1  0  0  0  0
  2  3  1  0  0  0  0
  3  4  1  0  0  0  0
  3 23  1  0  0  0  0
  4  5  1  0  0  0  0
  4 27  1  0  0  0  0
  5  6  1  0  0  0  0
  5 28  1  0  0  0  0
  6  7  1  0  0  0  0
  6  9  1  0  0  0  0
  7  8  1  0  0  0  0
  8 29  1  0  0  0  0
  8 30  1  0  0  0  0
  8 31  1  0  0  0  0
  9 10  1  0  0  0  0
  9 23  1  0  0  0  0
 10 11  1  0  0  0  0
 10 12  1  0  0  0  0
 10 13  1  0  0  0  0
 13 14  1  0  0  0  0
 13 22  1  0  0  0  0
 14 15  1  0  0  0  0
 14 32  1  0  0  0  0
 14 33  1  0  0  0  0
 15 16  1  0  0  0  0
 15 34  1  0  0  0  0
 15 35  1  0  0  0  0
 16 17  1  0  0  0  0
 16 21  1  0  0  0  0
 17 18  1  0  0  0  0
 17 19  1  0  0  0  0
 19 20  1  0  0  0  0
 19 36  1  0  0  0  0
 19 37  1  0  0  0  0
 21 22  1  0  0  0  0
 21 38  1  0  0  0  0
 21 39  1  0  0  0  0
 22 40  1  0  0  0  0
 22 41  1  0  0  0  0
 23 42  1  0  0  0  0
M  END
>  <name>


>  <Energy>
62.1674

> <total energy / Eh>
    -73.662063020414

> <gradient norm / Eh/a0>
      0.000205689136

$$$$
