MODEL 1
REMARK VINA RESULT:      -6.7      0.000      0.000
REMARK  Name = 
REMARK  5 active torsions:
REMARK  status: ('A' for Active; 'I' for Inactive)
REMARK    1  A    between atoms: C_2  and  C_3
REMARK    2  A    between atoms: C_2  and  N_5
REMARK    3  A    between atoms: N_8  and  S_9
REMARK    4  A    between atoms: S_9  and  C_12
REMARK    5  A    between atoms: C_16  and  N_17
REMARK                            x       y       z     vdW  Elec       q    Type
REMARK                         _______ _______ _______ _____ _____    ______ ____
ROOT
ATOM      1  S   UNL     1       7.892  -3.694  23.867  0.00  0.00    +0.000 S 
ATOM      2  O   UNL     1       7.608  -3.582  22.466  0.00  0.00    +0.000 OA
ATOM      3  O   UNL     1       9.225  -4.039  24.257  0.00  0.00    +0.000 OA
ENDROOT
BRANCH   1   7
ATOM      4  N   UNL     1       9.084  -0.609  23.405  0.00  0.00    +0.000 NA
ATOM      5  C   UNL     1       9.700  -1.281  24.534  0.00  0.00    +0.000 C 
ATOM      6  C   UNL     1       8.607  -1.790  25.488  0.00  0.00    +0.000 C 
ATOM      7  N   UNL     1       7.482  -2.306  24.735  0.00  0.00    +0.000 NA
ATOM      8  C   UNL     1       6.813  -1.295  23.929  0.00  0.00    +0.000 C 
ATOM      9  C   UNL     1       7.748  -0.111  23.648  0.00  0.00    +0.000 C 
BRANCH   4  11
ATOM     10  O   UNL     1      10.200  -1.555  21.700  0.00  0.00    +0.000 OA
ATOM     11  C   UNL     1       9.525  -0.644  22.115  0.00  0.00    +0.000 C 
BRANCH  11  12
ATOM     12  C   UNL     1       9.072   0.518  21.246  0.00  0.00    +0.000 C 
ATOM     13 CL   UNL     1       8.033  -0.078  19.940  0.00  0.00    +0.000 Cl
ENDBRANCH  11  12
ENDBRANCH   4  11
ENDBRANCH   1   7
BRANCH   1  14
ATOM     14  C   UNL     1       6.749  -4.868  24.603  0.00  0.00    +0.000 C 
ATOM     15  C   UNL     1       5.697  -5.326  23.830  0.00  0.00    +0.000 C 
ATOM     16  C   UNL     1       4.782  -6.216  24.372  0.00  0.00    +0.000 C 
ATOM     17  C   UNL     1       4.926  -6.639  25.683  0.00  0.00    +0.000 C 
ATOM     18  C   UNL     1       5.987  -6.163  26.443  0.00  0.00    +0.000 C 
ATOM     19  C   UNL     1       6.913  -5.272  25.912  0.00  0.00    +0.000 C 
BRANCH  18  20
ATOM     20  N   UNL     1       6.129  -6.604  27.819  0.00  0.00    +0.000 NA
ATOM     21  O   UNL     1       5.313  -7.389  28.238  0.00  0.00    +0.000 OA
ATOM     22  O   UNL     1       7.058  -6.153  28.451  0.00  0.00    +0.000 OA
ENDBRANCH  18  20
ENDBRANCH   1  14
TORSDOF 5
ENDMDL
MODEL 2
REMARK VINA RESULT:      -6.6      3.792      7.452
REMARK  Name = 
REMARK  5 active torsions:
REMARK  status: ('A' for Active; 'I' for Inactive)
REMARK    1  A    between atoms: C_2  and  C_3
REMARK    2  A    between atoms: C_2  and  N_5
REMARK    3  A    between atoms: N_8  and  S_9
REMARK    4  A    between atoms: S_9  and  C_12
REMARK    5  A    between atoms: C_16  and  N_17
REMARK                            x       y       z     vdW  Elec       q    Type
REMARK                         _______ _______ _______ _____ _____    ______ ____
ROOT
ATOM      1  S   UNL     1       6.634  -2.687  23.072  0.00  0.00    +0.000 S 
ATOM      2  O   UNL     1       5.216  -2.885  22.985  0.00  0.00    +0.000 OA
ATOM      3  O   UNL     1       7.170  -2.217  24.313  0.00  0.00    +0.000 OA
ENDROOT
BRANCH   1   7
ATOM      4  N   UNL     1       5.741  -5.868  23.555  0.00  0.00    +0.000 NA
ATOM      5  C   UNL     1       6.699  -5.403  24.540  0.00  0.00    +0.000 C 
ATOM      6  C   UNL     1       7.926  -4.814  23.827  0.00  0.00    +0.000 C 
ATOM      7  N   UNL     1       7.517  -4.063  22.657  0.00  0.00    +0.000 NA
ATOM      8  C   UNL     1       6.870  -4.883  21.642  0.00  0.00    +0.000 C 
ATOM      9  C   UNL     1       6.303  -6.171  22.256  0.00  0.00    +0.000 C 
BRANCH   4  11
ATOM     10  O   UNL     1       3.670  -5.843  22.685  0.00  0.00    +0.000 OA
ATOM     11  C   UNL     1       4.385  -5.791  23.658  0.00  0.00    +0.000 C 
BRANCH  11  12
ATOM     12  C   UNL     1       3.850  -5.674  25.077  0.00  0.00    +0.000 C 
ATOM     13 CL   UNL     1       3.852  -7.268  25.853  0.00  0.00    +0.000 Cl
ENDBRANCH  11  12
ENDBRANCH   4  11
ENDBRANCH   1   7
BRANCH   1  14
ATOM     14  C   UNL     1       7.153  -1.579  21.758  0.00  0.00    +0.000 C 
ATOM     15  C   UNL     1       8.431  -1.052  21.816  0.00  0.00    +0.000 C 
ATOM     16  C   UNL     1       8.859  -0.177  20.830  0.00  0.00    +0.000 C 
ATOM     17  C   UNL     1       8.005   0.169  19.796  0.00  0.00    +0.000 C 
ATOM     18  C   UNL     1       6.723  -0.368  19.760  0.00  0.00    +0.000 C 
ATOM     19  C   UNL     1       6.282  -1.249  20.740  0.00  0.00    +0.000 C 
BRANCH  18  20
ATOM     20  N   UNL     1       5.829   0.003  18.678  0.00  0.00    +0.000 NA
ATOM     21  O   UNL     1       5.022   0.873  18.898  0.00  0.00    +0.000 OA
ATOM     22  O   UNL     1       5.957  -0.587  17.629  0.00  0.00    +0.000 OA
ENDBRANCH  18  20
ENDBRANCH   1  14
TORSDOF 5
ENDMDL
MODEL 3
REMARK VINA RESULT:      -6.5      3.460      7.071
REMARK  Name = 
REMARK  5 active torsions:
REMARK  status: ('A' for Active; 'I' for Inactive)
REMARK    1  A    between atoms: C_2  and  C_3
REMARK    2  A    between atoms: C_2  and  N_5
REMARK    3  A    between atoms: N_8  and  S_9
REMARK    4  A    between atoms: S_9  and  C_12
REMARK    5  A    between atoms: C_16  and  N_17
REMARK                            x       y       z     vdW  Elec       q    Type
REMARK                         _______ _______ _______ _____ _____    ______ ____
ROOT
ATOM      1  S   UNL     1       6.838  -2.755  23.095  0.00  0.00    +0.000 S 
ATOM      2  O   UNL     1       7.535  -3.987  22.864  0.00  0.00    +0.000 OA
ATOM      3  O   UNL     1       5.414  -2.805  23.230  0.00  0.00    +0.000 OA
ENDROOT
BRANCH   1   7
ATOM      4  N   UNL     1       6.916  -3.819  26.259  0.00  0.00    +0.000 NA
ATOM      5  C   UNL     1       5.818  -2.905  26.006  0.00  0.00    +0.000 C 
ATOM      6  C   UNL     1       6.362  -1.610  25.381  0.00  0.00    +0.000 C 
ATOM      7  N   UNL     1       7.418  -1.911  24.436  0.00  0.00    +0.000 NA
ATOM      8  C   UNL     1       8.584  -2.531  25.051  0.00  0.00    +0.000 C 
ATOM      9  C   UNL     1       8.213  -3.192  26.385  0.00  0.00    +0.000 C 
BRANCH   4  11
ATOM     10  O   UNL     1       7.717  -5.887  26.619  0.00  0.00    +0.000 OA
ATOM     11  C   UNL     1       6.875  -5.175  26.125  0.00  0.00    +0.000 C 
BRANCH  11  12
ATOM     12  C   UNL     1       5.684  -5.712  25.348  0.00  0.00    +0.000 C 
ATOM     13 CL   UNL     1       4.798  -6.883  26.341  0.00  0.00    +0.000 Cl
ENDBRANCH  11  12
ENDBRANCH   4  11
ENDBRANCH   1   7
BRANCH   1  14
ATOM     14  C   UNL     1       7.257  -1.592  21.793  0.00  0.00    +0.000 C 
ATOM     15  C   UNL     1       8.480  -0.948  21.863  0.00  0.00    +0.000 C 
ATOM     16  C   UNL     1       8.829  -0.027  20.887  0.00  0.00    +0.000 C 
ATOM     17  C   UNL     1       7.952   0.245  19.851  0.00  0.00    +0.000 C 
ATOM     18  C   UNL     1       6.727  -0.410  19.802  0.00  0.00    +0.000 C 
ATOM     19  C   UNL     1       6.365  -1.337  20.772  0.00  0.00    +0.000 C 
BRANCH  18  20
ATOM     20  N   UNL     1       5.808  -0.115  18.717  0.00  0.00    +0.000 NA
ATOM     21  O   UNL     1       5.977  -0.695  17.672  0.00  0.00    +0.000 OA
ATOM     22  O   UNL     1       4.933   0.692  18.938  0.00  0.00    +0.000 OA
ENDBRANCH  18  20
ENDBRANCH   1  14
TORSDOF 5
ENDMDL
MODEL 4
REMARK VINA RESULT:      -6.5      3.424      7.291
REMARK  Name = 
REMARK  5 active torsions:
REMARK  status: ('A' for Active; 'I' for Inactive)
REMARK    1  A    between atoms: C_2  and  C_3
REMARK    2  A    between atoms: C_2  and  N_5
REMARK    3  A    between atoms: N_8  and  S_9
REMARK    4  A    between atoms: S_9  and  C_12
REMARK    5  A    between atoms: C_16  and  N_17
REMARK                            x       y       z     vdW  Elec       q    Type
REMARK                         _______ _______ _______ _____ _____    ______ ____
ROOT
ATOM      1  S   UNL     1       7.443  -2.182  22.833  0.00  0.00    +0.000 S 
ATOM      2  O   UNL     1       7.040  -1.869  24.174  0.00  0.00    +0.000 OA
ATOM      3  O   UNL     1       8.793  -2.604  22.620  0.00  0.00    +0.000 OA
ENDROOT
BRANCH   1   7
ATOM      4  N   UNL     1       6.356  -5.035  24.186  0.00  0.00    +0.000 NA
ATOM      5  C   UNL     1       7.471  -5.238  23.281  0.00  0.00    +0.000 C 
ATOM      6  C   UNL     1       7.151  -4.599  21.919  0.00  0.00    +0.000 C 
ATOM      7  N   UNL     1       6.456  -3.341  22.104  0.00  0.00    +0.000 NA
ATOM      8  C   UNL     1       5.158  -3.486  22.748  0.00  0.00    +0.000 C 
ATOM      9  C   UNL     1       5.083  -4.798  23.541  0.00  0.00    +0.000 C 
BRANCH   4  11
ATOM     10  O   UNL     1       5.578  -4.199  26.120  0.00  0.00    +0.000 OA
ATOM     11  C   UNL     1       6.446  -4.790  25.524  0.00  0.00    +0.000 C 
BRANCH  11  12
ATOM     12  C   UNL     1       7.689  -5.346  26.201  0.00  0.00    +0.000 C 
ATOM     13 CL   UNL     1       8.847  -4.037  26.498  0.00  0.00    +0.000 Cl
ENDBRANCH  11  12
ENDBRANCH   4  11
ENDBRANCH   1   7
BRANCH   1  14
ATOM     14  C   UNL     1       7.099  -0.773  21.774  0.00  0.00    +0.000 C 
ATOM     15  C   UNL     1       7.049   0.482  22.355  0.00  0.00    +0.000 C 
ATOM     16  C   UNL     1       6.765   1.591  21.572  0.00  0.00    +0.000 C 
ATOM     17  C   UNL     1       6.530   1.435  20.216  0.00  0.00    +0.000 C 
ATOM     18  C   UNL     1       6.581   0.165  19.654  0.00  0.00    +0.000 C 
ATOM     19  C   UNL     1       6.866  -0.955  20.427  0.00  0.00    +0.000 C 
BRANCH  18  20
ATOM     20  N   UNL     1       6.327   0.007  18.233  0.00  0.00    +0.000 NA
ATOM     21  O   UNL     1       6.382   0.997  17.545  0.00  0.00    +0.000 OA
ATOM     22  O   UNL     1       6.077  -1.110  17.838  0.00  0.00    +0.000 OA
ENDBRANCH  18  20
ENDBRANCH   1  14
TORSDOF 5
ENDMDL
MODEL 5
REMARK VINA RESULT:      -6.5      3.196      7.205
REMARK  Name = 
REMARK  5 active torsions:
REMARK  status: ('A' for Active; 'I' for Inactive)
REMARK    1  A    between atoms: C_2  and  C_3
REMARK    2  A    between atoms: C_2  and  N_5
REMARK    3  A    between atoms: N_8  and  S_9
REMARK    4  A    between atoms: S_9  and  C_12
REMARK    5  A    between atoms: C_16  and  N_17
REMARK                            x       y       z     vdW  Elec       q    Type
REMARK                         _______ _______ _______ _____ _____    ______ ____
ROOT
ATOM      1  S   UNL     1       8.827  -2.230  24.019  0.00  0.00    +0.000 S 
ATOM      2  O   UNL     1       8.639  -1.734  25.352  0.00  0.00    +0.000 OA
ATOM      3  O   UNL     1       9.925  -3.117  23.781  0.00  0.00    +0.000 OA
ENDROOT
BRANCH   1   7
ATOM      4  N   UNL     1       7.174  -4.802  25.361  0.00  0.00    +0.000 NA
ATOM      5  C   UNL     1       8.038  -5.206  24.268  0.00  0.00    +0.000 C 
ATOM      6  C   UNL     1       7.720  -4.362  23.023  0.00  0.00    +0.000 C 
ATOM      7  N   UNL     1       7.453  -2.989  23.399  0.00  0.00    +0.000 NA
ATOM      8  C   UNL     1       6.277  -2.840  24.244  0.00  0.00    +0.000 C 
ATOM      9  C   UNL     1       5.943  -4.157  24.957  0.00  0.00    +0.000 C 
BRANCH   4  11
ATOM     10  O   UNL     1       8.680  -4.681  27.023  0.00  0.00    +0.000 OA
ATOM     11  C   UNL     1       7.524  -4.736  26.676  0.00  0.00    +0.000 C 
BRANCH  11  12
ATOM     12  C   UNL     1       6.361  -4.697  27.654  0.00  0.00    +0.000 C 
ATOM     13 CL   UNL     1       6.347  -6.177  28.630  0.00  0.00    +0.000 Cl
ENDBRANCH  11  12
ENDBRANCH   4  11
ENDBRANCH   1   7
BRANCH   1  14
ATOM     14  C   UNL     1       8.949  -0.840  22.889  0.00  0.00    +0.000 C 
ATOM     15  C   UNL     1       9.854   0.164  23.185  0.00  0.00    +0.000 C 
ATOM     16  C   UNL     1       9.960   1.263  22.347  0.00  0.00    +0.000 C 
ATOM     17  C   UNL     1       9.159   1.352  21.221  0.00  0.00    +0.000 C 
ATOM     18  C   UNL     1       8.254   0.334  20.944  0.00  0.00    +0.000 C 
ATOM     19  C   UNL     1       8.138  -0.774  21.775  0.00  0.00    +0.000 C 
BRANCH  18  20
ATOM     20  N   UNL     1       7.411   0.435  19.766  0.00  0.00    +0.000 NA
ATOM     21  O   UNL     1       7.852   0.005  18.728  0.00  0.00    +0.000 OA
ATOM     22  O   UNL     1       6.322   0.945  19.908  0.00  0.00    +0.000 OA
ENDBRANCH  18  20
ENDBRANCH   1  14
TORSDOF 5
ENDMDL
MODEL 6
REMARK VINA RESULT:      -6.4      1.899      2.748
REMARK  Name = 
REMARK  5 active torsions:
REMARK  status: ('A' for Active; 'I' for Inactive)
REMARK    1  A    between atoms: C_2  and  C_3
REMARK    2  A    between atoms: C_2  and  N_5
REMARK    3  A    between atoms: N_8  and  S_9
REMARK    4  A    between atoms: S_9  and  C_12
REMARK    5  A    between atoms: C_16  and  N_17
REMARK                            x       y       z     vdW  Elec       q    Type
REMARK                         _______ _______ _______ _____ _____    ______ ____
ROOT
ATOM      1  S   UNL     1       7.695  -2.334  23.422  0.00  0.00    +0.000 S 
ATOM      2  O   UNL     1       6.507  -1.538  23.536  0.00  0.00    +0.000 OA
ATOM      3  O   UNL     1       7.933  -3.011  22.184  0.00  0.00    +0.000 OA
ENDROOT
BRANCH   1   7
ATOM      4  N   UNL     1       8.804   0.419  21.892  0.00  0.00    +0.000 NA
ATOM      5  C   UNL     1       9.501  -0.777  21.459  0.00  0.00    +0.000 C 
ATOM      6  C   UNL     1      10.053  -1.523  22.685  0.00  0.00    +0.000 C 
ATOM      7  N   UNL     1       9.102  -1.472  23.777  0.00  0.00    +0.000 NA
ATOM      8  C   UNL     1       8.848  -0.122  24.260  0.00  0.00    +0.000 C 
ATOM      9  C   UNL     1       9.202   0.919  23.190  0.00  0.00    +0.000 C 
BRANCH   4  11
ATOM     10  O   UNL     1       7.309   2.063  21.559  0.00  0.00    +0.000 OA
ATOM     11  C   UNL     1       7.672   0.933  21.333  0.00  0.00    +0.000 C 
BRANCH  11  12
ATOM     12  C   UNL     1       6.937  -0.003  20.387  0.00  0.00    +0.000 C 
ATOM     13 CL   UNL     1       7.372   0.374  18.711  0.00  0.00    +0.000 Cl
ENDBRANCH  11  12
ENDBRANCH   4  11
ENDBRANCH   1   7
BRANCH   1  14
ATOM     14  C   UNL     1       7.724  -3.536  24.756  0.00  0.00    +0.000 C 
ATOM     15  C   UNL     1       8.819  -3.544  25.602  0.00  0.00    +0.000 C 
ATOM     16  C   UNL     1       8.887  -4.471  26.631  0.00  0.00    +0.000 C 
ATOM     17  C   UNL     1       7.861  -5.386  26.802  0.00  0.00    +0.000 C 
ATOM     18  C   UNL     1       6.773  -5.363  25.938  0.00  0.00    +0.000 C 
ATOM     19  C   UNL     1       6.691  -4.437  24.905  0.00  0.00    +0.000 C 
BRANCH  18  20
ATOM     20  N   UNL     1       5.703  -6.329  26.119  0.00  0.00    +0.000 NA
ATOM     21  O   UNL     1       5.613  -6.863  27.197  0.00  0.00    +0.000 OA
ATOM     22  O   UNL     1       4.976  -6.530  25.172  0.00  0.00    +0.000 OA
ENDBRANCH  18  20
ENDBRANCH   1  14
TORSDOF 5
ENDMDL
MODEL 7
REMARK VINA RESULT:      -6.3      3.270      7.016
REMARK  Name = 
REMARK  5 active torsions:
REMARK  status: ('A' for Active; 'I' for Inactive)
REMARK    1  A    between atoms: C_2  and  C_3
REMARK    2  A    between atoms: C_2  and  N_5
REMARK    3  A    between atoms: N_8  and  S_9
REMARK    4  A    between atoms: S_9  and  C_12
REMARK    5  A    between atoms: C_16  and  N_17
REMARK                            x       y       z     vdW  Elec       q    Type
REMARK                         _______ _______ _______ _____ _____    ______ ____
ROOT
ATOM      1  S   UNL     1       6.994  -1.620  23.043  0.00  0.00    +0.000 S 
ATOM      2  O   UNL     1       6.953  -2.889  22.377  0.00  0.00    +0.000 OA
ATOM      3  O   UNL     1       6.072  -1.393  24.113  0.00  0.00    +0.000 OA
ENDROOT
BRANCH   1   7
ATOM      4  N   UNL     1       8.902  -3.506  25.031  0.00  0.00    +0.000 NA
ATOM      5  C   UNL     1       8.224  -2.446  25.752  0.00  0.00    +0.000 C 
ATOM      6  C   UNL     1       8.522  -1.095  25.081  0.00  0.00    +0.000 C 
ATOM      7  N   UNL     1       8.526  -1.239  23.639  0.00  0.00    +0.000 NA
ATOM      8  C   UNL     1       9.575  -2.123  23.150  0.00  0.00    +0.000 C 
ATOM      9  C   UNL     1      10.046  -3.079  24.255  0.00  0.00    +0.000 C 
BRANCH   4  11
ATOM     10  O   UNL     1       9.045  -5.582  24.186  0.00  0.00    +0.000 OA
ATOM     11  C   UNL     1       8.419  -4.762  24.813  0.00  0.00    +0.000 C 
BRANCH  11  12
ATOM     12  C   UNL     1       7.067  -5.053  25.446  0.00  0.00    +0.000 C 
ATOM     13 CL   UNL     1       5.926  -5.593  24.201  0.00  0.00    +0.000 Cl
ENDBRANCH  11  12
ENDBRANCH   4  11
ENDBRANCH   1   7
BRANCH   1  14
ATOM     14  C   UNL     1       6.803  -0.313  21.826  0.00  0.00    +0.000 C 
ATOM     15  C   UNL     1       6.771   0.996  22.274  0.00  0.00    +0.000 C 
ATOM     16  C   UNL     1       6.604   2.030  21.365  0.00  0.00    +0.000 C 
ATOM     17  C   UNL     1       6.466   1.746  20.016  0.00  0.00    +0.000 C 
ATOM     18  C   UNL     1       6.497   0.425  19.589  0.00  0.00    +0.000 C 
ATOM     19  C   UNL     1       6.666  -0.621  20.488  0.00  0.00    +0.000 C 
BRANCH  18  20
ATOM     20  N   UNL     1       6.345   0.133  18.174  0.00  0.00    +0.000 NA
ATOM     21  O   UNL     1       6.139  -1.015  17.862  0.00  0.00    +0.000 OA
ATOM     22  O   UNL     1       6.435   1.064  17.405  0.00  0.00    +0.000 OA
ENDBRANCH  18  20
ENDBRANCH   1  14
TORSDOF 5
ENDMDL
MODEL 8
REMARK VINA RESULT:      -6.3      2.085      2.372
REMARK  Name = 
REMARK  5 active torsions:
REMARK  status: ('A' for Active; 'I' for Inactive)
REMARK    1  A    between atoms: C_2  and  C_3
REMARK    2  A    between atoms: C_2  and  N_5
REMARK    3  A    between atoms: N_8  and  S_9
REMARK    4  A    between atoms: S_9  and  C_12
REMARK    5  A    between atoms: C_16  and  N_17
REMARK                            x       y       z     vdW  Elec       q    Type
REMARK                         _______ _______ _______ _____ _____    ______ ____
ROOT
ATOM      1  S   UNL     1       7.428  -2.011  23.280  0.00  0.00    +0.000 S 
ATOM      2  O   UNL     1       6.712  -0.772  23.372  0.00  0.00    +0.000 OA
ATOM      3  O   UNL     1       7.963  -2.385  22.006  0.00  0.00    +0.000 OA
ENDROOT
BRANCH   1   7
ATOM      4  N   UNL     1      10.157  -0.091  23.402  0.00  0.00    +0.000 NA
ATOM      5  C   UNL     1      10.413  -1.383  22.795  0.00  0.00    +0.000 C 
ATOM      6  C   UNL     1       9.941  -2.498  23.742  0.00  0.00    +0.000 C 
ATOM      7  N   UNL     1       8.698  -2.121  24.385  0.00  0.00    +0.000 NA
ATOM      8  C   UNL     1       8.824  -0.950  25.242  0.00  0.00    +0.000 C 
ATOM      9  C   UNL     1      10.043  -0.107  24.844  0.00  0.00    +0.000 C 
BRANCH   4  11
ATOM     10  O   UNL     1       9.483   1.024  21.572  0.00  0.00    +0.000 OA
ATOM     11  C   UNL     1       9.764   1.038  22.746  0.00  0.00    +0.000 C 
BRANCH  11  12
ATOM     12  C   UNL     1       9.672   2.287  23.608  0.00  0.00    +0.000 C 
ATOM     13 CL   UNL     1      11.091   3.313  23.332  0.00  0.00    +0.000 Cl
ENDBRANCH  11  12
ENDBRANCH   4  11
ENDBRANCH   1   7
BRANCH   1  14
ATOM     14  C   UNL     1       6.379  -3.339  23.882  0.00  0.00    +0.000 C 
ATOM     15  C   UNL     1       5.130  -3.494  23.307  0.00  0.00    +0.000 C 
ATOM     16  C   UNL     1       4.284  -4.496  23.760  0.00  0.00    +0.000 C 
ATOM     17  C   UNL     1       4.693  -5.330  24.787  0.00  0.00    +0.000 C 
ATOM     18  C   UNL     1       5.950  -5.154  25.353  0.00  0.00    +0.000 C 
ATOM     19  C   UNL     1       6.809  -4.156  24.906  0.00  0.00    +0.000 C 
BRANCH  18  20
ATOM     20  N   UNL     1       6.371  -6.028  26.434  0.00  0.00    +0.000 NA
ATOM     21  O   UNL     1       5.553  -6.797  26.877  0.00  0.00    +0.000 OA
ATOM     22  O   UNL     1       7.515  -5.924  26.815  0.00  0.00    +0.000 OA
ENDBRANCH  18  20
ENDBRANCH   1  14
TORSDOF 5
ENDMDL
MODEL 9
REMARK VINA RESULT:      -6.2      3.214      7.126
REMARK  Name = 
REMARK  5 active torsions:
REMARK  status: ('A' for Active; 'I' for Inactive)
REMARK    1  A    between atoms: C_2  and  C_3
REMARK    2  A    between atoms: C_2  and  N_5
REMARK    3  A    between atoms: N_8  and  S_9
REMARK    4  A    between atoms: S_9  and  C_12
REMARK    5  A    between atoms: C_16  and  N_17
REMARK                            x       y       z     vdW  Elec       q    Type
REMARK                         _______ _______ _______ _____ _____    ______ ____
ROOT
ATOM      1  S   UNL     1       8.896  -2.399  24.370  0.00  0.00    +0.000 S 
ATOM      2  O   UNL     1       8.713  -2.024  25.742  0.00  0.00    +0.000 OA
ATOM      3  O   UNL     1       9.918  -3.353  24.066  0.00  0.00    +0.000 OA
ENDROOT
BRANCH   1   7
ATOM      4  N   UNL     1       6.938  -4.877  25.454  0.00  0.00    +0.000 NA
ATOM      5  C   UNL     1       7.803  -5.287  24.363  0.00  0.00    +0.000 C 
ATOM      6  C   UNL     1       7.623  -4.327  23.176  0.00  0.00    +0.000 C 
ATOM      7  N   UNL     1       7.480  -2.964  23.647  0.00  0.00    +0.000 NA
ATOM      8  C   UNL     1       6.290  -2.756  24.462  0.00  0.00    +0.000 C 
ATOM      9  C   UNL     1       5.797  -4.081  25.059  0.00  0.00    +0.000 C 
BRANCH   4  11
ATOM     10  O   UNL     1       8.382  -4.954  27.174  0.00  0.00    +0.000 OA
ATOM     11  C   UNL     1       7.239  -4.943  26.782  0.00  0.00    +0.000 C 
BRANCH  11  12
ATOM     12  C   UNL     1       6.040  -4.963  27.716  0.00  0.00    +0.000 C 
ATOM     13 CL   UNL     1       5.266  -6.558  27.665  0.00  0.00    +0.000 Cl
ENDBRANCH  11  12
ENDBRANCH   4  11
ENDBRANCH   1   7
BRANCH   1  14
ATOM     14  C   UNL     1       9.172  -0.919  23.391  0.00  0.00    +0.000 C 
ATOM     15  C   UNL     1       9.099  -1.025  22.013  0.00  0.00    +0.000 C 
ATOM     16  C   UNL     1       9.327   0.092  21.224  0.00  0.00    +0.000 C 
ATOM     17  C   UNL     1       9.632   1.305  21.818  0.00  0.00    +0.000 C 
ATOM     18  C   UNL     1       9.705   1.388  23.204  0.00  0.00    +0.000 C 
ATOM     19  C   UNL     1       9.476   0.277  24.007  0.00  0.00    +0.000 C 
BRANCH  18  20
ATOM     20  N   UNL     1      10.032   2.662  23.821  0.00  0.00    +0.000 NA
ATOM     21  O   UNL     1       9.234   3.122  24.601  0.00  0.00    +0.000 OA
ATOM     22  O   UNL     1      11.084   3.172  23.510  0.00  0.00    +0.000 OA
ENDBRANCH  18  20
ENDBRANCH   1  14
TORSDOF 5
ENDMDL
