
 OpenBabel06082022513D

 43 45  0  0  0  0  0  0  0  0999 V2000
    3.2975    9.2616    8.2561 O   0  0  0  0  0  0  0  0  0  0  0  0
    4.2880    9.9812    8.0819 C   0  0  0  0  0  0  0  0  0  0  0  0
    4.0911   11.3964    7.5423 C   0  0  0  0  0  0  0  0  0  0  0  0
    4.9512   12.7060    8.3538 Cl  0  0  0  0  0  0  0  0  0  0  0  0
    5.5712    9.4377    8.1565 N   0  0  0  0  0  0  0  0  0  0  0  0
    6.5798   10.0952    8.9826 C   0  0  0  0  0  0  0  0  0  0  0  0
    7.1417    9.1337   10.0195 C   0  0  0  0  0  0  0  0  0  0  0  0
    7.8966    8.0173    9.3912 N   0  0  0  0  0  0  0  0  0  0  0  0
    9.5706    8.2594    9.0485 S   0  0  0  0  0  0  0  0  0  0  0  0
    9.6425    8.9918    7.8062 O   0  0  0  0  0  0  0  0  0  0  0  0
   10.2493    6.9911    9.2170 O   0  0  0  0  0  0  0  0  0  0  0  0
   10.1094    9.3658   10.3392 C   0  0  0  0  0  0  0  0  0  0  0  0
   10.4360   10.6829    9.9864 C   0  0  0  0  0  0  0  0  0  0  0  0
   10.4480   11.6726   10.9678 C   0  0  0  0  0  0  0  0  0  0  0  0
   10.0875   11.3499   12.2760 C   0  0  0  0  0  0  0  0  0  0  0  0
    9.8237   10.0196   12.6274 C   0  0  0  0  0  0  0  0  0  0  0  0
    9.8961    9.0059   11.6721 C   0  0  0  0  0  0  0  0  0  0  0  0
    9.4394    9.6519   13.8885 O   0  0  0  0  0  0  0  0  0  0  0  0
    8.1746   10.2271   14.2349 C   0  0  0  0  0  0  0  0  0  0  0  0
    8.3323   11.6424   14.7697 C   0  0  0  0  0  0  0  0  0  0  0  0
    8.7129   12.6096   13.6576 C   0  0  0  0  0  0  0  0  0  0  0  0
   10.0403   12.3777   13.1772 O   0  0  0  0  0  0  0  0  0  0  0  0
    7.1352    7.4373    8.2133 C   0  0  0  0  0  0  0  0  0  0  0  0
    5.6809    7.9631    8.1306 C   0  0  0  0  0  0  0  0  0  0  0  0
    3.0285   11.6412    7.6360 H   0  0  0  0  0  0  0  0  0  0  0  0
    4.3560   11.4079    6.4822 H   0  0  0  0  0  0  0  0  0  0  0  0
    6.1446   10.9118    9.5543 H   0  0  0  0  0  0  0  0  0  0  0  0
    7.3616   10.4828    8.3227 H   0  0  0  0  0  0  0  0  0  0  0  0
    6.3320    8.6871   10.6137 H   0  0  0  0  0  0  0  0  0  0  0  0
    7.7126    9.6986   10.7466 H   0  0  0  0  0  0  0  0  0  0  0  0
   10.6096   10.9599    8.9482 H   0  0  0  0  0  0  0  0  0  0  0  0
   10.6679   12.7033   10.7009 H   0  0  0  0  0  0  0  0  0  0  0  0
    9.6380    7.9829   11.9386 H   0  0  0  0  0  0  0  0  0  0  0  0
    7.7491    9.5948   15.0222 H   0  0  0  0  0  0  0  0  0  0  0  0
    7.4683   10.1863   13.3926 H   0  0  0  0  0  0  0  0  0  0  0  0
    9.1126   11.6521   15.5390 H   0  0  0  0  0  0  0  0  0  0  0  0
    7.3893   11.9666   15.2232 H   0  0  0  0  0  0  0  0  0  0  0  0
    8.7023   13.6285   14.0616 H   0  0  0  0  0  0  0  0  0  0  0  0
    7.9821   12.5960   12.8364 H   0  0  0  0  0  0  0  0  0  0  0  0
    7.1313    6.3461    8.3089 H   0  0  0  0  0  0  0  0  0  0  0  0
    7.6339    7.6895    7.2720 H   0  0  0  0  0  0  0  0  0  0  0  0
    5.2007    7.6067    7.2117 H   0  0  0  0  0  0  0  0  0  0  0  0
    5.0992    7.5657    8.9725 H   0  0  0  0  0  0  0  0  0  0  0  0
  1  2  2  0  0  0  0
  2  3  1  0  0  0  0
  2  5  1  0  0  0  0
  3  4  1  0  0  0  0
  3 25  1  0  0  0  0
  3 26  1  0  0  0  0
  5  6  1  0  0  0  0
  5 24  1  0  0  0  0
  6  7  1  0  0  0  0
  6 27  1  0  0  0  0
  6 28  1  0  0  0  0
  7  8  1  0  0  0  0
  7 29  1  0  0  0  0
  7 30  1  0  0  0  0
  8  9  1  0  0  0  0
  8 23  1  0  0  0  0
  9 10  2  0  0  0  0
  9 11  2  0  0  0  0
  9 12  1  0  0  0  0
 12 13  1  0  0  0  0
 12 17  2  0  0  0  0
 13 14  2  0  0  0  0
 13 31  1  0  0  0  0
 14 15  1  0  0  0  0
 14 32  1  0  0  0  0
 15 16  2  0  0  0  0
 15 22  1  0  0  0  0
 16 17  1  0  0  0  0
 16 18  1  0  0  0  0
 17 33  1  0  0  0  0
 18 19  1  0  0  0  0
 19 20  1  0  0  0  0
 19 34  1  0  0  0  0
 19 35  1  0  0  0  0
 20 21  1  0  0  0  0
 20 36  1  0  0  0  0
 20 37  1  0  0  0  0
 21 22  1  0  0  0  0
 21 38  1  0  0  0  0
 21 39  1  0  0  0  0
 23 24  1  0  0  0  0
 23 40  1  0  0  0  0
 23 41  1  0  0  0  0
 24 42  1  0  0  0  0
 24 43  1  0  0  0  0
M  END
>  <name>


>  <Energy>
80.7207

$$$$
