MODEL 1
REMARK VINA RESULT:      -6.8      0.000      0.000
REMARK  Name = 
REMARK  4 active torsions:
REMARK  status: ('A' for Active; 'I' for Inactive)
REMARK    1  A    between atoms: C_2  and  C_3
REMARK    2  A    between atoms: C_2  and  N_5
REMARK    3  A    between atoms: N_8  and  S_9
REMARK    4  A    between atoms: S_9  and  C_12
REMARK                            x       y       z     vdW  Elec       q    Type
REMARK                         _______ _______ _______ _____ _____    ______ ____
ROOT
ATOM      1  S   UNL     1       8.436  -2.035  22.704  0.00  0.00    +0.000 S 
ATOM      2  O   UNL     1       9.762  -2.138  22.176  0.00  0.00    +0.000 OA
ATOM      3  O   UNL     1       7.345  -2.261  21.795  0.00  0.00    +0.000 OA
ENDROOT
BRANCH   1   4
ATOM      4  C   UNL     1       8.249  -3.115  24.113  0.00  0.00    +0.000 C 
ATOM      5  C   UNL     1       9.338  -3.763  24.647  0.00  0.00    +0.000 C 
ATOM      6  C   UNL     1       9.162  -4.586  25.753  0.00  0.00    +0.000 C 
ATOM      7  C   UNL     1       7.903  -4.748  26.305  0.00  0.00    +0.000 C 
ATOM      8  C   UNL     1       6.799  -4.082  25.749  0.00  0.00    +0.000 C 
ATOM      9  C   UNL     1       6.979  -3.263  24.652  0.00  0.00    +0.000 C 
ATOM     10  O   UNL     1       5.531  -4.222  26.263  0.00  0.00    +0.000 OA
ATOM     11  C   UNL     1       5.454  -5.043  27.368  0.00  0.00    +0.000 C 
ATOM     12  C   UNL     1       6.494  -5.667  27.894  0.00  0.00    +0.000 C 
ATOM     13  O   UNL     1       7.777  -5.569  27.396  0.00  0.00    +0.000 OA
ENDBRANCH   1   4
BRANCH   1  17
ATOM     14  N   UNL     1       8.092   0.923  21.236  0.00  0.00    +0.000 NA
ATOM     15  C   UNL     1       9.462   0.714  21.662  0.00  0.00    +0.000 C 
ATOM     16  C   UNL     1       9.483   0.313  23.147  0.00  0.00    +0.000 C 
ATOM     17  N   UNL     1       8.348  -0.529  23.464  0.00  0.00    +0.000 NA
ATOM     18  C   UNL     1       7.068   0.139  23.289  0.00  0.00    +0.000 C 
ATOM     19  C   UNL     1       7.188   1.305  22.298  0.00  0.00    +0.000 C 
BRANCH  14  21
ATOM     20  O   UNL     1       8.148  -0.185  19.281  0.00  0.00    +0.000 OA
ATOM     21  C   UNL     1       7.552   0.535  20.058  0.00  0.00    +0.000 C 
BRANCH  21  22
ATOM     22  C   UNL     1       6.140   0.995  19.746  0.00  0.00    +0.000 C 
ATOM     23 CL   UNL     1       5.565   0.369  18.187  0.00  0.00    +0.000 Cl
ENDBRANCH  21  22
ENDBRANCH  14  21
ENDBRANCH   1  17
TORSDOF 4
ENDMDL
MODEL 2
REMARK VINA RESULT:      -6.7      1.686      2.377
REMARK  Name = 
REMARK  4 active torsions:
REMARK  status: ('A' for Active; 'I' for Inactive)
REMARK    1  A    between atoms: C_2  and  C_3
REMARK    2  A    between atoms: C_2  and  N_5
REMARK    3  A    between atoms: N_8  and  S_9
REMARK    4  A    between atoms: S_9  and  C_12
REMARK                            x       y       z     vdW  Elec       q    Type
REMARK                         _______ _______ _______ _____ _____    ______ ____
ROOT
ATOM      1  S   UNL     1       8.358  -3.053  24.004  0.00  0.00    +0.000 S 
ATOM      2  O   UNL     1       9.742  -3.367  24.194  0.00  0.00    +0.000 OA
ATOM      3  O   UNL     1       7.887  -2.941  22.650  0.00  0.00    +0.000 OA
ENDROOT
BRANCH   1   4
ATOM      4  C   UNL     1       7.336  -4.227  24.879  0.00  0.00    +0.000 C 
ATOM      5  C   UNL     1       6.410  -4.988  24.204  0.00  0.00    +0.000 C 
ATOM      6  C   UNL     1       5.640  -5.903  24.912  0.00  0.00    +0.000 C 
ATOM      7  C   UNL     1       5.806  -6.040  26.279  0.00  0.00    +0.000 C 
ATOM      8  C   UNL     1       6.754  -5.256  26.956  0.00  0.00    +0.000 C 
ATOM      9  C   UNL     1       7.520  -4.351  26.249  0.00  0.00    +0.000 C 
ATOM     10  O   UNL     1       6.945  -5.358  28.314  0.00  0.00    +0.000 OA
ATOM     11  C   UNL     1       6.150  -6.301  28.930  0.00  0.00    +0.000 C 
ATOM     12  C   UNL     1       5.260  -7.043  28.291  0.00  0.00    +0.000 C 
ATOM     13  O   UNL     1       5.025  -6.957  26.935  0.00  0.00    +0.000 OA
ENDBRANCH   1   4
BRANCH   1  17
ATOM     14  N   UNL     1       9.080   0.073  23.154  0.00  0.00    +0.000 NA
ATOM     15  C   UNL     1      10.037  -0.433  24.118  0.00  0.00    +0.000 C 
ATOM     16  C   UNL     1       9.287  -1.009  25.332  0.00  0.00    +0.000 C 
ATOM     17  N   UNL     1       8.064  -1.661  24.914  0.00  0.00    +0.000 NA
ATOM     18  C   UNL     1       7.109  -0.753  24.299  0.00  0.00    +0.000 C 
ATOM     19  C   UNL     1       7.816   0.483  23.726  0.00  0.00    +0.000 C 
BRANCH  14  21
ATOM     20  O   UNL     1       9.899  -0.857  21.279  0.00  0.00    +0.000 OA
ATOM     21  C   UNL     1       9.149  -0.062  21.810  0.00  0.00    +0.000 C 
BRANCH  21  22
ATOM     22  C   UNL     1       8.216   0.788  20.968  0.00  0.00    +0.000 C 
ATOM     23 CL   UNL     1       7.848   0.027  19.406  0.00  0.00    +0.000 Cl
ENDBRANCH  21  22
ENDBRANCH  14  21
ENDBRANCH   1  17
TORSDOF 4
ENDMDL
MODEL 3
REMARK VINA RESULT:      -6.6      1.541      1.815
REMARK  Name = 
REMARK  4 active torsions:
REMARK  status: ('A' for Active; 'I' for Inactive)
REMARK    1  A    between atoms: C_2  and  C_3
REMARK    2  A    between atoms: C_2  and  N_5
REMARK    3  A    between atoms: N_8  and  S_9
REMARK    4  A    between atoms: S_9  and  C_12
REMARK                            x       y       z     vdW  Elec       q    Type
REMARK                         _______ _______ _______ _____ _____    ______ ____
ROOT
ATOM      1  S   UNL     1       7.685  -2.283  23.715  0.00  0.00    +0.000 S 
ATOM      2  O   UNL     1       7.870  -2.968  22.472  0.00  0.00    +0.000 OA
ATOM      3  O   UNL     1       6.602  -1.339  23.793  0.00  0.00    +0.000 OA
ENDROOT
BRANCH   1   4
ATOM      4  C   UNL     1       7.526  -3.459  25.048  0.00  0.00    +0.000 C 
ATOM      5  C   UNL     1       8.425  -4.492  25.181  0.00  0.00    +0.000 C 
ATOM      6  C   UNL     1       8.282  -5.383  26.238  0.00  0.00    +0.000 C 
ATOM      7  C   UNL     1       7.245  -5.228  27.141  0.00  0.00    +0.000 C 
ATOM      8  C   UNL     1       6.333  -4.171  26.993  0.00  0.00    +0.000 C 
ATOM      9  C   UNL     1       6.481  -3.286  25.944  0.00  0.00    +0.000 C 
ATOM     10  O   UNL     1       5.286  -3.986  27.865  0.00  0.00    +0.000 OA
ATOM     11  C   UNL     1       5.232  -4.906  28.891  0.00  0.00    +0.000 C 
ATOM     12  C   UNL     1       6.094  -5.901  29.032  0.00  0.00    +0.000 C 
ATOM     13  O   UNL     1       7.144  -6.131  28.169  0.00  0.00    +0.000 OA
ENDBRANCH   1   4
BRANCH   1  17
ATOM     14  N   UNL     1       9.207   0.194  22.111  0.00  0.00    +0.000 NA
ATOM     15  C   UNL     1       9.809  -1.083  21.779  0.00  0.00    +0.000 C 
ATOM     16  C   UNL     1      10.173  -1.831  23.074  0.00  0.00    +0.000 C 
ATOM     17  N   UNL     1       9.178  -1.592  24.098  0.00  0.00    +0.000 NA
ATOM     18  C   UNL     1       9.090  -0.197  24.502  0.00  0.00    +0.000 C 
ATOM     19  C   UNL     1       9.610   0.729  23.393  0.00  0.00    +0.000 C 
BRANCH  14  21
ATOM     20  O   UNL     1       7.878   1.941  21.626  0.00  0.00    +0.000 OA
ATOM     21  C   UNL     1       8.143   0.761  21.499  0.00  0.00    +0.000 C 
BRANCH  21  22
ATOM     22  C   UNL     1       7.298  -0.119  20.596  0.00  0.00    +0.000 C 
ATOM     23 CL   UNL     1       7.547   0.255  18.878  0.00  0.00    +0.000 Cl
ENDBRANCH  21  22
ENDBRANCH  14  21
ENDBRANCH   1  17
TORSDOF 4
ENDMDL
MODEL 4
REMARK VINA RESULT:      -6.4      2.821      3.654
REMARK  Name = 
REMARK  4 active torsions:
REMARK  status: ('A' for Active; 'I' for Inactive)
REMARK    1  A    between atoms: C_2  and  C_3
REMARK    2  A    between atoms: C_2  and  N_5
REMARK    3  A    between atoms: N_8  and  S_9
REMARK    4  A    between atoms: S_9  and  C_12
REMARK                            x       y       z     vdW  Elec       q    Type
REMARK                         _______ _______ _______ _____ _____    ______ ____
ROOT
ATOM      1  S   UNL     1       7.631  -3.683  23.594  0.00  0.00    +0.000 S 
ATOM      2  O   UNL     1       8.896  -4.203  24.017  0.00  0.00    +0.000 OA
ATOM      3  O   UNL     1       7.482  -3.365  22.200  0.00  0.00    +0.000 OA
ENDROOT
BRANCH   1   4
ATOM      4  C   UNL     1       6.318  -4.791  24.080  0.00  0.00    +0.000 C 
ATOM      5  C   UNL     1       6.354  -5.427  25.299  0.00  0.00    +0.000 C 
ATOM      6  C   UNL     1       5.309  -6.272  25.653  0.00  0.00    +0.000 C 
ATOM      7  C   UNL     1       4.249  -6.469  24.784  0.00  0.00    +0.000 C 
ATOM      8  C   UNL     1       4.226  -5.815  23.542  0.00  0.00    +0.000 C 
ATOM      9  C   UNL     1       5.264  -4.973  23.195  0.00  0.00    +0.000 C 
ATOM     10  O   UNL     1       3.196  -5.989  22.648  0.00  0.00    +0.000 OA
ATOM     11  C   UNL     1       2.197  -6.831  23.089  0.00  0.00    +0.000 C 
ATOM     12  C   UNL     1       2.217  -7.443  24.261  0.00  0.00    +0.000 C 
ATOM     13  O   UNL     1       3.240  -7.311  25.176  0.00  0.00    +0.000 OA
ENDBRANCH   1   4
BRANCH   1  17
ATOM     14  N   UNL     1       9.170  -0.742  23.596  0.00  0.00    +0.000 NA
ATOM     15  C   UNL     1       9.621  -1.561  24.705  0.00  0.00    +0.000 C 
ATOM     16  C   UNL     1       8.403  -2.071  25.494  0.00  0.00    +0.000 C 
ATOM     17  N   UNL     1       7.303  -2.367  24.600  0.00  0.00    +0.000 NA
ATOM     18  C   UNL     1       6.807  -1.199  23.890  0.00  0.00    +0.000 C 
ATOM     19  C   UNL     1       7.886  -0.110  23.804  0.00  0.00    +0.000 C 
BRANCH  14  21
ATOM     20  O   UNL     1      10.366  -1.654  21.925  0.00  0.00    +0.000 OA
ATOM     21  C   UNL     1       9.675  -0.744  22.341  0.00  0.00    +0.000 C 
BRANCH  21  22
ATOM     22  C   UNL     1       9.314   0.418  21.435  0.00  0.00    +0.000 C 
ATOM     23 CL   UNL     1       8.240  -0.077  20.111  0.00  0.00    +0.000 Cl
ENDBRANCH  21  22
ENDBRANCH  14  21
ENDBRANCH   1  17
TORSDOF 4
ENDMDL
MODEL 5
REMARK VINA RESULT:      -6.3      3.621      6.863
REMARK  Name = 
REMARK  4 active torsions:
REMARK  status: ('A' for Active; 'I' for Inactive)
REMARK    1  A    between atoms: C_2  and  C_3
REMARK    2  A    between atoms: C_2  and  N_5
REMARK    3  A    between atoms: N_8  and  S_9
REMARK    4  A    between atoms: S_9  and  C_12
REMARK                            x       y       z     vdW  Elec       q    Type
REMARK                         _______ _______ _______ _____ _____    ______ ____
ROOT
ATOM      1  S   UNL     1       8.854  -2.390  24.559  0.00  0.00    +0.000 S 
ATOM      2  O   UNL     1       9.913  -3.216  24.064  0.00  0.00    +0.000 OA
ATOM      3  O   UNL     1       8.510  -2.521  25.949  0.00  0.00    +0.000 OA
ENDROOT
BRANCH   1   4
ATOM      4  C   UNL     1       9.197  -0.674  24.205  0.00  0.00    +0.000 C 
ATOM      5  C   UNL     1      10.068  -0.327  23.199  0.00  0.00    +0.000 C 
ATOM      6  C   UNL     1      10.303   1.018  22.940  0.00  0.00    +0.000 C 
ATOM      7  C   UNL     1       9.666   1.992  23.690  0.00  0.00    +0.000 C 
ATOM      8  C   UNL     1       8.781   1.624  24.715  0.00  0.00    +0.000 C 
ATOM      9  C   UNL     1       8.547   0.287  24.968  0.00  0.00    +0.000 C 
ATOM     10  O   UNL     1       8.134   2.560  25.488  0.00  0.00    +0.000 OA
ATOM     11  C   UNL     1       8.413   3.867  25.149  0.00  0.00    +0.000 C 
ATOM     12  C   UNL     1       9.245   4.213  24.180  0.00  0.00    +0.000 C 
ATOM     13  O   UNL     1       9.927   3.306  23.397  0.00  0.00    +0.000 OA
ENDBRANCH   1   4
BRANCH   1  17
ATOM     14  N   UNL     1       6.777  -4.979  24.604  0.00  0.00    +0.000 NA
ATOM     15  C   UNL     1       7.729  -5.100  23.517  0.00  0.00    +0.000 C 
ATOM     16  C   UNL     1       7.724  -3.807  22.683  0.00  0.00    +0.000 C 
ATOM     17  N   UNL     1       7.536  -2.651  23.535  0.00  0.00    +0.000 NA
ATOM     18  C   UNL     1       6.254  -2.642  24.220  0.00  0.00    +0.000 C 
ATOM     19  C   UNL     1       5.687  -4.064  24.344  0.00  0.00    +0.000 C 
BRANCH  14  21
ATOM     20  O   UNL     1       8.048  -5.728  26.300  0.00  0.00    +0.000 OA
ATOM     21  C   UNL     1       6.957  -5.398  25.877  0.00  0.00    +0.000 C 
BRANCH  21  22
ATOM     22  C   UNL     1       5.748  -5.404  26.794  0.00  0.00    +0.000 C 
ATOM     23 CL   UNL     1       4.743  -6.849  26.562  0.00  0.00    +0.000 Cl
ENDBRANCH  21  22
ENDBRANCH  14  21
ENDBRANCH   1  17
TORSDOF 4
ENDMDL
MODEL 6
REMARK VINA RESULT:      -6.2      2.538      3.112
REMARK  Name = 
REMARK  4 active torsions:
REMARK  status: ('A' for Active; 'I' for Inactive)
REMARK    1  A    between atoms: C_2  and  C_3
REMARK    2  A    between atoms: C_2  and  N_5
REMARK    3  A    between atoms: N_8  and  S_9
REMARK    4  A    between atoms: S_9  and  C_12
REMARK                            x       y       z     vdW  Elec       q    Type
REMARK                         _______ _______ _______ _____ _____    ______ ____
ROOT
ATOM      1  S   UNL     1       7.559  -1.838  24.644  0.00  0.00    +0.000 S 
ATOM      2  O   UNL     1       6.284  -1.508  24.082  0.00  0.00    +0.000 OA
ATOM      3  O   UNL     1       8.282  -0.783  25.302  0.00  0.00    +0.000 OA
ENDROOT
BRANCH   1   4
ATOM      4  C   UNL     1       7.398  -3.218  25.765  0.00  0.00    +0.000 C 
ATOM      5  C   UNL     1       8.303  -4.253  25.734  0.00  0.00    +0.000 C 
ATOM      6  C   UNL     1       8.158  -5.306  26.629  0.00  0.00    +0.000 C 
ATOM      7  C   UNL     1       7.113  -5.308  27.537  0.00  0.00    +0.000 C 
ATOM      8  C   UNL     1       6.195  -4.245  27.556  0.00  0.00    +0.000 C 
ATOM      9  C   UNL     1       6.345  -3.199  26.667  0.00  0.00    +0.000 C 
ATOM     10  O   UNL     1       5.140  -4.212  28.437  0.00  0.00    +0.000 OA
ATOM     11  C   UNL     1       5.084  -5.288  29.297  0.00  0.00    +0.000 C 
ATOM     12  C   UNL     1       5.952  -6.287  29.282  0.00  0.00    +0.000 C 
ATOM     13  O   UNL     1       7.011  -6.367  28.402  0.00  0.00    +0.000 OA
ENDBRANCH   1   4
BRANCH   1  17
ATOM     14  N   UNL     1       8.724  -0.362  21.908  0.00  0.00    +0.000 NA
ATOM     15  C   UNL     1       7.543  -1.147  21.607  0.00  0.00    +0.000 C 
ATOM     16  C   UNL     1       7.725  -2.576  22.147  0.00  0.00    +0.000 C 
ATOM     17  N   UNL     1       8.448  -2.559  23.402  0.00  0.00    +0.000 NA
ATOM     18  C   UNL     1       9.803  -2.046  23.279  0.00  0.00    +0.000 C 
ATOM     19  C   UNL     1       9.936  -1.138  22.048  0.00  0.00    +0.000 C 
BRANCH  14  21
ATOM     20  O   UNL     1       7.800   1.432  22.898  0.00  0.00    +0.000 OA
ATOM     21  C   UNL     1       8.746   0.923  22.329  0.00  0.00    +0.000 C 
BRANCH  21  22
ATOM     22  C   UNL     1      10.022   1.714  22.109  0.00  0.00    +0.000 C 
ATOM     23 CL   UNL     1      10.518   2.597  23.568  0.00  0.00    +0.000 Cl
ENDBRANCH  21  22
ENDBRANCH  14  21
ENDBRANCH   1  17
TORSDOF 4
ENDMDL
MODEL 7
REMARK VINA RESULT:      -6.1      3.237      7.268
REMARK  Name = 
REMARK  4 active torsions:
REMARK  status: ('A' for Active; 'I' for Inactive)
REMARK    1  A    between atoms: C_2  and  C_3
REMARK    2  A    between atoms: C_2  and  N_5
REMARK    3  A    between atoms: N_8  and  S_9
REMARK    4  A    between atoms: S_9  and  C_12
REMARK                            x       y       z     vdW  Elec       q    Type
REMARK                         _______ _______ _______ _____ _____    ______ ____
ROOT
ATOM      1  S   UNL     1       7.357  -3.027  23.636  0.00  0.00    +0.000 S 
ATOM      2  O   UNL     1       8.209  -4.160  23.436  0.00  0.00    +0.000 OA
ATOM      3  O   UNL     1       7.520  -2.286  24.858  0.00  0.00    +0.000 OA
ENDROOT
BRANCH   1   4
ATOM      4  C   UNL     1       7.492  -1.904  22.255  0.00  0.00    +0.000 C 
ATOM      5  C   UNL     1       8.626  -1.147  22.077  0.00  0.00    +0.000 C 
ATOM      6  C   UNL     1       8.706  -0.293  20.984  0.00  0.00    +0.000 C 
ATOM      7  C   UNL     1       7.653  -0.209  20.089  0.00  0.00    +0.000 C 
ATOM      8  C   UNL     1       6.501  -0.986  20.283  0.00  0.00    +0.000 C 
ATOM      9  C   UNL     1       6.426  -1.836  21.369  0.00  0.00    +0.000 C 
ATOM     10  O   UNL     1       5.430  -0.926  19.422  0.00  0.00    +0.000 OA
ATOM     11  C   UNL     1       5.604  -0.066  18.359  0.00  0.00    +0.000 C 
ATOM     12  C   UNL     1       6.692   0.663  18.174  0.00  0.00    +0.000 C 
ATOM     13  O   UNL     1       7.778   0.647  19.024  0.00  0.00    +0.000 OA
ENDBRANCH   1   4
BRANCH   1  17
ATOM     14  N   UNL     1       5.591  -4.889  25.742  0.00  0.00    +0.000 NA
ATOM     15  C   UNL     1       6.094  -5.689  24.643  0.00  0.00    +0.000 C 
ATOM     16  C   UNL     1       5.713  -5.026  23.308  0.00  0.00    +0.000 C 
ATOM     17  N   UNL     1       5.777  -3.583  23.418  0.00  0.00    +0.000 NA
ATOM     18  C   UNL     1       4.828  -3.036  24.375  0.00  0.00    +0.000 C 
ATOM     19  C   UNL     1       4.428  -4.091  25.416  0.00  0.00    +0.000 C 
BRANCH  14  21
ATOM     20  O   UNL     1       5.846  -3.764  27.671  0.00  0.00    +0.000 OA
ATOM     21  C   UNL     1       6.240  -4.613  26.896  0.00  0.00    +0.000 C 
BRANCH  21  22
ATOM     22  C   UNL     1       7.472  -5.436  27.223  0.00  0.00    +0.000 C 
ATOM     23 CL   UNL     1       8.968  -4.635  26.699  0.00  0.00    +0.000 Cl
ENDBRANCH  21  22
ENDBRANCH  14  21
ENDBRANCH   1  17
TORSDOF 4
ENDMDL
MODEL 8
REMARK VINA RESULT:      -6.1      3.801      7.272
REMARK  Name = 
REMARK  4 active torsions:
REMARK  status: ('A' for Active; 'I' for Inactive)
REMARK    1  A    between atoms: C_2  and  C_3
REMARK    2  A    between atoms: C_2  and  N_5
REMARK    3  A    between atoms: N_8  and  S_9
REMARK    4  A    between atoms: S_9  and  C_12
REMARK                            x       y       z     vdW  Elec       q    Type
REMARK                         _______ _______ _______ _____ _____    ______ ____
ROOT
ATOM      1  S   UNL     1       8.356  -3.344  24.888  0.00  0.00    +0.000 S 
ATOM      2  O   UNL     1       8.889  -4.546  24.323  0.00  0.00    +0.000 OA
ATOM      3  O   UNL     1       8.584  -3.115  26.289  0.00  0.00    +0.000 OA
ENDROOT
BRANCH   1   4
ATOM      4  C   UNL     1       8.928  -1.925  23.967  0.00  0.00    +0.000 C 
ATOM      5  C   UNL     1       9.193  -2.025  22.622  0.00  0.00    +0.000 C 
ATOM      6  C   UNL     1       9.625  -0.898  21.931  0.00  0.00    +0.000 C 
ATOM      7  C   UNL     1       9.785   0.305  22.596  0.00  0.00    +0.000 C 
ATOM      8  C   UNL     1       9.513   0.392  23.971  0.00  0.00    +0.000 C 
ATOM      9  C   UNL     1       9.082  -0.728  24.652  0.00  0.00    +0.000 C 
ATOM     10  O   UNL     1       9.667   1.567  24.669  0.00  0.00    +0.000 OA
ATOM     11  C   UNL     1      10.082   2.634  23.901  0.00  0.00    +0.000 C 
ATOM     12  C   UNL     1      10.334   2.553  22.605  0.00  0.00    +0.000 C 
ATOM     13  O   UNL     1      10.211   1.390  21.873  0.00  0.00    +0.000 OA
ENDBRANCH   1   4
BRANCH   1  17
ATOM     14  N   UNL     1       5.936  -5.139  26.282  0.00  0.00    +0.000 NA
ATOM     15  C   UNL     1       6.313  -5.692  24.996  0.00  0.00    +0.000 C 
ATOM     16  C   UNL     1       6.271  -4.584  23.929  0.00  0.00    +0.000 C 
ATOM     17  N   UNL     1       6.715  -3.323  24.485  0.00  0.00    +0.000 NA
ATOM     18  C   UNL     1       5.859  -2.828  25.550  0.00  0.00    +0.000 C 
ATOM     19  C   UNL     1       5.078  -3.977  26.204  0.00  0.00    +0.000 C 
BRANCH  14  21
ATOM     20  O   UNL     1       7.664  -5.796  27.561  0.00  0.00    +0.000 OA
ATOM     21  C   UNL     1       6.512  -5.418  27.474  0.00  0.00    +0.000 C 
BRANCH  21  22
ATOM     22  C   UNL     1       5.682  -5.201  28.725  0.00  0.00    +0.000 C 
ATOM     23 CL   UNL     1       4.485  -6.491  28.963  0.00  0.00    +0.000 Cl
ENDBRANCH  21  22
ENDBRANCH  14  21
ENDBRANCH   1  17
TORSDOF 4
ENDMDL
MODEL 9
REMARK VINA RESULT:      -6.1      2.862      3.534
REMARK  Name = 
REMARK  4 active torsions:
REMARK  status: ('A' for Active; 'I' for Inactive)
REMARK    1  A    between atoms: C_2  and  C_3
REMARK    2  A    between atoms: C_2  and  N_5
REMARK    3  A    between atoms: N_8  and  S_9
REMARK    4  A    between atoms: S_9  and  C_12
REMARK                            x       y       z     vdW  Elec       q    Type
REMARK                         _______ _______ _______ _____ _____    ______ ____
ROOT
ATOM      1  S   UNL     1       7.495  -1.378  23.114  0.00  0.00    +0.000 S 
ATOM      2  O   UNL     1       7.857  -1.391  21.729  0.00  0.00    +0.000 OA
ATOM      3  O   UNL     1       6.824  -0.206  23.609  0.00  0.00    +0.000 OA
ENDROOT
BRANCH   1   4
ATOM      4  C   UNL     1       6.515  -2.817  23.507  0.00  0.00    +0.000 C 
ATOM      5  C   UNL     1       5.594  -3.303  22.609  0.00  0.00    +0.000 C 
ATOM      6  C   UNL     1       4.857  -4.434  22.939  0.00  0.00    +0.000 C 
ATOM      7  C   UNL     1       5.050  -5.057  24.160  0.00  0.00    +0.000 C 
ATOM      8  C   UNL     1       5.992  -4.550  25.068  0.00  0.00    +0.000 C 
ATOM      9  C   UNL     1       6.725  -3.428  24.735  0.00  0.00    +0.000 C 
ATOM     10  O   UNL     1       6.210  -5.135  26.293  0.00  0.00    +0.000 OA
ATOM     11  C   UNL     1       5.447  -6.260  26.529  0.00  0.00    +0.000 C 
ATOM     12  C   UNL     1       4.562  -6.741  25.671  0.00  0.00    +0.000 C 
ATOM     13  O   UNL     1       4.301  -6.171  24.442  0.00  0.00    +0.000 OA
ENDBRANCH   1   4
BRANCH   1  17
ATOM     14  N   UNL     1      10.300   0.398  23.156  0.00  0.00    +0.000 NA
ATOM     15  C   UNL     1      10.443  -0.772  22.312  0.00  0.00    +0.000 C 
ATOM     16  C   UNL     1      10.022  -2.027  23.097  0.00  0.00    +0.000 C 
ATOM     17  N   UNL     1       8.906  -1.730  23.972  0.00  0.00    +0.000 NA
ATOM     18  C   UNL     1       9.224  -0.753  25.000  0.00  0.00    +0.000 C 
ATOM     19  C   UNL     1      10.407   0.128  24.573  0.00  0.00    +0.000 C 
BRANCH  14  21
ATOM     20  O   UNL     1       9.232   1.764  21.725  0.00  0.00    +0.000 OA
ATOM     21  C   UNL     1       9.816   1.603  22.779  0.00  0.00    +0.000 C 
BRANCH  21  22
ATOM     22  C   UNL     1       9.985   2.762  23.744  0.00  0.00    +0.000 C 
ATOM     23 CL   UNL     1      11.418   3.741  23.365  0.00  0.00    +0.000 Cl
ENDBRANCH  21  22
ENDBRANCH  14  21
ENDBRANCH   1  17
TORSDOF 4
ENDMDL
