MODEL 1
REMARK VINA RESULT:      -6.7      0.000      0.000
REMARK  Name = 
REMARK  6 active torsions:
REMARK  status: ('A' for Active; 'I' for Inactive)
REMARK    1  A    between atoms: C_1  and  C_2
REMARK    2  A    between atoms: C_2  and  C_4
REMARK    3  A    between atoms: C_7  and  S_8
REMARK    4  A    between atoms: S_8  and  N_11
REMARK    5  A    between atoms: N_14  and  C_15
REMARK    6  A    between atoms: C_15  and  C_17
REMARK                            x       y       z     vdW  Elec       q    Type
REMARK                         _______ _______ _______ _____ _____    ______ ____
ROOT
ATOM      1  S   UNL     1       9.087  -2.168  23.438  0.00  0.00    +0.000 S 
ATOM      2  O   UNL     1       8.337  -2.429  22.246  0.00  0.00    +0.000 OA
ATOM      3  O   UNL     1      10.225  -2.982  23.736  0.00  0.00    +0.000 OA
ENDROOT
BRANCH   1   7
ATOM      4  C   UNL     1      10.345   2.208  23.383  0.00  0.00    +0.000 C 
ATOM      5  C   UNL     1      10.249   1.527  24.597  0.00  0.00    +0.000 C 
ATOM      6  C   UNL     1       9.855   0.201  24.630  0.00  0.00    +0.000 C 
ATOM      7  C   UNL     1       9.569  -0.442  23.442  0.00  0.00    +0.000 C 
ATOM      8  C   UNL     1       9.666   0.210  22.227  0.00  0.00    +0.000 C 
ATOM      9  C   UNL     1      10.050   1.539  22.194  0.00  0.00    +0.000 C 
BRANCH   4  11
ATOM     10  C   UNL     1       9.729   4.643  23.857  0.00  0.00    +0.000 C 
ATOM     11  C   UNL     1      10.768   3.640  23.429  0.00  0.00    +0.000 C 
ATOM     12  O   UNL     1      11.895   3.966  23.139  0.00  0.00    +0.000 OA
ENDBRANCH   4  11
ENDBRANCH   1   7
BRANCH   1  13
ATOM     13  N   UNL     1       8.118  -2.168  24.824  0.00  0.00    +0.000 NA
ATOM     14  C   UNL     1       8.527  -3.136  25.820  0.00  0.00    +0.000 C 
ATOM     15  C   UNL     1       8.264  -4.571  25.334  0.00  0.00    +0.000 C 
ATOM     16  N   UNL     1       7.127  -4.590  24.426  0.00  0.00    +0.000 NA
ATOM     17  C   UNL     1       6.118  -3.610  24.743  0.00  0.00    +0.000 C 
ATOM     18  C   UNL     1       6.696  -2.194  24.547  0.00  0.00    +0.000 C 
BRANCH  16  19
ATOM     19  C   UNL     1       7.236  -5.315  23.289  0.00  0.00    +0.000 C 
ATOM     20  O   UNL     1       8.281  -5.829  22.953  0.00  0.00    +0.000 OA
BRANCH  19  21
ATOM     21  C   UNL     1       5.965  -5.613  22.501  0.00  0.00    +0.000 C 
ATOM     22 CL   UNL     1       6.203  -5.712  20.746  0.00  0.00    +0.000 Cl
ENDBRANCH  19  21
ENDBRANCH  16  19
ENDBRANCH   1  13
TORSDOF 5
ENDMDL
MODEL 2
REMARK VINA RESULT:      -6.2      3.593      4.565
REMARK  Name = 
REMARK  6 active torsions:
REMARK  status: ('A' for Active; 'I' for Inactive)
REMARK    1  A    between atoms: C_1  and  C_2
REMARK    2  A    between atoms: C_2  and  C_4
REMARK    3  A    between atoms: C_7  and  S_8
REMARK    4  A    between atoms: S_8  and  N_11
REMARK    5  A    between atoms: N_14  and  C_15
REMARK    6  A    between atoms: C_15  and  C_17
REMARK                            x       y       z     vdW  Elec       q    Type
REMARK                         _______ _______ _______ _____ _____    ______ ____
ROOT
ATOM      1  S   UNL     1       7.499  -3.245  23.478  0.00  0.00    +0.000 S 
ATOM      2  O   UNL     1       6.639  -4.386  23.575  0.00  0.00    +0.000 OA
ATOM      3  O   UNL     1       8.916  -3.440  23.466  0.00  0.00    +0.000 OA
ENDROOT
BRANCH   1   7
ATOM      4  C   UNL     1       6.284  -0.746  19.871  0.00  0.00    +0.000 C 
ATOM      5  C   UNL     1       5.625  -1.946  20.140  0.00  0.00    +0.000 C 
ATOM      6  C   UNL     1       5.992  -2.723  21.224  0.00  0.00    +0.000 C 
ATOM      7  C   UNL     1       7.015  -2.286  22.044  0.00  0.00    +0.000 C 
ATOM      8  C   UNL     1       7.675  -1.097  21.802  0.00  0.00    +0.000 C 
ATOM      9  C   UNL     1       7.315  -0.325  20.712  0.00  0.00    +0.000 C 
BRANCH   4  11
ATOM     10  C   UNL     1       5.196   1.370  18.938  0.00  0.00    +0.000 C 
ATOM     11  C   UNL     1       5.837   0.032  18.677  0.00  0.00    +0.000 C 
ATOM     12  O   UNL     1       5.992  -0.400  17.559  0.00  0.00    +0.000 OA
ENDBRANCH   4  11
ENDBRANCH   1   7
BRANCH   1  13
ATOM     13  N   UNL     1       7.182  -2.095  24.677  0.00  0.00    +0.000 NA
ATOM     14  C   UNL     1       8.287  -1.883  25.587  0.00  0.00    +0.000 C 
ATOM     15  C   UNL     1       8.510  -3.116  26.480  0.00  0.00    +0.000 C 
ATOM     16  N   UNL     1       7.251  -3.815  26.688  0.00  0.00    +0.000 NA
ATOM     17  C   UNL     1       6.104  -2.942  26.728  0.00  0.00    +0.000 C 
ATOM     18  C   UNL     1       5.912  -2.280  25.348  0.00  0.00    +0.000 C 
BRANCH  16  19
ATOM     19  C   UNL     1       7.249  -5.164  26.578  0.00  0.00    +0.000 C 
ATOM     20  O   UNL     1       8.235  -5.781  26.236  0.00  0.00    +0.000 OA
BRANCH  19  21
ATOM     21  C   UNL     1       6.014  -5.922  27.051  0.00  0.00    +0.000 C 
ATOM     22 CL   UNL     1       4.894  -6.374  25.752  0.00  0.00    +0.000 Cl
ENDBRANCH  19  21
ENDBRANCH  16  19
ENDBRANCH   1  13
TORSDOF 5
ENDMDL
MODEL 3
REMARK VINA RESULT:      -6.0      3.377      7.487
REMARK  Name = 
REMARK  6 active torsions:
REMARK  status: ('A' for Active; 'I' for Inactive)
REMARK    1  A    between atoms: C_1  and  C_2
REMARK    2  A    between atoms: C_2  and  C_4
REMARK    3  A    between atoms: C_7  and  S_8
REMARK    4  A    between atoms: S_8  and  N_11
REMARK    5  A    between atoms: N_14  and  C_15
REMARK    6  A    between atoms: C_15  and  C_17
REMARK                            x       y       z     vdW  Elec       q    Type
REMARK                         _______ _______ _______ _____ _____    ______ ____
ROOT
ATOM      1  S   UNL     1       7.512  -1.228  23.645  0.00  0.00    +0.000 S 
ATOM      2  O   UNL     1       6.515  -0.203  23.715  0.00  0.00    +0.000 OA
ATOM      3  O   UNL     1       8.721  -1.075  24.394  0.00  0.00    +0.000 OA
ENDROOT
BRANCH   1   7
ATOM      4  C   UNL     1       5.507  -5.178  24.699  0.00  0.00    +0.000 C 
ATOM      5  C   UNL     1       6.834  -4.952  25.067  0.00  0.00    +0.000 C 
ATOM      6  C   UNL     1       7.460  -3.762  24.742  0.00  0.00    +0.000 C 
ATOM      7  C   UNL     1       6.749  -2.796  24.056  0.00  0.00    +0.000 C 
ATOM      8  C   UNL     1       5.431  -2.996  23.689  0.00  0.00    +0.000 C 
ATOM      9  C   UNL     1       4.807  -4.189  24.006  0.00  0.00    +0.000 C 
BRANCH   4  11
ATOM     10  C   UNL     1       4.726  -6.760  26.549  0.00  0.00    +0.000 C 
ATOM     11  C   UNL     1       4.902  -6.490  25.077  0.00  0.00    +0.000 C 
ATOM     12  O   UNL     1       4.569  -7.289  24.233  0.00  0.00    +0.000 OA
ENDBRANCH   4  11
ENDBRANCH   1   7
BRANCH   1  13
ATOM     13  N   UNL     1       7.972  -1.575  22.054  0.00  0.00    +0.000 NA
ATOM     14  C   UNL     1       9.401  -1.506  21.833  0.00  0.00    +0.000 C 
ATOM     15  C   UNL     1       9.903  -0.056  21.926  0.00  0.00    +0.000 C 
ATOM     16  N   UNL     1       8.851   0.864  21.519  0.00  0.00    +0.000 NA
ATOM     17  C   UNL     1       7.986   0.336  20.494  0.00  0.00    +0.000 C 
ATOM     18  C   UNL     1       7.201  -0.868  21.053  0.00  0.00    +0.000 C 
BRANCH  16  19
ATOM     19  C   UNL     1       8.645   1.966  22.278  0.00  0.00    +0.000 C 
ATOM     20  O   UNL     1       7.740   2.741  22.050  0.00  0.00    +0.000 OA
BRANCH  19  21
ATOM     21  C   UNL     1       9.483   2.139  23.539  0.00  0.00    +0.000 C 
ATOM     22 CL   UNL     1      10.891   3.199  23.338  0.00  0.00    +0.000 Cl
ENDBRANCH  19  21
ENDBRANCH  16  19
ENDBRANCH   1  13
TORSDOF 5
ENDMDL
MODEL 4
REMARK VINA RESULT:      -5.9      1.767      2.308
REMARK  Name = 
REMARK  6 active torsions:
REMARK  status: ('A' for Active; 'I' for Inactive)
REMARK    1  A    between atoms: C_1  and  C_2
REMARK    2  A    between atoms: C_2  and  C_4
REMARK    3  A    between atoms: C_7  and  S_8
REMARK    4  A    between atoms: S_8  and  N_11
REMARK    5  A    between atoms: N_14  and  C_15
REMARK    6  A    between atoms: C_15  and  C_17
REMARK                            x       y       z     vdW  Elec       q    Type
REMARK                         _______ _______ _______ _____ _____    ______ ____
ROOT
ATOM      1  S   UNL     1       8.657  -1.466  23.537  0.00  0.00    +0.000 S 
ATOM      2  O   UNL     1       9.418  -2.274  22.633  0.00  0.00    +0.000 OA
ATOM      3  O   UNL     1       8.501  -1.895  24.893  0.00  0.00    +0.000 OA
ENDROOT
BRANCH   1   7
ATOM      4  C   UNL     1      10.282   2.787  23.508  0.00  0.00    +0.000 C 
ATOM      5  C   UNL     1      10.449   1.971  22.388  0.00  0.00    +0.000 C 
ATOM      6  C   UNL     1       9.973   0.672  22.388  0.00  0.00    +0.000 C 
ATOM      7  C   UNL     1       9.318   0.199  23.509  0.00  0.00    +0.000 C 
ATOM      8  C   UNL     1       9.134   0.993  24.625  0.00  0.00    +0.000 C 
ATOM      9  C   UNL     1       9.619   2.288  24.630  0.00  0.00    +0.000 C 
BRANCH   4  11
ATOM     10  C   UNL     1       9.906   5.295  23.830  0.00  0.00    +0.000 C 
ATOM     11  C   UNL     1      10.832   4.174  23.436  0.00  0.00    +0.000 C 
ATOM     12  O   UNL     1      11.970   4.375  23.082  0.00  0.00    +0.000 OA
ENDBRANCH   4  11
ENDBRANCH   1   7
BRANCH   1  13
ATOM     13  N   UNL     1       7.102  -1.135  22.956  0.00  0.00    +0.000 NA
ATOM     14  C   UNL     1       6.056  -1.363  23.929  0.00  0.00    +0.000 C 
ATOM     15  C   UNL     1       5.896  -2.863  24.225  0.00  0.00    +0.000 C 
ATOM     16  N   UNL     1       6.267  -3.645  23.056  0.00  0.00    +0.000 NA
ATOM     17  C   UNL     1       5.962  -2.996  21.805  0.00  0.00    +0.000 C 
ATOM     18  C   UNL     1       6.822  -1.724  21.662  0.00  0.00    +0.000 C 
BRANCH  16  19
ATOM     19  C   UNL     1       7.049  -4.734  23.244  0.00  0.00    +0.000 C 
ATOM     20  O   UNL     1       7.533  -5.344  22.314  0.00  0.00    +0.000 OA
BRANCH  19  21
ATOM     21  C   UNL     1       7.446  -5.098  24.669  0.00  0.00    +0.000 C 
ATOM     22 CL   UNL     1       9.185  -5.368  24.894  0.00  0.00    +0.000 Cl
ENDBRANCH  19  21
ENDBRANCH  16  19
ENDBRANCH   1  13
TORSDOF 5
ENDMDL
MODEL 5
REMARK VINA RESULT:      -5.9      3.598      7.337
REMARK  Name = 
REMARK  6 active torsions:
REMARK  status: ('A' for Active; 'I' for Inactive)
REMARK    1  A    between atoms: C_1  and  C_2
REMARK    2  A    between atoms: C_2  and  C_4
REMARK    3  A    between atoms: C_7  and  S_8
REMARK    4  A    between atoms: S_8  and  N_11
REMARK    5  A    between atoms: N_14  and  C_15
REMARK    6  A    between atoms: C_15  and  C_17
REMARK                            x       y       z     vdW  Elec       q    Type
REMARK                         _______ _______ _______ _____ _____    ______ ____
ROOT
ATOM      1  S   UNL     1       9.102  -0.239  24.551  0.00  0.00    +0.000 S 
ATOM      2  O   UNL     1       8.638   0.854  25.352  0.00  0.00    +0.000 OA
ATOM      3  O   UNL     1      10.504  -0.368  24.294  0.00  0.00    +0.000 OA
ENDROOT
BRANCH   1   7
ATOM      4  C   UNL     1       7.529  -4.151  26.269  0.00  0.00    +0.000 C 
ATOM      5  C   UNL     1       7.028  -2.935  26.736  0.00  0.00    +0.000 C 
ATOM      6  C   UNL     1       7.506  -1.738  26.233  0.00  0.00    +0.000 C 
ATOM      7  C   UNL     1       8.480  -1.765  25.253  0.00  0.00    +0.000 C 
ATOM      8  C   UNL     1       8.984  -2.958  24.769  0.00  0.00    +0.000 C 
ATOM      9  C   UNL     1       8.513  -4.154  25.279  0.00  0.00    +0.000 C 
BRANCH   4  11
ATOM     10  C   UNL     1       5.774  -6.007  26.180  0.00  0.00    +0.000 C 
ATOM     11  C   UNL     1       6.969  -5.400  26.867  0.00  0.00    +0.000 C 
ATOM     12  O   UNL     1       7.465  -5.894  27.853  0.00  0.00    +0.000 OA
ENDBRANCH   4  11
ENDBRANCH   1   7
BRANCH   1  13
ATOM     13  N   UNL     1       8.329  -0.311  23.048  0.00  0.00    +0.000 NA
ATOM     14  C   UNL     1       9.234  -0.222  21.923  0.00  0.00    +0.000 C 
ATOM     15  C   UNL     1       9.846   1.184  21.818  0.00  0.00    +0.000 C 
ATOM     16  N   UNL     1       8.920   2.172  22.350  0.00  0.00    +0.000 NA
ATOM     17  C   UNL     1       7.534   1.840  22.138  0.00  0.00    +0.000 C 
ATOM     18  C   UNL     1       7.182   0.567  22.934  0.00  0.00    +0.000 C 
BRANCH  16  19
ATOM     19  C   UNL     1       9.416   3.130  23.169  0.00  0.00    +0.000 C 
ATOM     20  O   UNL     1       8.698   3.934  23.724  0.00  0.00    +0.000 OA
BRANCH  19  21
ATOM     21  C   UNL     1      10.900   3.084  23.513  0.00  0.00    +0.000 C 
ATOM     22 CL   UNL     1      11.722   4.653  23.402  0.00  0.00    +0.000 Cl
ENDBRANCH  19  21
ENDBRANCH  16  19
ENDBRANCH   1  13
TORSDOF 5
ENDMDL
MODEL 6
REMARK VINA RESULT:      -5.8      3.293      7.459
REMARK  Name = 
REMARK  6 active torsions:
REMARK  status: ('A' for Active; 'I' for Inactive)
REMARK    1  A    between atoms: C_1  and  C_2
REMARK    2  A    between atoms: C_2  and  C_4
REMARK    3  A    between atoms: C_7  and  S_8
REMARK    4  A    between atoms: S_8  and  N_11
REMARK    5  A    between atoms: N_14  and  C_15
REMARK    6  A    between atoms: C_15  and  C_17
REMARK                            x       y       z     vdW  Elec       q    Type
REMARK                         _______ _______ _______ _____ _____    ______ ____
ROOT
ATOM      1  S   UNL     1       8.871  -2.026  24.322  0.00  0.00    +0.000 S 
ATOM      2  O   UNL     1       8.857  -1.010  25.331  0.00  0.00    +0.000 OA
ATOM      3  O   UNL     1      10.124  -2.575  23.903  0.00  0.00    +0.000 OA
ENDROOT
BRANCH   1   7
ATOM      4  C   UNL     1       6.129  -5.397  25.682  0.00  0.00    +0.000 C 
ATOM      5  C   UNL     1       6.481  -5.287  24.336  0.00  0.00    +0.000 C 
ATOM      6  C   UNL     1       7.302  -4.260  23.906  0.00  0.00    +0.000 C 
ATOM      7  C   UNL     1       7.778  -3.351  24.831  0.00  0.00    +0.000 C 
ATOM      8  C   UNL     1       7.450  -3.447  26.171  0.00  0.00    +0.000 C 
ATOM      9  C   UNL     1       6.621  -4.467  26.599  0.00  0.00    +0.000 C 
BRANCH   4  11
ATOM     10  C   UNL     1       4.243  -6.995  25.033  0.00  0.00    +0.000 C 
ATOM     11  C   UNL     1       5.232  -6.527  26.068  0.00  0.00    +0.000 C 
ATOM     12  O   UNL     1       5.307  -7.036  27.162  0.00  0.00    +0.000 OA
ENDBRANCH   4  11
ENDBRANCH   1   7
BRANCH   1  13
ATOM     13  N   UNL     1       8.060  -1.550  22.915  0.00  0.00    +0.000 NA
ATOM     14  C   UNL     1       8.935  -1.340  21.782  0.00  0.00    +0.000 C 
ATOM     15  C   UNL     1       9.818  -0.099  21.990  0.00  0.00    +0.000 C 
ATOM     16  N   UNL     1       9.128   0.871  22.827  0.00  0.00    +0.000 NA
ATOM     17  C   UNL     1       7.698   0.876  22.647  0.00  0.00    +0.000 C 
ATOM     18  C   UNL     1       7.114  -0.472  23.119  0.00  0.00    +0.000 C 
BRANCH  16  19
ATOM     19  C   UNL     1       9.830   1.464  23.821  0.00  0.00    +0.000 C 
ATOM     20  O   UNL     1      10.975   1.154  24.071  0.00  0.00    +0.000 OA
BRANCH  19  21
ATOM     21  C   UNL     1       9.203   2.658  24.531  0.00  0.00    +0.000 C 
ATOM     22 CL   UNL     1       9.642   4.231  23.837  0.00  0.00    +0.000 Cl
ENDBRANCH  19  21
ENDBRANCH  16  19
ENDBRANCH   1  13
TORSDOF 5
ENDMDL
MODEL 7
REMARK VINA RESULT:      -5.8      3.050      6.963
REMARK  Name = 
REMARK  6 active torsions:
REMARK  status: ('A' for Active; 'I' for Inactive)
REMARK    1  A    between atoms: C_1  and  C_2
REMARK    2  A    between atoms: C_2  and  C_4
REMARK    3  A    between atoms: C_7  and  S_8
REMARK    4  A    between atoms: S_8  and  N_11
REMARK    5  A    between atoms: N_14  and  C_15
REMARK    6  A    between atoms: C_15  and  C_17
REMARK                            x       y       z     vdW  Elec       q    Type
REMARK                         _______ _______ _______ _____ _____    ______ ____
ROOT
ATOM      1  S   UNL     1       6.876  -1.450  23.519  0.00  0.00    +0.000 S 
ATOM      2  O   UNL     1       6.451  -1.921  22.235  0.00  0.00    +0.000 OA
ATOM      3  O   UNL     1       6.290  -0.259  24.052  0.00  0.00    +0.000 OA
ENDROOT
BRANCH   1   7
ATOM      4  C   UNL     1       6.357  -4.842  26.512  0.00  0.00    +0.000 C 
ATOM      5  C   UNL     1       7.326  -3.862  26.732  0.00  0.00    +0.000 C 
ATOM      6  C   UNL     1       7.504  -2.833  25.825  0.00  0.00    +0.000 C 
ATOM      7  C   UNL     1       6.700  -2.784  24.702  0.00  0.00    +0.000 C 
ATOM      8  C   UNL     1       5.729  -3.739  24.468  0.00  0.00    +0.000 C 
ATOM      9  C   UNL     1       5.557  -4.774  25.370  0.00  0.00    +0.000 C 
BRANCH   4  11
ATOM     10  C   UNL     1       4.965  -6.743  27.504  0.00  0.00    +0.000 C 
ATOM     11  C   UNL     1       6.231  -5.927  27.531  0.00  0.00    +0.000 C 
ATOM     12  O   UNL     1       7.112  -6.133  28.333  0.00  0.00    +0.000 OA
ENDBRANCH   4  11
ENDBRANCH   1   7
BRANCH   1  13
ATOM     13  N   UNL     1       8.553  -1.244  23.609  0.00  0.00    +0.000 NA
ATOM     14  C   UNL     1       8.954   0.076  24.046  0.00  0.00    +0.000 C 
ATOM     15  C   UNL     1       8.632   1.132  22.975  0.00  0.00    +0.000 C 
ATOM     16  N   UNL     1       8.685   0.532  21.651  0.00  0.00    +0.000 NA
ATOM     17  C   UNL     1       9.665  -0.519  21.530  0.00  0.00    +0.000 C 
ATOM     18  C   UNL     1       9.265  -1.702  22.434  0.00  0.00    +0.000 C 
BRANCH  16  19
ATOM     19  C   UNL     1       7.691   0.828  20.781  0.00  0.00    +0.000 C 
ATOM     20  O   UNL     1       6.884   1.705  21.004  0.00  0.00    +0.000 OA
BRANCH  19  21
ATOM     21  C   UNL     1       7.696   0.140  19.421  0.00  0.00    +0.000 C 
ATOM     22 CL   UNL     1       6.357   0.616  18.359  0.00  0.00    +0.000 Cl
ENDBRANCH  19  21
ENDBRANCH  16  19
ENDBRANCH   1  13
TORSDOF 5
ENDMDL
MODEL 8
REMARK VINA RESULT:      -5.6      3.498      7.243
REMARK  Name = 
REMARK  6 active torsions:
REMARK  status: ('A' for Active; 'I' for Inactive)
REMARK    1  A    between atoms: C_1  and  C_2
REMARK    2  A    between atoms: C_2  and  C_4
REMARK    3  A    between atoms: C_7  and  S_8
REMARK    4  A    between atoms: S_8  and  N_11
REMARK    5  A    between atoms: N_14  and  C_15
REMARK    6  A    between atoms: C_15  and  C_17
REMARK                            x       y       z     vdW  Elec       q    Type
REMARK                         _______ _______ _______ _____ _____    ______ ____
ROOT
ATOM      1  S   UNL     1       8.172  -0.206  24.408  0.00  0.00    +0.000 S 
ATOM      2  O   UNL     1       7.025   0.651  24.435  0.00  0.00    +0.000 OA
ATOM      3  O   UNL     1       9.404   0.261  24.963  0.00  0.00    +0.000 OA
ENDROOT
BRANCH   1   7
ATOM      4  C   UNL     1       7.029  -4.147  26.383  0.00  0.00    +0.000 C 
ATOM      5  C   UNL     1       8.129  -4.091  25.526  0.00  0.00    +0.000 C 
ATOM      6  C   UNL     1       8.480  -2.904  24.909  0.00  0.00    +0.000 C 
ATOM      7  C   UNL     1       7.731  -1.771  25.162  0.00  0.00    +0.000 C 
ATOM      8  C   UNL     1       6.643  -1.801  26.014  0.00  0.00    +0.000 C 
ATOM      9  C   UNL     1       6.286  -2.990  26.624  0.00  0.00    +0.000 C 
BRANCH   4  11
ATOM     10  C   UNL     1       5.529  -6.216  26.440  0.00  0.00    +0.000 C 
ATOM     11  C   UNL     1       6.707  -5.466  27.005  0.00  0.00    +0.000 C 
ATOM     12  O   UNL     1       7.370  -5.903  27.917  0.00  0.00    +0.000 OA
ENDBRANCH   4  11
ENDBRANCH   1   7
BRANCH   1  13
ATOM     13  N   UNL     1       8.525  -0.761  22.849  0.00  0.00    +0.000 NA
ATOM     14  C   UNL     1       9.866  -0.443  22.409  0.00  0.00    +0.000 C 
ATOM     15  C   UNL     1      10.025   1.069  22.175  0.00  0.00    +0.000 C 
ATOM     16  N   UNL     1       8.751   1.649  21.779  0.00  0.00    +0.000 NA
ATOM     17  C   UNL     1       7.927   0.759  21.000  0.00  0.00    +0.000 C 
ATOM     18  C   UNL     1       7.508  -0.445  21.868  0.00  0.00    +0.000 C 
BRANCH  16  19
ATOM     19  C   UNL     1       8.377   2.813  22.360  0.00  0.00    +0.000 C 
ATOM     20  O   UNL     1       7.283   3.301  22.171  0.00  0.00    +0.000 OA
BRANCH  19  21
ATOM     21  C   UNL     1       9.308   3.433  23.395  0.00  0.00    +0.000 C 
ATOM     22 CL   UNL     1       8.573   3.657  24.994  0.00  0.00    +0.000 Cl
ENDBRANCH  19  21
ENDBRANCH  16  19
ENDBRANCH   1  13
TORSDOF 5
ENDMDL
MODEL 9
REMARK VINA RESULT:      -5.6      3.160      7.756
REMARK  Name = 
REMARK  6 active torsions:
REMARK  status: ('A' for Active; 'I' for Inactive)
REMARK    1  A    between atoms: C_1  and  C_2
REMARK    2  A    between atoms: C_2  and  C_4
REMARK    3  A    between atoms: C_7  and  S_8
REMARK    4  A    between atoms: S_8  and  N_11
REMARK    5  A    between atoms: N_14  and  C_15
REMARK    6  A    between atoms: C_15  and  C_17
REMARK                            x       y       z     vdW  Elec       q    Type
REMARK                         _______ _______ _______ _____ _____    ______ ____
ROOT
ATOM      1  S   UNL     1       7.168  -3.639  23.368  0.00  0.00    +0.000 S 
ATOM      2  O   UNL     1       8.420  -4.334  23.374  0.00  0.00    +0.000 OA
ATOM      3  O   UNL     1       6.781  -2.912  22.199  0.00  0.00    +0.000 OA
ENDROOT
BRANCH   1   7
ATOM      4  C   UNL     1       3.825  -6.532  24.458  0.00  0.00    +0.000 C 
ATOM      5  C   UNL     1       4.894  -6.342  25.335  0.00  0.00    +0.000 C 
ATOM      6  C   UNL     1       5.923  -5.477  25.011  0.00  0.00    +0.000 C 
ATOM      7  C   UNL     1       5.872  -4.794  23.811  0.00  0.00    +0.000 C 
ATOM      8  C   UNL     1       4.818  -4.960  22.932  0.00  0.00    +0.000 C 
ATOM      9  C   UNL     1       3.794  -5.833  23.251  0.00  0.00    +0.000 C 
BRANCH   4  11
ATOM     10  C   UNL     1       1.614  -6.928  25.679  0.00  0.00    +0.000 C 
ATOM     11  C   UNL     1       2.756  -7.490  24.873  0.00  0.00    +0.000 C 
ATOM     12  O   UNL     1       2.814  -8.658  24.568  0.00  0.00    +0.000 OA
ENDBRANCH   4  11
ENDBRANCH   1   7
BRANCH   1  13
ATOM     13  N   UNL     1       7.017  -2.570  24.672  0.00  0.00    +0.000 NA
ATOM     14  C   UNL     1       6.457  -1.286  24.309  0.00  0.00    +0.000 C 
ATOM     15  C   UNL     1       7.440  -0.482  23.443  0.00  0.00    +0.000 C 
ATOM     16  N   UNL     1       8.810  -0.841  23.777  0.00  0.00    +0.000 NA
ATOM     17  C   UNL     1       8.996  -1.183  25.165  0.00  0.00    +0.000 C 
ATOM     18  C   UNL     1       8.209  -2.469  25.489  0.00  0.00    +0.000 C 
BRANCH  16  19
ATOM     19  C   UNL     1       9.677  -1.052  22.759  0.00  0.00    +0.000 C 
ATOM     20  O   UNL     1      10.404  -2.022  22.726  0.00  0.00    +0.000 OA
BRANCH  19  21
ATOM     21  C   UNL     1       9.613  -0.120  21.555  0.00  0.00    +0.000 C 
ATOM     22 CL   UNL     1      10.050   1.562  21.912  0.00  0.00    +0.000 Cl
ENDBRANCH  19  21
ENDBRANCH  16  19
ENDBRANCH   1  13
TORSDOF 5
ENDMDL
