
 OpenBabel06082022513D

 36 37  0  0  0  0  0  0  0  0999 V2000
    4.6935    9.1966    5.6753 O   0  0  0  0  0  0  0  0  0  0  0  0
    4.7277   10.3489    6.1163 C   0  0  0  0  0  0  0  0  0  0  0  0
    5.7842   11.3520    5.6751 C   0  0  0  0  0  0  0  0  0  0  0  0
    6.3948   10.9550    4.0535 Cl  0  0  0  0  0  0  0  0  0  0  0  0
    3.8175   10.7456    7.0929 N   0  0  0  0  0  0  0  0  0  0  0  0
    3.9803   11.9244    7.9692 C   0  0  0  0  0  0  0  0  0  0  0  0
    3.8308   11.5314    9.4624 C   0  0  0  0  0  0  0  0  0  0  0  0
    4.3242   10.1237    9.6654 N   0  0  0  0  0  0  0  0  0  0  0  0
    5.9969   10.0391    9.8819 S   0  0  0  0  0  0  0  0  0  0  0  0
    6.5732   11.1107    9.0827 O   0  0  0  0  0  0  0  0  0  0  0  0
    6.1845   10.0461   11.3167 O   0  0  0  0  0  0  0  0  0  0  0  0
    6.8209    8.5898    9.2699 C   0  0  0  0  0  0  0  0  0  0  0  0
    8.0875    8.3447    9.8443 C   0  0  0  0  0  0  0  0  0  0  0  0
    9.0022    7.4735    9.2444 C   0  0  0  0  0  0  0  0  0  0  0  0
    8.6560    6.8122    8.0724 C   0  0  0  0  0  0  0  0  0  0  0  0
    7.3826    7.0224    7.5380 C   0  0  0  0  0  0  0  0  0  0  0  0
    7.0241    6.3306    6.3150 N   0  3  0  0  0  0  0  0  0  0  0  0
    6.1325    5.4758    6.4026 O   0  0  0  0  0  0  0  0  0  0  0  0
    7.6622    6.6216    5.2965 O   0  5  0  0  0  0  0  0  0  0  0  0
    6.4595    7.9090    8.1113 C   0  0  0  0  0  0  0  0  0  0  0  0
    3.4621    9.1439    8.9552 C   0  0  0  0  0  0  0  0  0  0  0  0
    2.9070    9.7334    7.6348 C   0  0  0  0  0  0  0  0  0  0  0  0
    6.6279   11.3159    6.3683 H   0  0  0  0  0  0  0  0  0  0  0  0
    5.3725   12.3611    5.6226 H   0  0  0  0  0  0  0  0  0  0  0  0
    3.2060   12.6509    7.7017 H   0  0  0  0  0  0  0  0  0  0  0  0
    4.9447   12.4066    7.7981 H   0  0  0  0  0  0  0  0  0  0  0  0
    2.7748   11.5689    9.7582 H   0  0  0  0  0  0  0  0  0  0  0  0
    4.3498   12.2393   10.1172 H   0  0  0  0  0  0  0  0  0  0  0  0
    8.4053    8.9059   10.7245 H   0  0  0  0  0  0  0  0  0  0  0  0
    9.9968    7.3537    9.6695 H   0  0  0  0  0  0  0  0  0  0  0  0
    9.3743    6.1640    7.5757 H   0  0  0  0  0  0  0  0  0  0  0  0
    5.5326    8.0861    7.5892 H   0  0  0  0  0  0  0  0  0  0  0  0
    2.6117    8.9076    9.6081 H   0  0  0  0  0  0  0  0  0  0  0  0
    3.9557    8.1880    8.8024 H   0  0  0  0  0  0  0  0  0  0  0  0
    2.7002    8.9373    6.9125 H   0  0  0  0  0  0  0  0  0  0  0  0
    1.9501   10.2389    7.8236 H   0  0  0  0  0  0  0  0  0  0  0  0
  1  2  2  0  0  0  0
  2  3  1  0  0  0  0
  2  5  1  0  0  0  0
  3  4  1  0  0  0  0
  3 23  1  0  0  0  0
  3 24  1  0  0  0  0
  5  6  1  0  0  0  0
  5 22  1  0  0  0  0
  6  7  1  0  0  0  0
  6 25  1  0  0  0  0
  6 26  1  0  0  0  0
  7  8  1  0  0  0  0
  7 27  1  0  0  0  0
  7 28  1  0  0  0  0
  8  9  1  0  0  0  0
  8 21  1  0  0  0  0
  9 10  2  0  0  0  0
  9 11  2  0  0  0  0
  9 12  1  0  0  0  0
 12 13  1  0  0  0  0
 12 20  2  0  0  0  0
 13 14  2  0  0  0  0
 13 29  1  0  0  0  0
 14 15  1  0  0  0  0
 14 30  1  0  0  0  0
 15 16  2  0  0  0  0
 15 31  1  0  0  0  0
 16 17  1  0  0  0  0
 16 20  1  0  0  0  0
 17 18  2  0  0  0  0
 17 19  1  0  0  0  0
 20 32  1  0  0  0  0
 21 22  1  0  0  0  0
 21 33  1  0  0  0  0
 21 34  1  0  0  0  0
 22 35  1  0  0  0  0
 22 36  1  0  0  0  0
M  CHG  2  17   1  19  -1
M  END
>  <name>


>  <Energy>
96.1675

$$$$
