
 SMI23D  v 9.10   1.00000     0.00000

 23 25  0  0  0  0              1 V2000
    8.0453   11.7648   10.2730 O   0  0  0  0  0  0 
    7.6483   10.6241   10.3960 C   0  0  0  0  0  0 
    8.4693    9.5737   11.1027 C   0  0  0  0  0  0 
    8.0105    9.4941   12.8196 Cl  0  0  0  0  0  0 
    6.3439   10.3187   10.1745 N   0  0  0  0  0  0 
    5.9582    8.9031   10.2164 C   0  0  0  0  0  0 
    5.3500    8.5342    8.8650 C   0  0  0  0  0  0 
    6.0031    9.2103    7.8154 N   0  0  0  0  0  0 
    7.5514    8.7096    7.6464 S   0  0  0  0  0  0 
    7.4996    7.5363    6.7498 O   0  0  0  0  0  0 
    8.0881    8.4020    8.9369 O   0  0  0  0  0  0 
    8.5101    9.9370    6.8448 C   0  0  0  0  0  0 
    9.9635    9.8190    7.5694 C   0  0  0  0  0  0 
   11.0173    9.5991    6.5333 C   0  0  0  0  0  0 
   10.9785    9.2149    5.0374 C   0  0  0  0  0  0 
    9.7047    9.1710    4.4188 C   0  0  0  0  0  0 
    8.6156    9.6196    5.4237 C   0  0  0  0  0  0 
    9.1285    8.0470    4.1214 O   0  0  0  0  0  0 
   10.2009    7.3814    4.0311 C   0  0  0  0  0  0 
   11.0671    7.3483    5.0507 C   0  0  0  0  0  0 
   11.8409    8.3731    5.0406 O   0  0  0  0  0  0 
    5.8577   10.5944    7.8273 C   0  0  0  0  0  0 
    5.6185   11.1693    9.2141 C   0  0  0  0  0  0 
  1  2  2  0
  2  3  1  0
  2  5  1  0
  3  4  1  0
  5  6  1  0
  5 23  1  0
  6  7  1  0
  7  8  1  0
  8  9  1  0
  8 22  1  0
  9 10  2  0
  9 11  2  0
  9 12  1  0
 12 13  1  0
 12 17  2  0
 13 14  2  0
 14 15  1  0
 15 16  2  0
 15 21  1  0
 16 17  1  0
 16 18  1  0
 18 19  2  0
 19 20  1  0
 20 21  2  0
 22 23  1  0
M  END
>  <name>


$$$$

 SMI23D  v 9.10   1.00000     0.00000

 24 26  0  0  0  0              1 V2000
    3.7237    9.6659    9.4061 O   0  0  0  0  0  0 
    4.5175   10.0330    8.5542 C   0  0  0  0  0  0 
    4.4391   11.4486    7.9999 C   0  0  0  0  0  0 
    5.8190   12.3912    8.6277 Cl  0  0  0  0  0  0 
    5.7515    9.4747    8.5076 N   0  0  0  0  0  0 
    6.8414   10.1348    9.2296 C   0  0  0  0  0  0 
    7.5134    9.1373   10.1434 C   0  0  0  0  0  0 
    8.0106    8.0101    9.5113 N   0  0  0  0  0  0 
    9.6177    8.1052    9.1676 S   0  0  0  0  0  0 
    9.7200    8.6675    7.8202 O   0  0  0  0  0  0 
   10.1378    6.7423    9.2229 O   0  0  0  0  0  0 
   10.5254    9.0584   10.2806 C   0  0  0  0  0  0 
   10.3935   10.5606    9.6333 C   0  0  0  0  0  0 
    9.6996   11.4498   10.5767 C   0  0  0  0  0  0 
    9.2639   11.3601   12.0089 C   0  0  0  0  0  0 
    9.3644    9.9812   12.6278 C   0  0  0  0  0  0 
   10.0097    9.0261   11.6183 C   0  0  0  0  0  0 
    8.1656    9.3390   13.1716 O   0  0  0  0  0  0 
    7.3941   10.3961   13.8232 C   0  0  0  0  0  0 
    8.3561   11.4058   14.3890 C   0  0  0  0  0  0 
    8.4150   12.7158   13.6298 C   0  0  0  0  0  0 
    9.5470   12.5593   12.7050 O   0  0  0  0  0  0 
    7.3099    7.6413    8.3304 C   0  0  0  0  0  0 
    5.8497    8.0206    8.3594 C   0  0  0  0  0  0 
  1  2  2  0
  2  3  1  0
  2  5  1  0
  3  4  1  0
  5  6  1  0
  5 24  1  0
  6  7  1  0
  7  8  1  0
  8  9  1  0
  8 23  1  0
  9 10  2  0
  9 11  2  0
  9 12  1  0
 12 13  1  0
 12 17  2  0
 13 14  2  0
 14 15  1  0
 15 16  2  0
 15 22  1  0
 16 17  1  0
 16 18  1  0
 18 19  1  0
 19 20  1  0
 20 21  1  0
 21 22  1  0
 23 24  1  0
M  END
>  <name>


$$$$

 SMI23D  v 9.10   1.00000     0.00000

 23 25  0  0  0  0              1 V2000
    8.6060   11.8569    9.4596 O   0  0  0  0  0  0 
    8.0033   11.0200   10.0974 C   0  0  0  0  0  0 
    8.7145    9.9875   10.9350 C   0  0  0  0  0  0 
    8.2945   10.2165   12.6539 Cl  0  0  0  0  0  0 
    6.6685   10.8673    9.9413 N   0  0  0  0  0  0 
    5.9886    9.8219   10.7107 C   0  0  0  0  0  0 
    5.6048    8.7027    9.7556 C   0  0  0  0  0  0 
    6.2678    8.7926    8.5305 N   0  0  0  0  0  0 
    7.7710    8.2744    8.5141 S   0  0  0  0  0  0 
    7.9157    7.2457    7.4778 O   0  0  0  0  0  0 
    8.1713    7.8162    9.8191 O   0  0  0  0  0  0 
    8.9041    9.5878    8.0816 C   0  0  0  0  0  0 
    8.6061    9.6727    6.4725 C   0  0  0  0  0  0 
    9.8512    9.2395    5.7760 C   0  0  0  0  0  0 
   11.2093    8.8095    6.0040 C   0  0  0  0  0  0 
   11.1407    7.3558    5.2190 C   0  0  0  0  0  0 
   11.1892    6.2831    6.2325 C   0  0  0  0  0  0 
   11.6054    6.1092    7.6320 C   0  0  0  0  0  0 
   11.8089    7.4674    8.3466 C   0  0  0  0  0  0 
   11.4874    8.6255    7.5273 C   0  0  0  0  0  0 
   10.2669    9.2002    8.3224 C   0  0  0  0  0  0 
    6.0084    9.9510    7.7981 C   0  0  0  0  0  0 
    6.0930   11.2119    8.6378 C   0  0  0  0  0  0 
  1  2  2  0
  2  3  1  0
  2  5  1  0
  3  4  1  0
  5  6  1  0
  5 23  1  0
  6  7  1  0
  7  8  1  0
  8  9  1  0
  8 22  1  0
  9 10  2  0
  9 11  2  0
  9 12  1  0
 12 13  1  0
 12 21  2  0
 13 14  2  0
 14 15  1  0
 15 16  1  0
 15 20  2  0
 16 17  2  0
 17 18  1  0
 18 19  2  0
 19 20  1  0
 20 21  1  0
 22 23  1  0
M  END
>  <name>


$$$$

 SMI23D  v 9.10   1.00000     0.00000

 22 23  0  0  0  0              1 V2000
    4.2690    9.4861    5.2909 O   0  0  0  0  0  0 
    4.6490   10.3394    6.0697 C   0  0  0  0  0  0 
    6.0025   10.9827    5.9557 C   0  0  0  0  0  0 
    6.9151   10.2406    4.6142 Cl  0  0  0  0  0  0 
    3.8587   10.7312    7.0924 N   0  0  0  0  0  0 
    4.3023   11.7940    7.9836 C   0  0  0  0  0  0 
    3.8810   11.4397    9.4213 C   0  0  0  0  0  0 
    4.2648   10.0723    9.6748 N   0  0  0  0  0  0 
    5.8691    9.9472    9.6466 S   0  0  0  0  0  0 
    6.3597   10.4312    8.3637 O   0  0  0  0  0  0 
    6.4102   10.6722   10.7827 O   0  0  0  0  0  0 
    6.3789    8.2592    9.7972 C   0  0  0  0  0  0 
    7.9726    8.5138   10.1602 C   0  0  0  0  0  0 
    8.8005    7.9522    9.0404 C   0  0  0  0  0  0 
    8.5783    7.1419    7.8278 C   0  0  0  0  0  0 
    7.0699    6.9658    7.4666 C   0  0  0  0  0  0 
    6.6196    6.8756    6.3836 N   0  3  0  0  0  0 
    6.3971    5.7311    5.9211 O   0  0  0  0  0  0 
    6.5105    7.6885    5.3568 O   0  5  0  0  0  0 
    6.2362    7.5134    8.6194 C   0  0  0  0  0  0 
    3.5792    9.1521    8.8926 C   0  0  0  0  0  0 
    2.9353    9.7189    7.6419 C   0  0  0  0  0  0 
  1  2  2  0
  2  3  1  0
  2  5  1  0
  3  4  1  0
  5  6  1  0
  5 22  1  0
  6  7  1  0
  7  8  1  0
  8  9  1  0
  8 21  1  0
  9 10  2  0
  9 11  2  0
  9 12  1  0
 12 13  1  0
 12 20  2  0
 13 14  2  0
 14 15  1  0
 15 16  2  0
 16 17  4  0
 16 20  1  0
 17 18  2  0
 17 19  1  0
 21 22  1  0
M  END
>  <name>


$$$$

 SMI23D  v 9.10   1.00000     0.00000

 23 25  0  0  0  0              1 V2000
    8.0404   11.6018   10.1355 O   0  0  0  0  0  0 
    7.6591   10.4680   10.3378 C   0  0  0  0  0  0 
    8.4700    9.4897   11.1528 C   0  0  0  0  0  0 
    7.9663    9.5572   12.8590 Cl  0  0  0  0  0  0 
    6.3779   10.1156   10.0743 N   0  0  0  0  0  0 
    5.9910    8.7169   10.2701 C   0  0  0  0  0  0 
    5.5917    8.1270    8.9364 C   0  0  0  0  0  0 
    6.1138    8.7890    7.8383 N   0  0  0  0  0  0 
    7.7116    8.4839    7.5902 S   0  0  0  0  0  0 
    7.7713    7.1631    6.9384 O   0  0  0  0  0  0 
    8.3794    8.4991    8.8649 O   0  0  0  0  0  0 
    8.3927    9.6253    6.5019 C   0  0  0  0  0  0 
    9.1769   10.6985    7.4747 C   0  0  0  0  0  0 
   10.5834   10.8012    7.0949 C   0  0  0  0  0  0 
   11.3817   10.2512    5.9430 C   0  0  0  0  0  0 
   10.7923    9.0750    5.2057 C   0  0  0  0  0  0 
    9.4652    9.0537    5.6208 C   0  0  0  0  0  0 
   11.3343    7.5933    5.3470 C   0  0  0  0  0  0 
   12.7929    7.9345    5.6767 C   0  0  0  0  0  0 
   13.3589    9.0836    6.1670 C   0  0  0  0  0  0 
   12.6784   10.4476    6.1435 C   0  0  0  0  0  0 
    5.7963   10.1382    7.7199 C   0  0  0  0  0  0 
    5.6620   10.8622    9.0398 C   0  0  0  0  0  0 
  1  2  2  0
  2  3  1  0
  2  5  1  0
  3  4  1  0
  5  6  1  0
  5 23  1  0
  6  7  1  0
  7  8  1  0
  8  9  1  0
  8 22  1  0
  9 10  2  0
  9 11  2  0
  9 12  1  0
 12 13  1  0
 12 17  2  0
 13 14  2  0
 14 15  1  0
 15 16  2  0
 15 21  1  0
 16 17  1  0
 16 18  1  0
 18 19  2  0
 19 20  1  0
 20 21  2  0
 22 23  1  0
M  END
>  <name>


$$$$

 SMI23D  v 9.10   1.00000     0.00000

 22 23  0  0  0  0              1 V2000
    4.4217    8.9171    5.6897 O   0  0  0  0  0  0 
    4.1824   10.0977    5.8600 C   0  0  0  0  0  0 
    4.9841   11.1717    5.1519 C   0  0  0  0  0  0 
    6.2539   10.4300    4.1489 Cl  0  0  0  0  0  0 
    3.5732   10.5080    7.0103 N   0  0  0  0  0  0 
    4.2934   11.4748    7.8387 C   0  0  0  0  0  0 
    4.2620   11.0300    9.2854 C   0  0  0  0  0  0 
    4.4285    9.6517    9.4487 N   0  0  0  0  0  0 
    5.9790    9.1836    9.3621 S   0  0  0  0  0  0 
    6.8120   10.2925    9.8081 O   0  0  0  0  0  0 
    6.1808    7.9560   10.0480 O   0  0  0  0  0  0 
    6.3517    8.9378    7.6217 C   0  0  0  0  0  0 
    7.8552    8.3185    7.7593 C   0  0  0  0  0  0 
    8.7682    9.0162    6.8372 C   0  0  0  0  0  0 
    8.6888   10.4332    6.5155 C   0  0  0  0  0  0 
    9.4238   11.0258    7.2082 N   0  3  0  0  0  0 
   10.3932   11.4726    6.6089 O   0  0  0  0  0  0 
    9.5983   11.4269    8.4967 O   0  5  0  0  0  0 
    7.4130   11.1825    6.3451 C   0  0  0  0  0  0 
    6.4031   10.2573    6.9949 C   0  0  0  0  0  0 
    3.5533    8.8309    8.7473 C   0  0  0  0  0  0 
    2.7163    9.5387    7.7028 C   0  0  0  0  0  0 
  1  2  2  0
  2  3  1  0
  2  5  1  0
  3  4  1  0
  5  6  1  0
  5 22  1  0
  6  7  1  0
  7  8  1  0
  8  9  1  0
  8 21  1  0
  9 10  2  0
  9 11  2  0
  9 12  1  0
 12 13  1  0
 12 20  2  0
 13 14  2  0
 14 15  1  0
 15 16  4  0
 15 19  2  0
 16 17  2  0
 16 18  1  0
 19 20  1  0
 21 22  1  0
M  END
>  <name>


$$$$

 SMI23D  v 9.10   1.00000     0.00000

 22 24  0  0  0  0              1 V2000
    6.9995    7.1783    5.3834 O   0  0  0  0  0  0 
    6.2015    7.9764    5.8567 C   0  0  0  0  0  0 
    6.5792    9.4478    5.9658 C   0  0  0  0  0  0 
    6.8939   10.1057    4.3433 Cl  0  0  0  0  0  0 
    5.4300    7.5399    6.9185 N   0  0  0  0  0  0 
    4.3866    8.5006    7.3576 C   0  0  0  0  0  0 
    4.9914    9.2498    8.5621 C   0  0  0  0  0  0 
    6.3743    9.2890    8.4688 N   0  0  0  0  0  0 
    7.1492   10.4982    9.1930 S   0  0  0  0  0  0 
    7.5668   11.4745    8.2206 O   0  0  0  0  0  0 
    8.2789    9.9081    9.9319 O   0  0  0  0  0  0 
    6.1846   11.3037   10.4436 C   0  0  0  0  0  0 
    4.7309   11.4000    9.7559 C   0  0  0  0  0  0 
    3.6975   10.7332   10.6260 C   0  0  0  0  0  0 
    3.7452    9.7590   11.7491 C   0  0  0  0  0  0 
    5.1721    9.6471   12.4324 C   0  0  0  0  0  0 
    6.1901   10.4930   11.6521 C   0  0  0  0  0  0 
    5.5085    8.1423   12.5097 C   0  0  0  0  0  0 
    4.5264    7.4740   11.5166 C   0  0  0  0  0  0 
    3.2185    8.3188   11.4553 C   0  0  0  0  0  0 
    6.9698    8.0199    8.7251 C   0  0  0  0  0  0 
    6.1983    6.9145    8.0138 C   0  0  0  0  0  0 
  1  2  2  0
  2  3  1  0
  2  5  1  0
  3  4  1  0
  5  6  1  0
  5 22  1  0
  6  7  1  0
  7  8  1  0
  8  9  1  0
  8 21  1  0
  9 10  2  0
  9 11  2  0
  9 12  1  0
 12 13  1  0
 12 17  2  0
 13 14  2  0
 14 15  1  0
 15 16  2  0
 15 20  1  0
 16 17  1  0
 16 18  1  0
 18 19  1  0
 19 20  1  0
 21 22  1  0
M  END
>  <name>


$$$$

 SMI23D  v 9.10   1.00000     0.00000

 21 22  0  0  0  0              1 V2000
   11.1358    6.5878    8.4482 C   0  0  0  0  0  0 
    9.7016    6.4148    9.0966 C   0  0  0  0  0  0 
    8.9762    7.8079    8.5147 C   0  0  0  0  0  0 
    7.9575    7.3924    7.5094 C   0  0  0  0  0  0 
    7.2818    6.1767    7.0714 C   0  0  0  0  0  0 
    5.5347    6.4409    7.3700 S   0  0  0  0  0  0 
    5.0019    7.1105    6.1910 O   0  0  0  0  0  0 
    4.9320    5.1584    7.6329 O   0  0  0  0  0  0 
    5.3350    7.4085    8.6408 N   0  0  0  0  0  0 
    4.8962    8.6785    8.4271 C   0  0  0  0  0  0 
    5.6367    9.7673    9.1719 C   0  0  0  0  0  0 
    6.9333    9.2756    9.6027 N   0  0  0  0  0  0 
    7.9744   10.1408    9.6922 C   0  0  0  0  0  0 
    8.5499   10.2929   10.7520 O   0  0  0  0  0  0 
    8.6284   10.5097    8.3789 C   0  0  0  0  0  0 
   10.1124   11.4483    8.6840 Cl  0  0  0  0  0  0 
    7.0058    8.0155   10.3211 C   0  0  0  0  0  0 
    5.9297    7.0727    9.8238 C   0  0  0  0  0  0 
    7.7714    4.9267    7.7325 C   0  0  0  0  0  0 
    8.9190    5.2234    8.7649 C   0  0  0  0  0  0 
    8.4747    4.3610   10.0287 C   0  0  0  0  0  0 
  1  2  1  0
  2  3  1  0
  2 20  2  0
  3  4  2  0
  4  5  1  0
  5  6  1  0
  5 19  2  0
  6  7  2  0
  6  8  2  0
  6  9  1  0
  9 10  1  0
  9 18  1  0
 10 11  1  0
 11 12  1  0
 12 13  1  0
 12 17  1  0
 13 14  2  0
 13 15  1  0
 15 16  1  0
 17 18  1  0
 19 20  1  0
 20 21  1  0
M  END
>  <name>


$$$$

 SMI23D  v 9.10   1.00000     0.00000

 19 20  0  0  0  0              1 V2000
   10.4014    7.8366   10.5752 O   0  0  0  0  0  0 
    9.2134    7.7617   10.3263 C   0  0  0  0  0  0 
    8.3847    8.9881   10.0373 C   0  0  0  0  0  0 
    7.0116    8.5967    8.9739 Cl  0  0  0  0  0  0 
    8.7722    6.6118    9.6761 N   0  0  0  0  0  0 
    9.2084    6.5133    8.2823 C   0  0  0  0  0  0 
    8.1034    5.8486    7.4697 C   0  0  0  0  0  0 
    7.6868    4.6601    8.1494 N   0  0  0  0  0  0 
    6.7440    3.7626    7.1448 S   0  0  0  0  0  0 
    6.7003    2.4103    7.7087 O   0  0  0  0  0  0 
    7.3532    3.7970    5.8265 O   0  0  0  0  0  0 
    5.1170    4.3816    7.0499 C   0  0  0  0  0  0 
    5.2616    5.9173    7.6093 C   0  0  0  0  0  0 
    4.1830    6.1396    8.6417 C   0  0  0  0  0  0 
    3.3662    5.3037    9.5400 C   0  0  0  0  0  0 
    3.2629    3.8112    9.0234 C   0  0  0  0  0  0 
    4.2724    3.5924    7.9647 C   0  0  0  0  0  0 
    6.9970    4.9564    9.3388 C   0  0  0  0  0  0 
    7.4266    6.2010   10.0349 C   0  0  0  0  0  0 
  1  2  2  0
  2  3  1  0
  2  5  1  0
  3  4  1  0
  5  6  1  0
  5 19  1  0
  6  7  1  0
  7  8  1  0
  8  9  1  0
  8 18  1  0
  9 10  2  0
  9 11  2  0
  9 12  1  0
 12 13  1  0
 12 17  2  0
 13 14  2  0
 14 15  1  0
 15 16  2  0
 16 17  1  0
 18 19  1  0
M  END
>  <name>


$$$$

 SMI23D  v 9.10   1.00000     0.00000

 21 22  0  0  0  0              1 V2000
   11.4316    7.1528    7.8251 O   0  0  0  0  0  0 
   10.9496    8.2938    7.8061 C   0  0  0  0  0  0 
   11.5609    9.3613    8.6685 C   0  0  0  0  0  0 
   10.3423   10.2396    9.6050 Cl  0  0  0  0  0  0 
    9.6409    8.4244    7.4822 N   0  0  0  0  0  0 
    9.0194    9.7419    7.5528 C   0  0  0  0  0  0 
    7.5448    9.5929    7.7846 C   0  0  0  0  0  0 
    6.9197    8.5461    7.1664 N   0  0  0  0  0  0 
    5.7641    7.8383    8.1131 S   0  0  0  0  0  0 
    4.7490    7.2976    7.2148 O   0  0  0  0  0  0 
    5.2695    8.8265    9.0273 O   0  0  0  0  0  0 
    6.4715    6.4929    8.9725 C   0  0  0  0  0  0 
    6.8410    7.0944   10.4249 C   0  0  0  0  0  0 
    8.2851    6.8571   10.7162 C   0  0  0  0  0  0 
    9.4852    6.2896    9.9320 C   0  0  0  0  0  0 
   10.3227    7.4177   10.0443 F   0  0  0  0  0  0 
    9.1689    5.9513    8.5288 C   0  0  0  0  0  0 
    9.5972    4.3311    8.0819 Cl  0  0  0  0  0  0 
    7.6600    6.0146    8.2577 C   0  0  0  0  0  0 
    7.5942    7.6673    6.3810 C   0  0  0  0  0  0 
    9.0543    7.4671    6.5556 C   0  0  0  0  0  0 
  1  2  2  0
  2  3  1  0
  2  5  1  0
  3  4  1  0
  5  6  1  0
  5 21  1  0
  6  7  1  0
  7  8  1  0
  8  9  1  0
  8 20  1  0
  9 10  2  0
  9 11  2  0
  9 12  1  0
 12 13  1  0
 12 19  2  0
 13 14  2  0
 14 15  1  0
 15 16  1  0
 15 17  2  0
 17 18  1  0
 17 19  1  0
 20 21  1  0
M  END
>  <name>


$$$$

 SMI23D  v 9.10   1.00000     0.00000

 22 23  0  0  0  0              1 V2000
    5.1936    8.9565    5.8651 C   0  0  0  0  0  0 
    5.8989   10.0243    6.7807 C   0  0  0  0  0  0 
    5.4734   11.1920    6.5798 O   0  0  0  0  0  0 
    6.9972    9.5688    7.2948 C   0  0  0  0  0  0 
    7.9242   10.8294    7.7698 C   0  0  0  0  0  0 
    8.4998   10.5084    9.1321 C   0  0  0  0  0  0 
    7.9920    9.6647   10.2996 C   0  0  0  0  0  0 
    7.0845    8.4948    9.7381 C   0  0  0  0  0  0 
    5.8004    8.3019   10.9044 S   0  0  0  0  0  0 
    5.5014    6.8700   11.0364 O   0  0  0  0  0  0 
    6.2776    8.8310   12.2150 O   0  0  0  0  0  0 
    4.4730    9.0937   10.5373 N   0  0  0  0  0  0 
    4.4700    9.9180    9.4409 C   0  0  0  0  0  0 
    4.0117    9.2239    8.1603 C   0  0  0  0  0  0 
    3.4430    7.9119    8.5676 N   0  0  0  0  0  0 
    4.3472    6.8910    8.6703 C   0  0  0  0  0  0 
    4.0476    5.8696    9.2726 O   0  0  0  0  0  0 
    5.3022    6.7938    7.4851 C   0  0  0  0  0  0 
    5.0680    5.1986    6.7091 Cl  0  0  0  0  0  0 
    2.4663    8.0271    9.6789 C   0  0  0  0  0  0 
    3.2619    8.5023   10.8963 C   0  0  0  0  0  0 
    6.6644    8.6911    8.4461 C   0  0  0  0  0  0 
  1  2  1  0
  2  3  2  0
  2  4  1  0
  4  5  1  0
  4 22  2  0
  5  6  2  0
  6  7  1  0
  7  8  2  0
  8  9  1  0
  8 22  1  0
  9 10  2  0
  9 11  2  0
  9 12  1  0
 12 13  1  0
 12 21  1  0
 13 14  1  0
 14 15  1  0
 15 16  1  0
 15 20  1  0
 16 17  2  0
 16 18  1  0
 18 19  1  0
 20 21  1  0
M  END
>  <name>


$$$$

 SMI23D  v 9.10   1.00000     0.00000

 20 21  0  0  0  0              1 V2000
    9.0026    6.9030    4.2505 O   0  0  0  0  0  0 
    8.7231    7.9632    4.8196 C   0  0  0  0  0  0 
    9.8480    8.8772    5.2544 C   0  0  0  0  0  0 
   10.4511    8.4229    6.8579 Cl  0  0  0  0  0  0 
    7.5431    8.5579    4.4949 N   0  0  0  0  0  0 
    6.3151    7.8944    4.9905 C   0  0  0  0  0  0 
    5.8245    8.6873    6.1935 C   0  0  0  0  0  0 
    6.7546    9.4822    6.7749 N   0  0  0  0  0  0 
    7.4258    9.0035    8.1524 S   0  0  0  0  0  0 
    6.5186    9.5178    9.2373 O   0  0  0  0  0  0 
    8.7388    9.5301    8.2975 O   0  0  0  0  0  0 
    7.3596    7.2356    8.3194 C   0  0  0  0  0  0 
    8.9870    6.8604    8.1394 C   0  0  0  0  0  0 
    9.1057    5.9528    6.9569 C   0  0  0  0  0  0 
    8.2448    5.2785    5.9820 C   0  0  0  0  0  0 
    6.7467    5.7121    6.0980 C   0  0  0  0  0  0 
    6.5535    6.5430    7.3521 C   0  0  0  0  0  0 
    5.3785    5.4708    8.1998 Cl  0  0  0  0  0  0 
    7.4530   10.4076    6.0238 C   0  0  0  0  0  0 
    7.4873   10.0367    4.5366 C   0  0  0  0  0  0 
  1  2  2  0
  2  3  1  0
  2  5  1  0
  3  4  1  0
  5  6  1  0
  5 20  1  0
  6  7  1  0
  7  8  1  0
  8  9  1  0
  8 19  1  0
  9 10  2  0
  9 11  2  0
  9 12  1  0
 12 13  1  0
 12 17  2  0
 13 14  2  0
 14 15  1  0
 15 16  2  0
 16 17  1  0
 17 18  1  0
 19 20  1  0
M  END
>  <name>


$$$$

 SMI23D  v 9.10   1.00000     0.00000

 22 23  0  0  0  0              1 V2000
    4.7943    9.9295    5.3150 C   0  0  0  0  0  0 
    6.2988    9.9202    4.9628 C   0  0  0  0  0  0 
    6.9372   10.9161    5.0954 O   0  0  0  0  0  0 
    6.8521    8.5997    5.0175 C   0  0  0  0  0  0 
    7.7280    8.5695    6.4042 C   0  0  0  0  0  0 
    7.2469    7.3982    7.2345 C   0  0  0  0  0  0 
    5.9447    6.7240    7.4147 C   0  0  0  0  0  0 
    5.0698    7.6794    8.6649 S   0  0  0  0  0  0 
    5.7771    8.9660    8.8114 O   0  0  0  0  0  0 
    3.7284    7.8707    8.1503 O   0  0  0  0  0  0 
    5.0153    6.9751   10.1051 N   0  0  0  0  0  0 
    4.1964    7.7085   11.0019 C   0  0  0  0  0  0 
    4.7437    9.0636   11.3299 C   0  0  0  0  0  0 
    6.1870    9.1072   11.2610 N   0  0  0  0  0  0 
    6.8007   10.3110   11.1086 C   0  0  0  0  0  0 
    6.2064   11.3501   11.2666 O   0  0  0  0  0  0 
    8.2359   10.2701   10.6385 C   0  0  0  0  0  0 
    8.3573   10.9887    9.0113 Cl  0  0  0  0  0  0 
    6.9783    7.9111   11.2411 C   0  0  0  0  0  0 
    6.2792    6.7267   10.6621 C   0  0  0  0  0  0 
    5.1391    6.6959    6.0976 C   0  0  0  0  0  0 
    5.8800    7.4988    4.9682 C   0  0  0  0  0  0 
  1  2  1  0
  2  3  2  0
  2  4  1  0
  4  5  1  0
  4 22  2  0
  5  6  2  0
  6  7  1  0
  7  8  1  0
  7 21  2  0
  8  9  2  0
  8 10  2  0
  8 11  1  0
 11 12  1  0
 11 20  1  0
 12 13  1  0
 13 14  1  0
 14 15  1  0
 14 19  1  0
 15 16  2  0
 15 17  1  0
 17 18  1  0
 19 20  1  0
 21 22  1  0
M  END
>  <name>


$$$$

 SMI23D  v 9.10   1.00000     0.00000

 20 22  0  0  0  0              1 V2000
    9.7813    6.7203    6.0155 O   0  0  0  0  0  0 
    9.0979    7.5813    5.4837 C   0  0  0  0  0  0 
    9.7581    8.7756    4.8204 C   0  0  0  0  0  0 
   10.6167    9.7386    6.0536 Cl  0  0  0  0  0  0 
    7.8544    7.2807    5.0399 N   0  0  0  0  0  0 
    6.7453    8.1549    5.4285 C   0  0  0  0  0  0 
    5.7827    7.3318    6.2874 C   0  0  0  0  0  0 
    6.4870    6.2415    6.8752 N   0  0  0  0  0  0 
    7.6343    6.6070    7.5240 C   0  0  0  0  0  0 
    7.8801    7.8377    8.1635 C   0  0  0  0  0  0 
    6.6592    8.5031    9.0165 C   0  0  0  0  0  0 
    6.4492    9.8834    8.6160 C   0  0  0  0  0  0 
    7.3549   10.7409    7.8938 C   0  0  0  0  0  0 
    8.3824   10.1176    7.0929 C   0  0  0  0  0  0 
    8.7574    8.8559    7.6523 C   0  0  0  0  0  0 
    8.0899   10.2355    5.9633 O   0  0  0  0  0  0 
    7.1957   10.9787    5.8551 C   0  0  0  0  0  0 
    6.6255   11.2769    7.0617 O   0  0  0  0  0  0 
    6.7663    5.2636    5.8534 C   0  0  0  0  0  0 
    7.5445    5.8949    4.7135 C   0  0  0  0  0  0 
  1  2  2  0
  2  3  1  0
  2  5  1  0
  3  4  1  0
  5  6  1  0
  5 20  1  0
  6  7  1  0
  7  8  1  0
  8  9  1  0
  8 19  1  0
  9 10  1  0
 10 11  1  0
 10 15  2  0
 11 12  2  0
 12 13  1  0
 13 14  3  0
 13 18  1  0
 14 15  1  0
 14 16  1  0
 16 17  2  0
 17 18  1  0
 19 20  1  0
M  END
>  <name>


$$$$

 SMI23D  v 9.10   1.00000     0.00000

 19 20  0  0  0  0              1 V2000
   10.0129    6.9118   10.0192 C   0  0  0  0  0  0 
    9.0100    7.7080    9.2287 C   0  0  0  0  0  0 
    9.6115    7.9114    7.7084 C   0  0  0  0  0  0 
    8.5391    7.6277    6.7097 C   0  0  0  0  0  0 
    7.2277    6.8741    6.7410 C   0  0  0  0  0  0 
    6.6625    6.6993    8.1903 C   0  0  0  0  0  0 
    6.2068    5.4319    8.3992 N   0  0  0  0  0  0 
    7.0257    4.5282    7.8765 C   0  0  0  0  0  0 
    7.1198    4.3795    6.6628 O   0  0  0  0  0  0 
    8.2226    4.1505    8.7551 C   0  0  0  0  0  0 
    9.7198    4.2635    7.7949 Cl  0  0  0  0  0  0 
    4.9357    5.1150    8.4214 C   0  0  0  0  0  0 
    4.7419    4.1835    7.3984 C   0  0  0  0  0  0 
    3.7806    3.9484    6.6146 C   0  0  0  0  0  0 
    2.6627    4.8749    7.2738 S   0  0  0  0  0  0 
    1.9861    5.5934    6.3189 O   0  0  0  0  0  0 
    2.0390    4.1443    8.3055 O   0  0  0  0  0  0 
    3.8333    6.0388    8.1537 C   0  0  0  0  0  0 
    7.6509    7.1768    9.1726 C   0  0  0  0  0  0 
  1  2  1  0
  2  3  1  0
  2 19  2  0
  3  4  2  0
  4  5  1  0
  5  6  2  0
  6  7  1  0
  6 19  1  0
  7  8  1  0
  7 12  1  0
  8  9  2  0
  8 10  1  0
 10 11  1  0
 12 13  1  0
 12 18  2  0
 13 14  3  0
 14 15  1  0
 15 16  2  0
 15 17  2  0
 15 18  1  0
M  END
>  <name>


$$$$

 SMI23D  v 9.10   1.00000     0.00000

 21 23  0  0  0  0              1 V2000
    9.6939    6.7204   10.2169 O   0  0  0  0  0  0 
   10.1215    7.7385    9.7088 C   0  0  0  0  0  0 
   10.8885    8.7537   10.5483 C   0  0  0  0  0  0 
   11.2532   10.1805    9.5398 Cl  0  0  0  0  0  0 
    9.3922    8.3210    8.6911 N   0  0  0  0  0  0 
    8.5304    9.4230    9.0888 C   0  0  0  0  0  0 
    7.6881    9.8903    7.9297 C   0  0  0  0  0  0 
    7.7442    8.9580    6.8419 N   0  0  0  0  0  0 
    7.3938    7.6644    7.2815 C   0  0  0  0  0  0 
    5.9801    7.6548    7.8022 C   0  0  0  0  0  0 
    5.5629    6.0788    8.0012 C   0  0  0  0  0  0 
    5.1271    5.8621    9.3998 C   0  0  0  0  0  0 
    5.0450    6.7495   10.6771 C   0  0  0  0  0  0 
    5.4517    8.1098   10.5189 C   0  0  0  0  0  0 
    5.7191    8.3715    9.0629 C   0  0  0  0  0  0 
    6.5736    8.5724   10.9486 O   0  0  0  0  0  0 
    6.7306    7.6797   11.8492 C   0  0  0  0  0  0 
    6.7052    6.3822   11.4859 C   0  0  0  0  0  0 
    5.5000    5.9612   11.4221 O   0  0  0  0  0  0 
    9.0989    8.9430    6.3527 C   0  0  0  0  0  0 
   10.0245    8.3380    7.3826 C   0  0  0  0  0  0 
  1  2  2  0
  2  3  1  0
  2  5  1  0
  3  4  1  0
  5  6  1  0
  5 21  1  0
  6  7  1  0
  7  8  1  0
  8  9  1  0
  8 20  1  0
  9 10  1  0
 10 11  1  0
 10 15  2  0
 11 12  2  0
 12 13  1  0
 13 14  2  0
 13 19  1  0
 14 15  1  0
 14 16  1  0
 16 17  2  0
 17 18  1  0
 18 19  2  0
 20 21  1  0
M  END
>  <name>


$$$$

 SMI23D  v 9.10   1.00000     0.00000

 21 22  0  0  0  0              1 V2000
   11.5329    7.7209    9.7684 C   0  0  0  0  0  0 
   11.0111    8.3579    8.6417 O   0  0  0  0  0  0 
   10.5597    7.5398    7.6494 C   0  0  0  0  0  0 
    9.6447    8.4155    6.6169 C   0  0  0  0  0  0 
    8.3419    7.7040    6.4024 C   0  0  0  0  0  0 
    7.6285    6.5369    6.9546 C   0  0  0  0  0  0 
    6.1404    7.1647    7.6825 S   0  0  0  0  0  0 
    5.0641    7.0192    6.6884 O   0  0  0  0  0  0 
    6.3645    8.5928    7.9952 O   0  0  0  0  0  0 
    5.7087    6.4251    9.0208 N   0  0  0  0  0  0 
    4.9339    7.1735    9.9018 C   0  0  0  0  0  0 
    5.7231    7.8262   11.0167 C   0  0  0  0  0  0 
    7.1451    7.4821   10.8458 N   0  0  0  0  0  0 
    7.9147    8.3640   10.1607 C   0  0  0  0  0  0 
    8.5791    8.0124    9.2090 O   0  0  0  0  0  0 
    7.6184    9.8246   10.4165 C   0  0  0  0  0  0 
    5.8909   10.1524   10.1296 Cl  0  0  0  0  0  0 
    7.4404    6.0517   10.6972 C   0  0  0  0  0  0 
    6.5566    5.5013    9.5869 C   0  0  0  0  0  0 
    8.4561    5.7642    7.9833 C   0  0  0  0  0  0 
    9.8955    6.2709    8.0057 C   0  0  0  0  0  0 
  1  2  1  0
  2  3  1  0
  3  4  1  0
  3 21  2  0
  4  5  2  0
  5  6  1  0
  6  7  1  0
  6 20  2  0
  7  8  2  0
  7  9  2  0
  7 10  1  0
 10 11  1  0
 10 19  1  0
 11 12  1  0
 12 13  1  0
 13 14  1  0
 13 18  1  0
 14 15  2  0
 14 16  1  0
 16 17  1  0
 18 19  1  0
 20 21  1  0
M  END
>  <name>


$$$$

 SMI23D  v 9.10   1.00000     0.00000

 20 22  0  0  0  0              1 V2000
   10.0839    6.6846    5.4597 O   0  0  0  0  0  0 
    9.2180    7.5262    5.3015 C   0  0  0  0  0  0 
    9.5801    8.9552    4.9718 C   0  0  0  0  0  0 
   10.5346    9.6541    6.3098 Cl  0  0  0  0  0  0 
    7.9320    7.1703    5.1191 N   0  0  0  0  0  0 
    6.8670    8.0791    5.5181 C   0  0  0  0  0  0 
    5.8266    7.2838    6.3078 C   0  0  0  0  0  0 
    6.4561    6.1433    6.8965 N   0  0  0  0  0  0 
    7.6583    6.5765    7.5185 C   0  0  0  0  0  0 
    7.8137    7.7175    8.2094 C   0  0  0  0  0  0 
    6.4791    8.2485    9.0042 C   0  0  0  0  0  0 
    6.3742    9.7324    8.9150 C   0  0  0  0  0  0 
    6.9837   10.7774    8.0443 C   0  0  0  0  0  0 
    8.2458   10.1648    7.2164 C   0  0  0  0  0  0 
    8.5330    8.8206    7.5449 C   0  0  0  0  0  0 
    8.0577   10.7363    5.8117 C   0  0  0  0  0  0 
    6.8804   11.7387    5.9128 C   0  0  0  0  0  0 
    6.1742   11.4875    7.1371 O   0  0  0  0  0  0 
    6.7236    5.1896    5.8551 C   0  0  0  0  0  0 
    7.6050    5.7986    4.7828 C   0  0  0  0  0  0 
  1  2  2  0
  2  3  1  0
  2  5  1  0
  3  4  1  0
  5  6  1  0
  5 20  1  0
  6  7  1  0
  7  8  1  0
  8  9  1  0
  8 19  1  0
  9 10  1  0
 10 11  1  0
 10 15  2  0
 11 12  2  0
 12 13  1  0
 13 14  2  0
 13 18  1  0
 14 15  1  0
 14 16  1  0
 16 17  1  0
 17 18  1  0
 19 20  1  0
M  END
>  <name>


$$$$

 SMI23D  v 9.10   1.00000     0.00000

 23 24  0  0  0  0              1 V2000
    7.1075   11.2824   10.6431 C   0  0  0  0  0  0 
    7.5315   11.3902    9.2906 O   0  0  0  0  0  0 
    8.9269   11.4732    9.1410 C   0  0  0  0  0  0 
    9.2614   10.4650    7.8373 C   0  0  0  0  0  0 
   10.3644    9.5515    8.2817 C   0  0  0  0  0  0 
   10.8461    8.9933    9.5539 C   0  0  0  0  0  0 
    9.9432    7.4384    9.7339 S   0  0  0  0  0  0 
    9.0763    7.6050   10.8840 O   0  0  0  0  0  0 
   10.9013    6.3634    9.8586 O   0  0  0  0  0  0 
    9.0132    7.1549    8.4261 N   0  0  0  0  0  0 
    7.6595    7.2047    8.6085 C   0  0  0  0  0  0 
    6.9475    8.3494    7.9448 C   0  0  0  0  0  0 
    7.3792    8.5009    6.5651 N   0  0  0  0  0  0 
    6.6264    9.2636    5.7294 C   0  0  0  0  0  0 
    5.7664   10.0047    6.1469 O   0  0  0  0  0  0 
    6.9801    9.2003    4.2621 C   0  0  0  0  0  0 
    7.6849   10.7546    3.7434 Cl  0  0  0  0  0  0 
    8.7060    8.1363    6.1676 C   0  0  0  0  0  0 
    9.5306    7.4920    7.2120 C   0  0  0  0  0  0 
   10.5237    9.9066   10.7494 C   0  0  0  0  0  0 
    9.8843   11.2612   10.2408 C   0  0  0  0  0  0 
   10.7811   12.2891   10.6160 O   0  0  0  0  0  0 
   10.5329   13.5516   10.0697 C   0  0  0  0  0  0 
  1  2  1  0
  2  3  1  0
  3  4  1  0
  3 21  2  0
  4  5  2  0
  5  6  1  0
  6  7  1  0
  6 20  2  0
  7  8  2  0
  7  9  2  0
  7 10  1  0
 10 11  1  0
 10 19  1  0
 11 12  1  0
 12 13  1  0
 13 14  1  0
 13 18  1  0
 14 15  2  0
 14 16  1  0
 16 17  1  0
 18 19  1  0
 20 21  1  0
 21 22  1  0
 22 23  1  0
M  END
>  <name>


$$$$

 SMI23D  v 9.10   1.00000     0.00000

 18 19  0  0  0  0              1 V2000
    7.7722    5.4908    7.4690 C   0  0  0  0  0  0 
    8.8018    5.7465    8.5792 C   0  0  0  0  0  0 
    8.8395    4.2550    9.3880 C   0  0  0  0  0  0 
   10.2170    3.7137    9.1925 C   0  0  0  0  0  0 
   11.5584    4.2052    8.8555 C   0  0  0  0  0  0 
   11.4974    5.5215    8.0127 C   0  0  0  0  0  0 
   10.1570    6.2410    8.3491 C   0  0  0  0  0  0 
   10.6078    7.5507    9.0602 C   0  0  0  0  0  0 
    9.9742    8.6888    8.6346 N   0  0  0  0  0  0 
    9.7715    8.8176    7.2600 C   0  0  0  0  0  0 
    8.6638    7.9246    6.7395 C   0  0  0  0  0  0 
    7.4827    8.0734    7.5924 N   0  0  0  0  0  0 
    6.4292    8.7754    7.1328 C   0  0  0  0  0  0 
    5.6977    9.3951    7.8904 O   0  0  0  0  0  0 
    6.4328    9.0981    5.6524 C   0  0  0  0  0  0 
    7.1846    7.7718    4.7369 Cl  0  0  0  0  0  0 
    7.7030    7.9865    9.0423 C   0  0  0  0  0  0 
    8.8070    8.9897    9.3904 C   0  0  0  0  0  0 
  1  2  1  0
  2  3  1  0
  2  7  2  0
  3  4  2  0
  4  5  1  0
  5  6  2  0
  6  7  1  0
  7  8  1  0
  8  9  1  0
  9 10  1  0
  9 18  1  0
 10 11  1  0
 11 12  1  0
 12 13  1  0
 12 17  1  0
 13 14  2  0
 13 15  1  0
 15 16  1  0
 17 18  1  0
M  END
>  <name>


$$$$

 SMI23D  v 9.10   1.00000     0.00000

 19 20  0  0  0  0              1 V2000
    7.3797    9.1217   10.6766 C   0  0  0  0  0  0 
    7.2186    7.7887    9.9528 C   0  0  0  0  0  0 
    6.8621    8.1657    8.3883 C   0  0  0  0  0  0 
    5.5065    7.6369    8.0712 C   0  0  0  0  0  0 
    4.5157    6.7143    8.6547 C   0  0  0  0  0  0 
    4.1548    5.5452    7.7092 C   0  0  0  0  0  0 
    5.3963    4.8452    7.4208 N   0  0  0  0  0  0 
    5.4737    4.6455    6.0054 C   0  0  0  0  0  0 
    6.7635    3.9240    5.6523 C   0  0  0  0  0  0 
    7.8937    4.4119    6.5489 C   0  0  0  0  0  0 
    7.7130    3.8759    7.8845 N   0  0  0  0  0  0 
    8.5819    4.1999    8.8626 C   0  0  0  0  0  0 
    9.2582    3.3584    9.4113 O   0  0  0  0  0  0 
    8.5163    5.6244    9.3651 C   0  0  0  0  0  0 
    9.7672    6.6026    8.5535 Cl  0  0  0  0  0  0 
    6.6686    2.9073    8.1411 C   0  0  0  0  0  0 
    5.3069    3.5658    8.0620 C   0  0  0  0  0  0 
    4.8756    6.3045   10.1086 C   0  0  0  0  0  0 
    6.1847    6.9179   10.5356 C   0  0  0  0  0  0 
  1  2  1  0
  2  3  1  0
  2 19  2  0
  3  4  2  0
  4  5  1  0
  5  6  1  0
  5 18  2  0
  6  7  1  0
  7  8  1  0
  7 17  1  0
  8  9  1  0
  9 10  1  0
 10 11  1  0
 11 12  1  0
 11 16  1  0
 12 13  2  0
 12 14  1  0
 14 15  1  0
 16 17  1  0
 18 19  1  0
M  END
>  <name>


$$$$

 SMI23D  v 9.10   1.00000     0.00000

 22 23  0  0  0  0              1 V2000
    6.7280   10.4612    3.5468 C   0  0  0  0  0  0 
    7.2882   10.7703    4.9237 C   0  0  0  0  0  0 
    6.2808   11.0803    5.7664 O   0  0  0  0  0  0 
    5.6938   10.2632    6.6745 C   0  0  0  0  0  0 
    6.4338    8.8010    6.6962 C   0  0  0  0  0  0 
    6.9491    8.5448    8.0742 C   0  0  0  0  0  0 
    6.8668    9.1569    9.4136 C   0  0  0  0  0  0 
    6.0659    7.9358   10.4593 S   0  0  0  0  0  0 
    6.4421    6.6368    9.9036 O   0  0  0  0  0  0 
    6.4640    8.1314   11.8115 O   0  0  0  0  0  0 
    4.4538    8.0528   10.3007 N   0  0  0  0  0  0 
    4.0054    9.1052    9.4912 C   0  0  0  0  0  0 
    3.7785   10.3861   10.3054 C   0  0  0  0  0  0 
    4.5826   10.2957   11.5187 N   0  0  0  0  0  0 
    5.5771   11.1469   11.7706 C   0  0  0  0  0  0 
    5.4019   12.3533   11.7318 O   0  0  0  0  0  0 
    6.9832   10.5753   11.7799 C   0  0  0  0  0  0 
    8.0167   11.5223   10.6757 Cl  0  0  0  0  0  0 
    4.2928    9.1877   12.4275 C   0  0  0  0  0  0 
    3.7880    8.0243   11.5574 C   0  0  0  0  0  0 
    6.0913   10.4527    9.4163 C   0  0  0  0  0  0 
    5.6288   10.8682    8.0315 C   0  0  0  0  0  0 
  1  2  1  0
  2  3  1  0
  3  4  1  0
  4  5  1  0
  4 22  2  0
  5  6  2  0
  6  7  1  0
  7  8  1  0
  7 21  2  0
  8  9  2  0
  8 10  2  0
  8 11  1  0
 11 12  1  0
 11 20  1  0
 12 13  1  0
 13 14  1  0
 14 15  1  0
 14 19  1  0
 15 16  2  0
 15 17  1  0
 17 18  1  0
 19 20  1  0
 21 22  1  0
M  END
>  <name>


$$$$

 SMI23D  v 9.10   1.00000     0.00000

 20 21  0  0  0  0              1 V2000
    9.2025    7.3080    3.5855 O   0  0  0  0  0  0 
    8.8517    8.3678    4.0600 C   0  0  0  0  0  0 
    9.6091    9.6506    3.8245 C   0  0  0  0  0  0 
   11.3630    9.3646    3.8040 Cl  0  0  0  0  0  0 
    7.7355    8.4629    4.7974 N   0  0  0  0  0  0 
    7.3261    7.3612    5.6576 C   0  0  0  0  0  0 
    5.9528    7.6708    6.2263 C   0  0  0  0  0  0 
    5.9060    8.8800    6.9114 N   0  0  0  0  0  0 
    6.0334    8.6969    8.5261 S   0  0  0  0  0  0 
    5.0109    7.6865    8.9005 O   0  0  0  0  0  0 
    5.7245    9.9940    9.1359 O   0  0  0  0  0  0 
    7.5210    8.1322    9.1127 C   0  0  0  0  0  0 
    8.7442    8.0601    8.5153 C   0  0  0  0  0  0 
    9.1207    6.7096    7.6552 C   0  0  0  0  0  0 
    9.7806    7.1587    6.3718 C   0  0  0  0  0  0 
   10.5226    8.3480    5.9088 C   0  0  0  0  0  0 
   10.0912    9.6459    6.7289 C   0  0  0  0  0  0 
    9.5564    9.1959    8.0400 C   0  0  0  0  0  0 
    6.6914    9.9177    6.4159 C   0  0  0  0  0  0 
    7.0700    9.7496    4.9557 C   0  0  0  0  0  0 
  1  2  2  0
  2  3  1  0
  2  5  1  0
  3  4  1  0
  5  6  1  0
  5 20  1  0
  6  7  1  0
  7  8  1  0
  8  9  1  0
  8 19  1  0
  9 10  2  0
  9 11  2  0
  9 12  1  0
 12 13  1  0
 13 14  1  0
 13 18  2  0
 14 15  2  0
 15 16  1  0
 16 17  2  0
 17 18  1  0
 19 20  1  0
M  END
>  <name>


$$$$

 SMI23D  v 9.10   1.00000     0.00000

 17 18  0  0  0  0              1 V2000
    4.0409   10.4159    3.3313 O   0  0  0  0  0  0 
    4.8174    9.8382    4.0861 C   0  0  0  0  0  0 
    5.6933   10.6271    5.0240 C   0  0  0  0  0  0 
    7.0503    9.6248    5.5997 Cl  0  0  0  0  0  0 
    4.5610    8.5388    4.4015 N   0  0  0  0  0  0 
    5.1268    8.0455    5.6832 C   0  0  0  0  0  0 
    6.3611    7.2111    5.2375 C   0  0  0  0  0  0 
    5.8641    6.0138    4.6728 N   0  0  0  0  0  0 
    5.7275    5.0032    5.5532 C   0  0  0  0  0  0 
    5.1701    4.9927    6.8571 C   0  0  0  0  0  0 
    4.4217    6.3310    7.3844 C   0  0  0  0  0  0 
    3.1283    5.9390    8.0530 C   0  0  0  0  0  0 
    2.4159    4.7058    8.4215 C   0  0  0  0  0  0 
    3.1364    3.4098    7.8751 C   0  0  0  0  0  0 
    4.4567    3.7779    7.3322 C   0  0  0  0  0  0 
    4.8122    6.1871    3.7735 C   0  0  0  0  0  0 
    4.5575    7.5794    3.2942 C   0  0  0  0  0  0 
  1  2  2  0
  2  3  1  0
  2  5  1  0
  3  4  1  0
  5  6  1  0
  5 17  1  0
  6  7  1  0
  7  8  1  0
  8  9  1  0
  8 16  1  0
  9 10  1  0
 10 11  1  0
 10 15  2  0
 11 12  2  0
 12 13  1  0
 13 14  2  0
 14 15  1  0
 16 17  1  0
M  END
>  <name>


$$$$

 SMI23D  v 9.10   1.00000     0.00000

 19 21  0  0  0  0              1 V2000
    9.9938    7.0430   10.3936 O   0  0  0  0  0  0 
    8.8339    7.2050   10.1250 C   0  0  0  0  0  0 
    8.1200    8.5264   10.2834 C   0  0  0  0  0  0 
    6.7203    8.5801    9.1746 Cl  0  0  0  0  0  0 
    8.0841    6.1996    9.6035 N   0  0  0  0  0  0 
    7.7666    6.2205    8.1980 C   0  0  0  0  0  0 
    6.2624    6.2160    7.9857 C   0  0  0  0  0  0 
    5.6043    5.1891    8.8527 C   0  0  0  0  0  0 
    6.0084    3.7583    8.4440 C   0  0  0  0  0  0 
    7.1187    3.9505    7.3918 N   0  0  0  0  0  0 
    6.6021    4.1561    6.1910 C   0  0  0  0  0  0 
    7.1777    4.9474    5.2009 C   0  0  0  0  0  0 
    6.3267    6.0859    4.5796 C   0  0  0  0  0  0 
    4.8701    6.3542    4.7080 C   0  0  0  0  0  0 
    4.1953    5.5297    5.8789 C   0  0  0  0  0  0 
    5.1114    4.4476    6.1790 C   0  0  0  0  0  0 
    4.6196    3.3484    7.2603 S   0  0  0  0  0  0 
    5.9085    5.4061   10.3172 C   0  0  0  0  0  0 
    7.4187    5.2957   10.5217 C   0  0  0  0  0  0 
  1  2  2  0
  2  3  1  0
  2  5  1  0
  3  4  1  0
  5  6  1  0
  5 19  1  0
  6  7  1  0
  7  8  1  0
  8  9  1  0
  8 18  1  0
  9 10  1  0
  9 17  1  0
 10 11  1  0
 11 12  1  0
 11 16  2  0
 12 13  2  0
 13 14  1  0
 14 15  2  0
 15 16  1  0
 16 17  1  0
 18 19  1  0
M  END
>  <name>


$$$$

 SMI23D  v 9.10   1.00000     0.00000

 22 24  0  0  0  0              1 V2000
    4.0426    9.7618    5.1087 O   0  0  0  0  0  0 
    4.8720    9.8006    5.9174 C   0  0  0  0  0  0 
    6.1619    8.9900    5.9109 C   0  0  0  0  0  0 
    7.1594    9.5548    4.5369 Cl  0  0  0  0  0  0 
    5.2543   11.1518    6.2423 N   0  3  0  0  0  0 
    6.3529   11.6223    5.9020 C   0  0  0  0  0  0 
    7.6731   11.4565    6.7477 C   0  0  0  0  0  0 
    6.9706   10.8846    7.9572 C   0  0  0  0  0  0 
    5.7883   11.4101    8.4243 C   0  0  0  0  0  0 
    5.5189   10.4717    9.7258 C   0  0  0  0  0  0 
    4.3380    9.5739    9.3544 C   0  0  0  0  0  0 
    3.9346    8.9563   10.9079 S   0  0  0  0  0  0 
    2.6944    8.2342   10.8439 O   0  0  0  0  0  0 
    3.9583   10.0339   11.8800 O   0  0  0  0  0  0 
    5.1028    7.8813   11.3409 N   0  0  0  0  0  0 
    5.7754    8.3728   12.5705 C   0  0  0  0  0  0 
    7.2275    8.7569   12.1489 C   0  0  0  0  0  0 
    7.2919    8.3230   10.6567 C   0  0  0  0  0  0 
    5.9978    7.7557   10.2471 C   0  0  0  0  0  0 
    3.1193    9.6834    8.5228 C   0  0  0  0  0  0 
    3.3818   10.6710    7.3443 C   0  0  0  0  0  0 
    4.5920   11.4244    7.4942 C   0  0  0  0  0  0 
  1  2  2  0
  2  3  1  0
  2  5  1  0
  3  4  1  0
  5  6  2  0
  5 22  1  0
  6  7  1  0
  7  8  2  0
  8  9  1  0
  9 10  1  0
  9 22  2  0
 10 11  2  0
 11 12  1  0
 11 20  1  0
 12 13  2  0
 12 14  2  0
 12 15  1  0
 15 16  1  0
 15 19  1  0
 16 17  1  0
 17 18  1  0
 18 19  2  0
 20 21  2  0
 21 22  1  0
M  END
>  <name>


$$$$

 SMI23D  v 9.10   1.00000     0.00000

 21 22  0  0  0  0              1 V2000
   10.9984    6.6999   10.0007 O   0  0  0  0  0  0 
   10.7901    7.7745    9.4402 C   0  0  0  0  0  0 
   10.5170    9.0025   10.3202 C   0  0  0  0  0  0 
   10.2495   10.4163    9.2684 Cl  0  0  0  0  0  0 
    9.8563    7.7106    8.3822 N   0  0  0  0  0  0 
    8.4633    7.6070    8.9545 C   0  0  0  0  0  0 
    8.1183    9.0851    9.2501 C   0  0  0  0  0  0 
    7.8499    9.7553    8.0097 N   0  0  0  0  0  0 
    6.2845    9.3294    7.5929 S   0  0  0  0  0  0 
    6.0159    9.7564    6.2782 O   0  0  0  0  0  0 
    5.4239    9.7838    8.6460 O   0  0  0  0  0  0 
    6.2713    7.5113    7.6455 C   0  0  0  0  0  0 
    6.0164    6.9872    8.8811 C   0  0  0  0  0  0 
    6.3433    5.6730    9.3477 C   0  0  0  0  0  0 
    7.4814    5.9423   10.5228 C   0  0  0  0  0  0 
    8.7490    5.2595   10.1202 C   0  0  0  0  0  0 
    9.2098    4.3042    9.1044 C   0  0  0  0  0  0 
    8.1183    4.0400    7.9912 C   0  0  0  0  0  0 
    6.8691    4.7455    8.3467 C   0  0  0  0  0  0 
    8.7186    9.3716    6.9762 C   0  0  0  0  0  0 
   10.0255    8.7814    7.3959 C   0  0  0  0  0  0 
  1  2  2  0
  2  3  1  0
  2  5  1  0
  3  4  1  0
  5  6  1  0
  5 21  1  0
  6  7  1  0
  7  8  1  0
  8  9  1  0
  8 20  1  0
  9 10  2  0
  9 11  2  0
  9 12  1  0
 12 13  2  0
 13 14  1  0
 14 15  1  0
 14 19  2  0
 15 16  2  0
 16 17  1  0
 17 18  2  0
 18 19  1  0
 20 21  1  0
M  END
>  <name>


$$$$

 SMI23D  v 9.10   1.00000     0.00000

 16 17  0  0  0  0              1 V2000
    4.6835    7.0426    3.4349 O   0  0  0  0  0  0 
    3.9452    6.1876    2.9670 C   0  0  0  0  0  0 
    3.7388    6.1036    1.4635 C   0  0  0  0  0  0 
    1.9975    6.1683    1.0954 Cl  0  0  0  0  0  0 
    3.8232    4.9970    3.6204 N   0  0  0  0  0  0 
    4.5266    3.8456    3.0551 C   0  0  0  0  0  0 
    4.1515    2.6146    3.8870 C   0  0  0  0  0  0 
    4.1007    2.9949    5.2687 N   0  0  0  0  0  0 
    5.2485    3.8370    5.5328 C   0  0  0  0  0  0 
    4.8293    4.9582    6.4556 C   0  0  0  0  0  0 
    4.1340    6.1436    5.8937 C   0  0  0  0  0  0 
    3.3511    6.6805    7.1008 C   0  0  0  0  0  0 
    3.6224    5.6465    8.1333 C   0  0  0  0  0  0 
    4.5047    4.6466    7.7606 O   0  0  0  0  0  0 
    2.9248    3.7553    5.5180 C   0  0  0  0  0  0 
    2.6459    4.7667    4.4328 C   0  0  0  0  0  0 
  1  2  2  0
  2  3  1  0
  2  5  1  0
  3  4  1  0
  5  6  1  0
  5 16  1  0
  6  7  1  0
  7  8  1  0
  8  9  1  0
  8 15  1  0
  9 10  1  0
 10 11  2  0
 10 14  1  0
 11 12  1  0
 12 13  2  0
 13 14  1  0
 15 16  1  0
M  END
>  <name>


$$$$

 SMI23D  v 9.10   1.00000     0.00000

 18 19  0  0  0  0              1 V2000
    8.9132    7.9446    9.8151 O   0  0  0  0  0  0 
    8.6127    6.9170    9.2488 C   0  0  0  0  0  0 
    7.1844    6.5608    8.9340 C   0  0  0  0  0  0 
    6.2085    6.5413   10.4201 Cl  0  0  0  0  0  0 
    9.5675    6.0210    8.8878 N   0  0  0  0  0  0 
    9.1324    4.6900    8.4572 C   0  0  0  0  0  0 
    9.4287    4.5369    6.9705 C   0  0  0  0  0  0 
    9.5251    5.8431    6.3600 N   0  0  0  0  0  0 
    8.4179    6.6165    6.7711 C   0  0  0  0  0  0 
    8.1785    7.8522    5.9918 C   0  0  0  0  0  0 
    8.0141    9.1180    7.0342 C   0  0  0  0  0  0 
    6.6574    9.7285    6.8274 C   0  0  0  0  0  0 
    5.5923    9.6976    5.8213 C   0  0  0  0  0  0 
    4.0949    9.5352    6.6940 Cl  0  0  0  0  0  0 
    5.7098    8.4687    4.8740 C   0  0  0  0  0  0 
    7.1131    7.8830    4.9790 C   0  0  0  0  0  0 
   10.7422    6.4482    6.7968 C   0  0  0  0  0  0 
   10.8019    6.5444    8.3068 C   0  0  0  0  0  0 
  1  2  2  0
  2  3  1  0
  2  5  1  0
  3  4  1  0
  5  6  1  0
  5 18  1  0
  6  7  1  0
  7  8  1  0
  8  9  1  0
  8 17  1  0
  9 10  1  0
 10 11  1  0
 10 16  2  0
 11 12  2  0
 12 13  1  0
 13 14  1  0
 13 15  2  0
 15 16  1  0
 17 18  1  0
M  END
>  <name>


$$$$

 SMI23D  v 9.10   1.00000     0.00000

 23 24  0  0  0  0              1 V2000
    7.6526   10.7627   12.6102 C   0  0  0  0  0  0 
    7.7921   10.2068   11.2486 O   0  0  0  0  0  0 
    7.0855    9.1413   11.0025 C   0  0  0  0  0  0 
    8.0960    7.9802   10.4252 C   0  0  0  0  0  0 
    7.6966    7.5846    9.0768 C   0  0  0  0  0  0 
    6.4880    7.9217    8.1050 C   0  0  0  0  0  0 
    5.9068    6.6138    7.7493 O   0  0  0  0  0  0 
    6.6411    5.5051    7.6382 C   0  0  0  0  0  0 
    5.6258    8.9623    8.7174 C   0  0  0  0  0  0 
    5.4760   10.4114    7.6441 S   0  0  0  0  0  0 
    4.4720   11.2240    8.2228 O   0  0  0  0  0  0 
    5.2154    9.9273    6.3051 O   0  0  0  0  0  0 
    6.9152   11.1863    7.6322 N   0  0  0  0  0  0 
    7.3342   11.4331    6.3020 C   0  0  0  0  0  0 
    8.1945   10.2747    5.7739 C   0  0  0  0  0  0 
    9.4323   10.3008    6.5610 N   0  0  0  0  0  0 
   10.5020    9.6046    6.1710 C   0  0  0  0  0  0 
   10.3951    8.4632    5.7491 O   0  0  0  0  0  0 
   11.7488   10.4180    5.8610 C   0  0  0  0  0  0 
   12.5380    9.7593    4.4039 Cl  0  0  0  0  0  0 
    9.3124   10.8017    7.9270 C   0  0  0  0  0  0 
    7.8881   10.5306    8.4031 C   0  0  0  0  0  0 
    5.9999    9.4431   10.0184 C   0  0  0  0  0  0 
  1  2  1  0
  2  3  1  0
  3  4  1  0
  3 23  2  0
  4  5  2  0
  5  6  1  0
  6  7  1  0
  6  9  2  0
  7  8  1  0
  9 10  1  0
  9 23  1  0
 10 11  2  0
 10 12  2  0
 10 13  1  0
 13 14  1  0
 13 22  1  0
 14 15  1  0
 15 16  1  0
 16 17  1  0
 16 21  1  0
 17 18  2  0
 17 19  1  0
 19 20  1  0
 21 22  1  0
M  END
>  <name>


$$$$
