
  xtb     06082023043D
xtb: 6.2.3 (830e466)
 36 38  0     0  0            999 V2000
    6.2443   10.3327    4.0446 O   0  0  0  0  0  0  0  0  0  0  0  0
    6.1281    9.9891    5.2037 C   0  0  0  0  0  0  0  0  0  0  0  0
    6.3767    8.5376    5.5794 C   0  0  0  0  0  0  0  0  0  0  0  0
    7.2233    8.3456    7.1366 Cl  0  0  0  0  0  0  0  0  0  0  0  0
    5.8931   10.9220    6.2070 N   0  3  0  0  0  0  0  0  0  0  0  0
    6.3298   12.2138    5.9549 C   0  0  0  0  0  0  0  0  0  0  0  0
    6.5381   13.1027    6.9659 C   0  0  0  0  0  0  0  0  0  0  0  0
    6.2795   12.7444    8.2879 C   0  0  0  0  0  0  0  0  0  0  0  0
    5.6301   11.5221    8.5412 C   0  0  0  0  0  0  0  0  0  0  0  0
    5.1837   11.1563    9.8281 C   0  0  0  0  0  0  0  0  0  0  0  0
    4.4088   10.0392    9.9976 C   0  0  0  0  0  0  0  0  0  0  0  0
    3.9876    9.4919   11.6518 S   0  0  0  0  0  0  0  0  0  0  0  0
    2.6796    8.9144   11.6540 O   0  0  0  0  0  0  0  0  0  0  0  0
    4.3023   10.5301   12.5838 O   0  0  0  0  0  0  0  0  0  0  0  0
    5.0812    8.2463   11.9011 N   0  0  0  0  0  0  0  0  0  0  0  0
    6.5014    8.5921   11.9129 C   0  0  0  0  0  0  0  0  0  0  0  0
    7.1881    7.5902   10.9643 C   0  0  0  0  0  0  0  0  0  0  0  0
    6.0606    6.6655   10.5973 C   0  0  0  0  0  0  0  0  0  0  0  0
    4.9243    7.0940   11.1300 C   0  0  0  0  0  0  0  0  0  0  0  0
    4.0010    9.2683    8.9192 C   0  0  0  0  0  0  0  0  0  0  0  0
    4.4632    9.5797    7.6525 C   0  0  0  0  0  0  0  0  0  0  0  0
    5.3413   10.6413    7.4620 C   0  0  0  0  0  0  0  0  0  0  0  0
    7.0261    8.1291    4.8024 H   0  0  0  0  0  0  0  0  0  0  0  0
    5.4655    7.9417    5.6170 H   0  0  0  0  0  0  0  0  0  0  0  0
    6.5677   12.4142    4.9236 H   0  0  0  0  0  0  0  0  0  0  0  0
    6.9234   14.0812    6.7297 H   0  0  0  0  0  0  0  0  0  0  0  0
    6.5026   13.4112    9.1030 H   0  0  0  0  0  0  0  0  0  0  0  0
    5.4187   11.7738   10.6806 H   0  0  0  0  0  0  0  0  0  0  0  0
    6.8658    8.4953   12.9385 H   0  0  0  0  0  0  0  0  0  0  0  0
    6.6280    9.6300   11.6021 H   0  0  0  0  0  0  0  0  0  0  0  0
    7.9993    7.0608   11.4643 H   0  0  0  0  0  0  0  0  0  0  0  0
    7.6019    8.0711   10.0737 H   0  0  0  0  0  0  0  0  0  0  0  0
    6.1990    5.7890    9.9956 H   0  0  0  0  0  0  0  0  0  0  0  0
    3.9328    6.6887   11.0604 H   0  0  0  0  0  0  0  0  0  0  0  0
    3.3223    8.4485    9.0831 H   0  0  0  0  0  0  0  0  0  0  0  0
    4.1207    9.0012    6.8109 H   0  0  0  0  0  0  0  0  0  0  0  0
  1  2  1  0  0  0  0
  2  3  1  0  0  0  0
  2  5  1  0  0  0  0
  3  4  1  0  0  0  0
  3 23  1  0  0  0  0
  3 24  1  0  0  0  0
  5  6  1  0  0  0  0
  5 22  1  0  0  0  0
  6  7  1  0  0  0  0
  6 25  1  0  0  0  0
  7  8  1  0  0  0  0
  7 26  1  0  0  0  0
  8  9  1  0  0  0  0
  8 27  1  0  0  0  0
  9 10  1  0  0  0  0
  9 22  1  0  0  0  0
 10 11  1  0  0  0  0
 10 28  1  0  0  0  0
 11 12  1  0  0  0  0
 11 20  1  0  0  0  0
 12 13  1  0  0  0  0
 12 14  1  0  0  0  0
 12 15  1  0  0  0  0
 15 16  1  0  0  0  0
 15 19  1  0  0  0  0
 16 17  1  0  0  0  0
 16 29  1  0  0  0  0
 16 30  1  0  0  0  0
 17 18  1  0  0  0  0
 17 31  1  0  0  0  0
 17 32  1  0  0  0  0
 18 19  1  0  0  0  0
 18 33  1  0  0  0  0
 19 34  1  0  0  0  0
 20 21  1  0  0  0  0
 20 35  1  0  0  0  0
 21 22  1  0  0  0  0
 21 36  1  0  0  0  0
M  CHG   1   1   1
M  END
>  <name>


>  <Energy>
92.7072

> <total energy / Eh>
    -65.064038791240

> <gradient norm / Eh/a0>
      0.000337279542

$$$$
