MODEL 1
REMARK VINA RESULT:      -6.0      0.000      0.000
REMARK  Name = 
REMARK  6 active torsions:
REMARK  status: ('A' for Active; 'I' for Inactive)
REMARK    1  A    between atoms: C_1  and  O_2
REMARK    2  A    between atoms: O_2  and  C_3
REMARK    3  A    between atoms: C_6  and  S_7
REMARK    4  A    between atoms: S_7  and  N_10
REMARK    5  A    between atoms: N_13  and  C_14
REMARK    6  A    between atoms: C_14  and  C_16
REMARK                            x       y       z     vdW  Elec       q    Type
REMARK                         _______ _______ _______ _____ _____    ______ ____
ROOT
ATOM      1  S   UNL     1       9.916  -1.855  23.010  0.00  0.00    +0.000 S 
ATOM      2  O   UNL     1      11.173  -1.645  22.354  0.00  0.00    +0.000 OA
ATOM      3  O   UNL     1       9.601  -3.148  23.539  0.00  0.00    +0.000 OA
ENDROOT
BRANCH   1   7
ATOM      4  C   UNL     1       6.600  -0.724  20.115  0.00  0.00    +0.000 C 
ATOM      5  C   UNL     1       7.867  -0.141  19.995  0.00  0.00    +0.000 C 
ATOM      6  C   UNL     1       8.865  -0.451  20.893  0.00  0.00    +0.000 C 
ATOM      7  C   UNL     1       8.598  -1.331  21.927  0.00  0.00    +0.000 C 
ATOM      8  C   UNL     1       7.333  -1.852  22.104  0.00  0.00    +0.000 C 
ATOM      9  C   UNL     1       6.329  -1.555  21.202  0.00  0.00    +0.000 C 
BRANCH   4  11
ATOM     10  C   UNL     1       5.778   0.868  18.563  0.00  0.00    +0.000 C 
ATOM     11  O   UNL     1       5.716  -0.417  19.142  0.00  0.00    +0.000 OA
ENDBRANCH   4  11
ENDBRANCH   1   7
BRANCH   1  12
ATOM     12  N   UNL     1       9.907  -0.807  24.315  0.00  0.00    +0.000 NA
ATOM     13  C   UNL     1       8.658  -0.579  25.005  0.00  0.00    +0.000 C 
ATOM     14  C   UNL     1       8.352   0.925  25.105  0.00  0.00    +0.000 C 
ATOM     15  N   UNL     1       8.775   1.586  23.894  0.00  0.00    +0.000 NA
ATOM     16  C   UNL     1      10.216   1.568  23.694  0.00  0.00    +0.000 C 
ATOM     17  C   UNL     1      10.829   0.295  24.309  0.00  0.00    +0.000 C 
BRANCH  15  18
ATOM     18  C   UNL     1       7.999   2.103  22.924  0.00  0.00    +0.000 C 
ATOM     19  O   UNL     1       8.437   2.858  22.074  0.00  0.00    +0.000 OA
BRANCH  18  20
ATOM     20  C   UNL     1       6.506   1.803  22.957  0.00  0.00    +0.000 C 
ATOM     21 CL   UNL     1       5.582   2.623  21.674  0.00  0.00    +0.000 Cl
ENDBRANCH  18  20
ENDBRANCH  15  18
ENDBRANCH   1  12
TORSDOF 5
ENDMDL
MODEL 2
REMARK VINA RESULT:      -5.9      3.256      5.245
REMARK  Name = 
REMARK  6 active torsions:
REMARK  status: ('A' for Active; 'I' for Inactive)
REMARK    1  A    between atoms: C_1  and  O_2
REMARK    2  A    between atoms: O_2  and  C_3
REMARK    3  A    between atoms: C_6  and  S_7
REMARK    4  A    between atoms: S_7  and  N_10
REMARK    5  A    between atoms: N_13  and  C_14
REMARK    6  A    between atoms: C_14  and  C_16
REMARK                            x       y       z     vdW  Elec       q    Type
REMARK                         _______ _______ _______ _____ _____    ______ ____
ROOT
ATOM      1  S   UNL     1       8.705  -2.473  23.081  0.00  0.00    +0.000 S 
ATOM      2  O   UNL     1       7.726  -2.832  22.098  0.00  0.00    +0.000 OA
ATOM      3  O   UNL     1      10.098  -2.580  22.765  0.00  0.00    +0.000 OA
ENDROOT
BRANCH   1   7
ATOM      4  C   UNL     1       7.844  -4.968  26.780  0.00  0.00    +0.000 C 
ATOM      5  C   UNL     1       6.825  -4.209  26.192  0.00  0.00    +0.000 C 
ATOM      6  C   UNL     1       7.090  -3.421  25.093  0.00  0.00    +0.000 C 
ATOM      7  C   UNL     1       8.377  -3.371  24.587  0.00  0.00    +0.000 C 
ATOM      8  C   UNL     1       9.406  -4.052  25.204  0.00  0.00    +0.000 C 
ATOM      9  C   UNL     1       9.148  -4.855  26.299  0.00  0.00    +0.000 C 
BRANCH   4  11
ATOM     10  C   UNL     1       6.097  -5.835  28.127  0.00  0.00    +0.000 C 
ATOM     11  O   UNL     1       7.468  -5.768  27.801  0.00  0.00    +0.000 OA
ENDBRANCH   4  11
ENDBRANCH   1   7
BRANCH   1  12
ATOM     12  N   UNL     1       8.433  -0.856  23.421  0.00  0.00    +0.000 NA
ATOM     13  C   UNL     1       7.073  -0.369  23.403  0.00  0.00    +0.000 C 
ATOM     14  C   UNL     1       6.939   0.858  22.486  0.00  0.00    +0.000 C 
ATOM     15  N   UNL     1       7.786   0.692  21.330  0.00  0.00    +0.000 NA
ATOM     16  C   UNL     1       9.207   0.683  21.644  0.00  0.00    +0.000 C 
ATOM     17  C   UNL     1       9.443   0.096  23.050  0.00  0.00    +0.000 C 
BRANCH  15  18
ATOM     18  C   UNL     1       7.408   0.450  20.061  0.00  0.00    +0.000 C 
ATOM     19  O   UNL     1       8.139  -0.104  19.260  0.00  0.00    +0.000 OA
BRANCH  18  20
ATOM     20  C   UNL     1       6.057   0.978  19.597  0.00  0.00    +0.000 C 
ATOM     21 CL   UNL     1       5.608   0.452  17.956  0.00  0.00    +0.000 Cl
ENDBRANCH  18  20
ENDBRANCH  15  18
ENDBRANCH   1  12
TORSDOF 5
ENDMDL
MODEL 3
REMARK VINA RESULT:      -5.9      2.625      4.768
REMARK  Name = 
REMARK  6 active torsions:
REMARK  status: ('A' for Active; 'I' for Inactive)
REMARK    1  A    between atoms: C_1  and  O_2
REMARK    2  A    between atoms: O_2  and  C_3
REMARK    3  A    between atoms: C_6  and  S_7
REMARK    4  A    between atoms: S_7  and  N_10
REMARK    5  A    between atoms: N_13  and  C_14
REMARK    6  A    between atoms: C_14  and  C_16
REMARK                            x       y       z     vdW  Elec       q    Type
REMARK                         _______ _______ _______ _____ _____    ______ ____
ROOT
ATOM      1  S   UNL     1       8.678  -3.921  25.080  0.00  0.00    +0.000 S 
ATOM      2  O   UNL     1       8.284  -3.956  26.458  0.00  0.00    +0.000 OA
ATOM      3  O   UNL     1       9.630  -4.873  24.591  0.00  0.00    +0.000 OA
ENDROOT
BRANCH   1   7
ATOM      4  C   UNL     1      10.319   0.214  24.154  0.00  0.00    +0.000 C 
ATOM      5  C   UNL     1       9.499   0.018  25.271  0.00  0.00    +0.000 C 
ATOM      6  C   UNL     1       8.967  -1.226  25.535  0.00  0.00    +0.000 C 
ATOM      7  C   UNL     1       9.236  -2.276  24.675  0.00  0.00    +0.000 C 
ATOM      8  C   UNL     1       9.978  -2.079  23.528  0.00  0.00    +0.000 C 
ATOM      9  C   UNL     1      10.525  -0.838  23.261  0.00  0.00    +0.000 C 
BRANCH   4  11
ATOM     10  C   UNL     1       9.984   2.531  23.783  0.00  0.00    +0.000 C 
ATOM     11  O   UNL     1      10.855   1.447  24.025  0.00  0.00    +0.000 OA
ENDBRANCH   4  11
ENDBRANCH   1   7
BRANCH   1  12
ATOM     12  N   UNL     1       7.276  -4.179  24.203  0.00  0.00    +0.000 NA
ATOM     13  C   UNL     1       7.372  -4.272  22.764  0.00  0.00    +0.000 C 
ATOM     14  C   UNL     1       6.400  -3.294  22.083  0.00  0.00    +0.000 C 
ATOM     15  N   UNL     1       6.335  -2.069  22.842  0.00  0.00    +0.000 NA
ATOM     16  C   UNL     1       5.747  -2.233  24.164  0.00  0.00    +0.000 C 
ATOM     17  C   UNL     1       6.045  -3.642  24.714  0.00  0.00    +0.000 C 
BRANCH  15  18
ATOM     18  C   UNL     1       6.835  -0.866  22.508  0.00  0.00    +0.000 C 
ATOM     19  O   UNL     1       6.733   0.106  23.236  0.00  0.00    +0.000 OA
BRANCH  18  20
ATOM     20  C   UNL     1       7.462  -0.702  21.129  0.00  0.00    +0.000 C 
ATOM     21 CL   UNL     1       8.386   0.809  20.937  0.00  0.00    +0.000 Cl
ENDBRANCH  18  20
ENDBRANCH  15  18
ENDBRANCH   1  12
TORSDOF 5
ENDMDL
MODEL 4
REMARK VINA RESULT:      -5.8      3.291      5.621
REMARK  Name = 
REMARK  6 active torsions:
REMARK  status: ('A' for Active; 'I' for Inactive)
REMARK    1  A    between atoms: C_1  and  O_2
REMARK    2  A    between atoms: O_2  and  C_3
REMARK    3  A    between atoms: C_6  and  S_7
REMARK    4  A    between atoms: S_7  and  N_10
REMARK    5  A    between atoms: N_13  and  C_14
REMARK    6  A    between atoms: C_14  and  C_16
REMARK                            x       y       z     vdW  Elec       q    Type
REMARK                         _______ _______ _______ _____ _____    ______ ____
ROOT
ATOM      1  S   UNL     1       8.967  -2.178  23.257  0.00  0.00    +0.000 S 
ATOM      2  O   UNL     1       9.929  -3.075  23.827  0.00  0.00    +0.000 OA
ATOM      3  O   UNL     1       8.399  -2.470  21.976  0.00  0.00    +0.000 OA
ENDROOT
BRANCH   1   7
ATOM      4  C   UNL     1      10.487   2.104  23.282  0.00  0.00    +0.000 C 
ATOM      5  C   UNL     1      10.010   1.535  22.095  0.00  0.00    +0.000 C 
ATOM      6  C   UNL     1       9.584   0.225  22.074  0.00  0.00    +0.000 C 
ATOM      7  C   UNL     1       9.648  -0.530  23.232  0.00  0.00    +0.000 C 
ATOM      8  C   UNL     1      10.189  -0.006  24.388  0.00  0.00    +0.000 C 
ATOM      9  C   UNL     1      10.608   1.311  24.423  0.00  0.00    +0.000 C 
BRANCH   4  11
ATOM     10  C   UNL     1       9.936   4.343  23.831  0.00  0.00    +0.000 C 
ATOM     11  O   UNL     1      10.806   3.415  23.220  0.00  0.00    +0.000 OA
ENDBRANCH   4  11
ENDBRANCH   1   7
BRANCH   1  12
ATOM     12  N   UNL     1       7.685  -2.148  24.334  0.00  0.00    +0.000 NA
ATOM     13  C   UNL     1       7.705  -3.063  25.452  0.00  0.00    +0.000 C 
ATOM     14  C   UNL     1       6.406  -3.884  25.515  0.00  0.00    +0.000 C 
ATOM     15  N   UNL     1       5.971  -4.204  24.177  0.00  0.00    +0.000 NA
ATOM     16  C   UNL     1       5.573  -3.039  23.399  0.00  0.00    +0.000 C 
ATOM     17  C   UNL     1       6.384  -1.802  23.832  0.00  0.00    +0.000 C 
BRANCH  15  18
ATOM     18  C   UNL     1       5.993  -5.404  23.570  0.00  0.00    +0.000 C 
ATOM     19  O   UNL     1       5.295  -6.333  23.938  0.00  0.00    +0.000 OA
BRANCH  18  20
ATOM     20  C   UNL     1       6.997  -5.626  22.445  0.00  0.00    +0.000 C 
ATOM     21 CL   UNL     1       6.262  -5.646  20.823  0.00  0.00    +0.000 Cl
ENDBRANCH  18  20
ENDBRANCH  15  18
ENDBRANCH   1  12
TORSDOF 5
ENDMDL
MODEL 5
REMARK VINA RESULT:      -5.8      2.738      4.106
REMARK  Name = 
REMARK  6 active torsions:
REMARK  status: ('A' for Active; 'I' for Inactive)
REMARK    1  A    between atoms: C_1  and  O_2
REMARK    2  A    between atoms: O_2  and  C_3
REMARK    3  A    between atoms: C_6  and  S_7
REMARK    4  A    between atoms: S_7  and  N_10
REMARK    5  A    between atoms: N_13  and  C_14
REMARK    6  A    between atoms: C_14  and  C_16
REMARK                            x       y       z     vdW  Elec       q    Type
REMARK                         _______ _______ _______ _____ _____    ______ ____
ROOT
ATOM      1  S   UNL     1       9.244   0.923  24.197  0.00  0.00    +0.000 S 
ATOM      2  O   UNL     1       9.132   2.310  24.541  0.00  0.00    +0.000 OA
ATOM      3  O   UNL     1      10.515   0.271  24.287  0.00  0.00    +0.000 OA
ENDROOT
BRANCH   1   7
ATOM      4  C   UNL     1       7.717   0.425  19.946  0.00  0.00    +0.000 C 
ATOM      5  C   UNL     1       7.120   1.358  20.802  0.00  0.00    +0.000 C 
ATOM      6  C   UNL     1       7.554   1.486  22.103  0.00  0.00    +0.000 C 
ATOM      7  C   UNL     1       8.573   0.670  22.564  0.00  0.00    +0.000 C 
ATOM      8  C   UNL     1       9.115  -0.307  21.755  0.00  0.00    +0.000 C 
ATOM      9  C   UNL     1       8.695  -0.436  20.445  0.00  0.00    +0.000 C 
BRANCH   4  11
ATOM     10  C   UNL     1       5.908   0.179  18.434  0.00  0.00    +0.000 C 
ATOM     11  O   UNL     1       7.276   0.430  18.670  0.00  0.00    +0.000 OA
ENDBRANCH   4  11
ENDBRANCH   1   7
BRANCH   1  12
ATOM     12  N   UNL     1       8.234   0.112  25.258  0.00  0.00    +0.000 NA
ATOM     13  C   UNL     1       8.827  -0.563  26.391  0.00  0.00    +0.000 C 
ATOM     14  C   UNL     1       8.379  -2.033  26.452  0.00  0.00    +0.000 C 
ATOM     15  N   UNL     1       8.283  -2.565  25.114  0.00  0.00    +0.000 NA
ATOM     16  C   UNL     1       7.236  -1.947  24.314  0.00  0.00    +0.000 C 
ATOM     17  C   UNL     1       7.032  -0.479  24.737  0.00  0.00    +0.000 C 
BRANCH  15  18
ATOM     18  C   UNL     1       9.095  -3.461  24.525  0.00  0.00    +0.000 C 
ATOM     19  O   UNL     1      10.109  -3.131  23.934  0.00  0.00    +0.000 OA
BRANCH  18  20
ATOM     20  C   UNL     1       8.673  -4.925  24.520  0.00  0.00    +0.000 C 
ATOM     21 CL   UNL     1       7.653  -5.373  23.131  0.00  0.00    +0.000 Cl
ENDBRANCH  18  20
ENDBRANCH  15  18
ENDBRANCH   1  12
TORSDOF 5
ENDMDL
MODEL 6
REMARK VINA RESULT:      -5.6      3.834      6.047
REMARK  Name = 
REMARK  6 active torsions:
REMARK  status: ('A' for Active; 'I' for Inactive)
REMARK    1  A    between atoms: C_1  and  O_2
REMARK    2  A    between atoms: O_2  and  C_3
REMARK    3  A    between atoms: C_6  and  S_7
REMARK    4  A    between atoms: S_7  and  N_10
REMARK    5  A    between atoms: N_13  and  C_14
REMARK    6  A    between atoms: C_14  and  C_16
REMARK                            x       y       z     vdW  Elec       q    Type
REMARK                         _______ _______ _______ _____ _____    ______ ____
ROOT
ATOM      1  S   UNL     1       9.076  -2.297  24.383  0.00  0.00    +0.000 S 
ATOM      2  O   UNL     1       8.814  -2.353  25.791  0.00  0.00    +0.000 OA
ATOM      3  O   UNL     1      10.110  -3.114  23.823  0.00  0.00    +0.000 OA
ENDROOT
BRANCH   1   7
ATOM      4  C   UNL     1      10.022   1.986  23.194  0.00  0.00    +0.000 C 
ATOM      5  C   UNL     1       9.649   1.688  24.510  0.00  0.00    +0.000 C 
ATOM      6  C   UNL     1       9.324   0.397  24.867  0.00  0.00    +0.000 C 
ATOM      7  C   UNL     1       9.351  -0.600  23.908  0.00  0.00    +0.000 C 
ATOM      8  C   UNL     1       9.640  -0.307  22.591  0.00  0.00    +0.000 C 
ATOM      9  C   UNL     1       9.979   0.983  22.226  0.00  0.00    +0.000 C 
BRANCH   4  11
ATOM     10  C   UNL     1       9.963   4.259  23.860  0.00  0.00    +0.000 C 
ATOM     11  O   UNL     1      10.398   3.262  22.962  0.00  0.00    +0.000 OA
ENDBRANCH   4  11
ENDBRANCH   1   7
BRANCH   1  12
ATOM     12  N   UNL     1       7.656  -2.777  23.639  0.00  0.00    +0.000 NA
ATOM     13  C   UNL     1       6.402  -2.478  24.293  0.00  0.00    +0.000 C 
ATOM     14  C   UNL     1       5.547  -3.747  24.448  0.00  0.00    +0.000 C 
ATOM     15  N   UNL     1       6.399  -4.872  24.745  0.00  0.00    +0.000 NA
ATOM     16  C   UNL     1       7.297  -5.226  23.654  0.00  0.00    +0.000 C 
ATOM     17  C   UNL     1       7.676  -3.972  22.842  0.00  0.00    +0.000 C 
BRANCH  15  18
ATOM     18  C   UNL     1       6.517  -5.531  25.911  0.00  0.00    +0.000 C 
ATOM     19  O   UNL     1       7.599  -5.758  26.425  0.00  0.00    +0.000 OA
BRANCH  18  20
ATOM     20  C   UNL     1       5.255  -6.092  26.554  0.00  0.00    +0.000 C 
ATOM     21 CL   UNL     1       4.322  -7.168  25.484  0.00  0.00    +0.000 Cl
ENDBRANCH  18  20
ENDBRANCH  15  18
ENDBRANCH   1  12
TORSDOF 5
ENDMDL
MODEL 7
REMARK VINA RESULT:      -5.6      3.560      5.077
REMARK  Name = 
REMARK  6 active torsions:
REMARK  status: ('A' for Active; 'I' for Inactive)
REMARK    1  A    between atoms: C_1  and  O_2
REMARK    2  A    between atoms: O_2  and  C_3
REMARK    3  A    between atoms: C_6  and  S_7
REMARK    4  A    between atoms: S_7  and  N_10
REMARK    5  A    between atoms: N_13  and  C_14
REMARK    6  A    between atoms: C_14  and  C_16
REMARK                            x       y       z     vdW  Elec       q    Type
REMARK                         _______ _______ _______ _____ _____    ______ ____
ROOT
ATOM      1  S   UNL     1       8.632  -2.690  24.032  0.00  0.00    +0.000 S 
ATOM      2  O   UNL     1       8.035  -2.425  22.756  0.00  0.00    +0.000 OA
ATOM      3  O   UNL     1       9.998  -3.114  24.099  0.00  0.00    +0.000 OA
ENDROOT
BRANCH   1   7
ATOM      4  C   UNL     1       6.203  -5.834  26.237  0.00  0.00    +0.000 C 
ATOM      5  C   UNL     1       5.833  -5.438  24.947  0.00  0.00    +0.000 C 
ATOM      6  C   UNL     1       6.543  -4.457  24.289  0.00  0.00    +0.000 C 
ATOM      7  C   UNL     1       7.615  -3.854  24.922  0.00  0.00    +0.000 C 
ATOM      8  C   UNL     1       7.943  -4.179  26.222  0.00  0.00    +0.000 C 
ATOM      9  C   UNL     1       7.244  -5.170  26.886  0.00  0.00    +0.000 C 
BRANCH   4  11
ATOM     10  C   UNL     1       5.095  -6.762  28.115  0.00  0.00    +0.000 C 
ATOM     11  O   UNL     1       5.496  -6.856  26.765  0.00  0.00    +0.000 OA
ENDBRANCH   4  11
ENDBRANCH   1   7
BRANCH   1  12
ATOM     12  N   UNL     1       8.556  -1.246  24.875  0.00  0.00    +0.000 NA
ATOM     13  C   UNL     1       7.420  -0.380  24.654  0.00  0.00    +0.000 C 
ATOM     14  C   UNL     1       7.876   1.042  24.287  0.00  0.00    +0.000 C 
ATOM     15  N   UNL     1       9.052   0.973  23.455  0.00  0.00    +0.000 NA
ATOM     16  C   UNL     1      10.219   0.432  24.138  0.00  0.00    +0.000 C 
ATOM     17  C   UNL     1       9.788  -0.588  25.210  0.00  0.00    +0.000 C 
BRANCH  15  18
ATOM     18  C   UNL     1       9.149   1.248  22.142  0.00  0.00    +0.000 C 
ATOM     19  O   UNL     1      10.177   1.667  21.639  0.00  0.00    +0.000 OA
BRANCH  18  20
ATOM     20  C   UNL     1       7.898   1.119  21.282  0.00  0.00    +0.000 C 
ATOM     21 CL   UNL     1       8.076  -0.019  19.923  0.00  0.00    +0.000 Cl
ENDBRANCH  18  20
ENDBRANCH  15  18
ENDBRANCH   1  12
TORSDOF 5
ENDMDL
MODEL 8
REMARK VINA RESULT:      -5.6      3.086      5.623
REMARK  Name = 
REMARK  6 active torsions:
REMARK  status: ('A' for Active; 'I' for Inactive)
REMARK    1  A    between atoms: C_1  and  O_2
REMARK    2  A    between atoms: O_2  and  C_3
REMARK    3  A    between atoms: C_6  and  S_7
REMARK    4  A    between atoms: S_7  and  N_10
REMARK    5  A    between atoms: N_13  and  C_14
REMARK    6  A    between atoms: C_14  and  C_16
REMARK                            x       y       z     vdW  Elec       q    Type
REMARK                         _______ _______ _______ _____ _____    ______ ____
ROOT
ATOM      1  S   UNL     1       8.628  -0.485  21.522  0.00  0.00    +0.000 S 
ATOM      2  O   UNL     1       9.611  -1.439  21.946  0.00  0.00    +0.000 OA
ATOM      3  O   UNL     1       8.348  -0.330  20.126  0.00  0.00    +0.000 OA
ENDROOT
BRANCH   1   7
ATOM      4  C   UNL     1       9.536   3.496  23.514  0.00  0.00    +0.000 C 
ATOM      5  C   UNL     1       8.391   3.352  22.723  0.00  0.00    +0.000 C 
ATOM      6  C   UNL     1       8.131   2.158  22.086  0.00  0.00    +0.000 C 
ATOM      7  C   UNL     1       9.022   1.108  22.219  0.00  0.00    +0.000 C 
ATOM      8  C   UNL     1      10.194   1.262  22.931  0.00  0.00    +0.000 C 
ATOM      9  C   UNL     1      10.457   2.451  23.584  0.00  0.00    +0.000 C 
BRANCH   4  11
ATOM     10  C   UNL     1      10.713   5.536  23.781  0.00  0.00    +0.000 C 
ATOM     11  O   UNL     1       9.661   4.676  24.160  0.00  0.00    +0.000 OA
ENDBRANCH   4  11
ENDBRANCH   1   7
BRANCH   1  12
ATOM     12  N   UNL     1       7.191  -0.974  22.229  0.00  0.00    +0.000 NA
ATOM     13  C   UNL     1       7.087  -0.941  23.670  0.00  0.00    +0.000 C 
ATOM     14  C   UNL     1       6.632  -2.302  24.220  0.00  0.00    +0.000 C 
ATOM     15  N   UNL     1       7.232  -3.362  23.447  0.00  0.00    +0.000 NA
ATOM     16  C   UNL     1       6.773  -3.408  22.066  0.00  0.00    +0.000 C 
ATOM     17  C   UNL     1       6.421  -1.992  21.570  0.00  0.00    +0.000 C 
BRANCH  15  18
ATOM     18  C   UNL     1       8.207  -4.208  23.827  0.00  0.00    +0.000 C 
ATOM     19  O   UNL     1       8.249  -5.365  23.446  0.00  0.00    +0.000 OA
BRANCH  18  20
ATOM     20  C   UNL     1       9.232  -3.720  24.843  0.00  0.00    +0.000 C 
ATOM     21 CL   UNL     1       8.988  -4.379  26.480  0.00  0.00    +0.000 Cl
ENDBRANCH  18  20
ENDBRANCH  15  18
ENDBRANCH   1  12
TORSDOF 5
ENDMDL
MODEL 9
REMARK VINA RESULT:      -5.6      3.390      4.799
REMARK  Name = 
REMARK  6 active torsions:
REMARK  status: ('A' for Active; 'I' for Inactive)
REMARK    1  A    between atoms: C_1  and  O_2
REMARK    2  A    between atoms: O_2  and  C_3
REMARK    3  A    between atoms: C_6  and  S_7
REMARK    4  A    between atoms: S_7  and  N_10
REMARK    5  A    between atoms: N_13  and  C_14
REMARK    6  A    between atoms: C_14  and  C_16
REMARK                            x       y       z     vdW  Elec       q    Type
REMARK                         _______ _______ _______ _____ _____    ______ ____
ROOT
ATOM      1  S   UNL     1       8.842  -2.705  24.132  0.00  0.00    +0.000 S 
ATOM      2  O   UNL     1      10.152  -3.240  23.901  0.00  0.00    +0.000 OA
ATOM      3  O   UNL     1       8.599  -1.905  25.294  0.00  0.00    +0.000 OA
ENDROOT
BRANCH   1   7
ATOM      4  C   UNL     1       5.645  -5.927  23.907  0.00  0.00    +0.000 C 
ATOM      5  C   UNL     1       5.916  -5.289  25.124  0.00  0.00    +0.000 C 
ATOM      6  C   UNL     1       6.910  -4.339  25.206  0.00  0.00    +0.000 C 
ATOM      7  C   UNL     1       7.653  -4.033  24.079  0.00  0.00    +0.000 C 
ATOM      8  C   UNL     1       7.450  -4.710  22.894  0.00  0.00    +0.000 C 
ATOM      9  C   UNL     1       6.447  -5.657  22.798  0.00  0.00    +0.000 C 
BRANCH   4  11
ATOM     10  C   UNL     1       4.053  -7.164  25.153  0.00  0.00    +0.000 C 
ATOM     11  O   UNL     1       4.601  -6.784  23.910  0.00  0.00    +0.000 OA
ENDBRANCH   4  11
ENDBRANCH   1   7
BRANCH   1  12
ATOM     12  N   UNL     1       8.517  -1.720  22.818  0.00  0.00    +0.000 NA
ATOM     13  C   UNL     1       9.597  -1.408  21.910  0.00  0.00    +0.000 C 
ATOM     14  C   UNL     1       9.730   0.112  21.716  0.00  0.00    +0.000 C 
ATOM     15  N   UNL     1       9.463   0.784  22.964  0.00  0.00    +0.000 NA
ATOM     16  C   UNL     1       8.088   0.642  23.420  0.00  0.00    +0.000 C 
ATOM     17  C   UNL     1       7.506  -0.709  22.960  0.00  0.00    +0.000 C 
BRANCH  15  18
ATOM     18  C   UNL     1      10.342   1.413  23.765  0.00  0.00    +0.000 C 
ATOM     19  O   UNL     1      10.865   0.861  24.717  0.00  0.00    +0.000 OA
BRANCH  18  20
ATOM     20  C   UNL     1      10.613   2.892  23.520  0.00  0.00    +0.000 C 
ATOM     21 CL   UNL     1       9.363   3.970  24.190  0.00  0.00    +0.000 Cl
ENDBRANCH  18  20
ENDBRANCH  15  18
ENDBRANCH   1  12
TORSDOF 5
ENDMDL
