MODEL 1
REMARK VINA RESULT:      -6.1      0.000      0.000
REMARK  Name = 
REMARK  5 active torsions:
REMARK  status: ('A' for Active; 'I' for Inactive)
REMARK    1  A    between atoms: C_1  and  C_2
REMARK    2  A    between atoms: C_7  and  C_8
REMARK    3  A    between atoms: C_8  and  N_9
REMARK    4  A    between atoms: N_12  and  C_13
REMARK    5  A    between atoms: C_13  and  C_15
REMARK                            x       y       z     vdW  Elec       q    Type
REMARK                         _______ _______ _______ _____ _____    ______ ____
ROOT
ATOM      1  N   UNL     1       9.038  -2.604  24.531  0.00  0.00    +0.000 NA
ATOM      2  C   UNL     1       9.409  -4.000  24.658  0.00  0.00    +0.000 C 
ATOM      3  C   UNL     1       9.341  -4.412  26.131  0.00  0.00    +0.000 C 
ATOM      4  N   UNL     1       8.004  -4.190  26.629  0.00  0.00    +0.000 NA
ATOM      5  C   UNL     1       7.590  -2.810  26.473  0.00  0.00    +0.000 C 
ATOM      6  C   UNL     1       7.679  -2.407  25.003  0.00  0.00    +0.000 C 
ENDROOT
BRANCH   4   7
ATOM      7  C   UNL     1       7.103  -5.110  27.019  0.00  0.00    +0.000 C 
ATOM      8  O   UNL     1       7.320  -5.904  27.915  0.00  0.00    +0.000 OA
BRANCH   7   9
ATOM      9  C   UNL     1       5.768  -5.146  26.283  0.00  0.00    +0.000 C 
ATOM     10 CL   UNL     1       5.994  -5.540  24.558  0.00  0.00    +0.000 Cl
ENDBRANCH   7   9
ENDBRANCH   4   7
BRANCH   1  11
ATOM     11  C   UNL     1       9.231  -2.100  23.178  0.00  0.00    +0.000 C 
BRANCH  11  18
ATOM     12  C   UNL     1       8.767  -0.373  20.849  0.00  0.00    +0.000 C 
ATOM     13  C   UNL     1       9.453   0.158  22.071  0.00  0.00    +0.000 C 
ATOM     14  C   UNL     1       9.886   1.476  22.113  0.00  0.00    +0.000 C 
ATOM     15  C   UNL     1      10.540   1.983  23.222  0.00  0.00    +0.000 C 
ATOM     16  C   UNL     1      10.770   1.167  24.314  0.00  0.00    +0.000 C 
ATOM     17  C   UNL     1      10.338  -0.148  24.287  0.00  0.00    +0.000 C 
ATOM     18  C   UNL     1       9.683  -0.664  23.178  0.00  0.00    +0.000 C 
ENDBRANCH  11  18
ENDBRANCH   1  11
TORSDOF 4
ENDMDL
MODEL 2
REMARK VINA RESULT:      -6.1      1.222      1.341
REMARK  Name = 
REMARK  5 active torsions:
REMARK  status: ('A' for Active; 'I' for Inactive)
REMARK    1  A    between atoms: C_1  and  C_2
REMARK    2  A    between atoms: C_7  and  C_8
REMARK    3  A    between atoms: C_8  and  N_9
REMARK    4  A    between atoms: N_12  and  C_13
REMARK    5  A    between atoms: C_13  and  C_15
REMARK                            x       y       z     vdW  Elec       q    Type
REMARK                         _______ _______ _______ _____ _____    ______ ____
ROOT
ATOM      1  N   UNL     1       8.847  -2.410  23.901  0.00  0.00    +0.000 NA
ATOM      2  C   UNL     1       9.329  -3.592  24.588  0.00  0.00    +0.000 C 
ATOM      3  C   UNL     1       8.383  -3.930  25.743  0.00  0.00    +0.000 C 
ATOM      4  N   UNL     1       7.053  -4.146  25.225  0.00  0.00    +0.000 NA
ATOM      5  C   UNL     1       6.563  -2.995  24.494  0.00  0.00    +0.000 C 
ATOM      6  C   UNL     1       7.524  -2.657  23.356  0.00  0.00    +0.000 C 
ENDROOT
BRANCH   4   7
ATOM      7  C   UNL     1       6.354  -5.295  25.194  0.00  0.00    +0.000 C 
ATOM      8  O   UNL     1       6.373  -6.101  26.104  0.00  0.00    +0.000 OA
BRANCH   7   9
ATOM      9  C   UNL     1       5.519  -5.579  23.950  0.00  0.00    +0.000 C 
ATOM     10 CL   UNL     1       6.552  -6.056  22.577  0.00  0.00    +0.000 Cl
ENDBRANCH   7   9
ENDBRANCH   4   7
BRANCH   1  11
ATOM     11  C   UNL     1       9.781  -1.937  22.887  0.00  0.00    +0.000 C 
BRANCH  11  18
ATOM     12  C   UNL     1       8.768  -0.226  20.727  0.00  0.00    +0.000 C 
ATOM     13  C   UNL     1       9.460   0.370  21.915  0.00  0.00    +0.000 C 
ATOM     14  C   UNL     1       9.637   1.745  22.004  0.00  0.00    +0.000 C 
ATOM     15  C   UNL     1      10.290   2.316  23.082  0.00  0.00    +0.000 C 
ATOM     16  C   UNL     1      10.778   1.511  24.094  0.00  0.00    +0.000 C 
ATOM     17  C   UNL     1      10.603   0.140  24.019  0.00  0.00    +0.000 C 
ATOM     18  C   UNL     1       9.951  -0.442  22.941  0.00  0.00    +0.000 C 
ENDBRANCH  11  18
ENDBRANCH   1  11
TORSDOF 4
ENDMDL
MODEL 3
REMARK VINA RESULT:      -5.9      1.302      2.337
REMARK  Name = 
REMARK  5 active torsions:
REMARK  status: ('A' for Active; 'I' for Inactive)
REMARK    1  A    between atoms: C_1  and  C_2
REMARK    2  A    between atoms: C_7  and  C_8
REMARK    3  A    between atoms: C_8  and  N_9
REMARK    4  A    between atoms: N_12  and  C_13
REMARK    5  A    between atoms: C_13  and  C_15
REMARK                            x       y       z     vdW  Elec       q    Type
REMARK                         _______ _______ _______ _____ _____    ______ ____
ROOT
ATOM      1  N   UNL     1       8.614  -2.970  24.376  0.00  0.00    +0.000 NA
ATOM      2  C   UNL     1       8.263  -2.595  25.732  0.00  0.00    +0.000 C 
ATOM      3  C   UNL     1       6.855  -3.102  26.052  0.00  0.00    +0.000 C 
ATOM      4  N   UNL     1       6.814  -4.536  25.891  0.00  0.00    +0.000 NA
ATOM      5  C   UNL     1       7.204  -4.942  24.555  0.00  0.00    +0.000 C 
ATOM      6  C   UNL     1       8.602  -4.415  24.241  0.00  0.00    +0.000 C 
ENDROOT
BRANCH   4   7
ATOM      7  C   UNL     1       6.646  -5.471  26.843  0.00  0.00    +0.000 C 
ATOM      8  O   UNL     1       7.508  -5.743  27.658  0.00  0.00    +0.000 OA
BRANCH   7   9
ATOM      9  C   UNL     1       5.316  -6.215  26.873  0.00  0.00    +0.000 C 
ATOM     10 CL   UNL     1       3.978  -5.124  27.322  0.00  0.00    +0.000 Cl
ENDBRANCH   7   9
ENDBRANCH   4   7
BRANCH   1  11
ATOM     11  C   UNL     1       9.878  -2.386  23.947  0.00  0.00    +0.000 C 
BRANCH  11  18
ATOM     12  C   UNL     1      10.605   0.298  24.888  0.00  0.00    +0.000 C 
ATOM     13  C   UNL     1      10.021   0.098  23.523  0.00  0.00    +0.000 C 
ATOM     14  C   UNL     1       9.809   1.186  22.686  0.00  0.00    +0.000 C 
ATOM     15  C   UNL     1       9.254   1.027  21.429  0.00  0.00    +0.000 C 
ATOM     16  C   UNL     1       8.900  -0.235  20.989  0.00  0.00    +0.000 C 
ATOM     17  C   UNL     1       9.111  -1.328  21.812  0.00  0.00    +0.000 C 
ATOM     18  C   UNL     1       9.666  -1.178  23.075  0.00  0.00    +0.000 C 
ENDBRANCH  11  18
ENDBRANCH   1  11
TORSDOF 4
ENDMDL
MODEL 4
REMARK VINA RESULT:      -5.7      2.553      3.375
REMARK  Name = 
REMARK  5 active torsions:
REMARK  status: ('A' for Active; 'I' for Inactive)
REMARK    1  A    between atoms: C_1  and  C_2
REMARK    2  A    between atoms: C_7  and  C_8
REMARK    3  A    between atoms: C_8  and  N_9
REMARK    4  A    between atoms: N_12  and  C_13
REMARK    5  A    between atoms: C_13  and  C_15
REMARK                            x       y       z     vdW  Elec       q    Type
REMARK                         _______ _______ _______ _____ _____    ______ ____
ROOT
ATOM      1  N   UNL     1       7.826  -2.070  23.248  0.00  0.00    +0.000 NA
ATOM      2  C   UNL     1       7.405  -2.845  24.400  0.00  0.00    +0.000 C 
ATOM      3  C   UNL     1       5.877  -2.923  24.429  0.00  0.00    +0.000 C 
ATOM      4  N   UNL     1       5.405  -3.527  23.206  0.00  0.00    +0.000 NA
ATOM      5  C   UNL     1       5.849  -2.798  22.035  0.00  0.00    +0.000 C 
ATOM      6  C   UNL     1       7.373  -2.711  22.027  0.00  0.00    +0.000 C 
ENDROOT
BRANCH   4   7
ATOM      7  C   UNL     1       4.799  -4.718  23.052  0.00  0.00    +0.000 C 
ATOM      8  O   UNL     1       3.621  -4.825  22.768  0.00  0.00    +0.000 OA
BRANCH   7   9
ATOM      9  C   UNL     1       5.643  -5.971  23.259  0.00  0.00    +0.000 C 
ATOM     10 CL   UNL     1       6.661  -6.305  21.833  0.00  0.00    +0.000 Cl
ENDBRANCH   7   9
ENDBRANCH   4   7
BRANCH   1  11
ATOM     11  C   UNL     1       9.261  -1.821  23.241  0.00  0.00    +0.000 C 
BRANCH  11  18
ATOM     12  C   UNL     1       9.547  -0.262  25.712  0.00  0.00    +0.000 C 
ATOM     13  C   UNL     1       9.714   0.389  24.374  0.00  0.00    +0.000 C 
ATOM     14  C   UNL     1      10.000   1.745  24.286  0.00  0.00    +0.000 C 
ATOM     15  C   UNL     1      10.140   2.372  23.061  0.00  0.00    +0.000 C 
ATOM     16  C   UNL     1       9.994   1.641  21.896  0.00  0.00    +0.000 C 
ATOM     17  C   UNL     1       9.714   0.288  21.970  0.00  0.00    +0.000 C 
ATOM     18  C   UNL     1       9.571  -0.348  23.195  0.00  0.00    +0.000 C 
ENDBRANCH  11  18
ENDBRANCH   1  11
TORSDOF 4
ENDMDL
MODEL 5
REMARK VINA RESULT:      -5.6      2.659      3.356
REMARK  Name = 
REMARK  5 active torsions:
REMARK  status: ('A' for Active; 'I' for Inactive)
REMARK    1  A    between atoms: C_1  and  C_2
REMARK    2  A    between atoms: C_7  and  C_8
REMARK    3  A    between atoms: C_8  and  N_9
REMARK    4  A    between atoms: N_12  and  C_13
REMARK    5  A    between atoms: C_13  and  C_15
REMARK                            x       y       z     vdW  Elec       q    Type
REMARK                         _______ _______ _______ _____ _____    ______ ____
ROOT
ATOM      1  N   UNL     1       8.287  -0.793  22.177  0.00  0.00    +0.000 NA
ATOM      2  C   UNL     1       9.309  -1.783  22.458  0.00  0.00    +0.000 C 
ATOM      3  C   UNL     1       8.778  -2.782  23.489  0.00  0.00    +0.000 C 
ATOM      4  N   UNL     1       7.584  -3.410  22.976  0.00  0.00    +0.000 NA
ATOM      5  C   UNL     1       6.561  -2.439  22.645  0.00  0.00    +0.000 C 
ATOM      6  C   UNL     1       7.108  -1.438  21.630  0.00  0.00    +0.000 C 
ENDROOT
BRANCH   4   7
ATOM      7  C   UNL     1       7.411  -4.697  22.625  0.00  0.00    +0.000 C 
ATOM      8  O   UNL     1       8.120  -5.594  23.041  0.00  0.00    +0.000 OA
BRANCH   7   9
ATOM      9  C   UNL     1       6.280  -5.017  21.654  0.00  0.00    +0.000 C 
ATOM     10 CL   UNL     1       4.886  -5.737  22.503  0.00  0.00    +0.000 Cl
ENDBRANCH   7   9
ENDBRANCH   4   7
BRANCH   1  11
ATOM     11  C   UNL     1       8.776   0.281  21.322  0.00  0.00    +0.000 C 
BRANCH  11  18
ATOM     12  C   UNL     1       6.617   2.254  21.578  0.00  0.00    +0.000 C 
ATOM     13  C   UNL     1       7.949   2.490  22.220  0.00  0.00    +0.000 C 
ATOM     14  C   UNL     1       8.182   3.654  22.941  0.00  0.00    +0.000 C 
ATOM     15  C   UNL     1       9.411   3.903  23.527  0.00  0.00    +0.000 C 
ATOM     16  C   UNL     1      10.432   2.980  23.397  0.00  0.00    +0.000 C 
ATOM     17  C   UNL     1      10.211   1.814  22.685  0.00  0.00    +0.000 C 
ATOM     18  C   UNL     1       8.982   1.557  22.093  0.00  0.00    +0.000 C 
ENDBRANCH  11  18
ENDBRANCH   1  11
TORSDOF 4
ENDMDL
MODEL 6
REMARK VINA RESULT:      -5.6      3.808      6.825
REMARK  Name = 
REMARK  5 active torsions:
REMARK  status: ('A' for Active; 'I' for Inactive)
REMARK    1  A    between atoms: C_1  and  C_2
REMARK    2  A    between atoms: C_7  and  C_8
REMARK    3  A    between atoms: C_8  and  N_9
REMARK    4  A    between atoms: N_12  and  C_13
REMARK    5  A    between atoms: C_13  and  C_15
REMARK                            x       y       z     vdW  Elec       q    Type
REMARK                         _______ _______ _______ _____ _____    ______ ____
ROOT
ATOM      1  N   UNL     1       8.504  -2.299  22.813  0.00  0.00    +0.000 NA
ATOM      2  C   UNL     1       9.789  -1.669  22.577  0.00  0.00    +0.000 C 
ATOM      3  C   UNL     1       9.652  -0.641  21.451  0.00  0.00    +0.000 C 
ATOM      4  N   UNL     1       8.660   0.342  21.818  0.00  0.00    +0.000 NA
ATOM      5  C   UNL     1       7.376  -0.266  22.102  0.00  0.00    +0.000 C 
ATOM      6  C   UNL     1       7.529  -1.302  23.214  0.00  0.00    +0.000 C 
ENDROOT
BRANCH   4   7
ATOM      7  C   UNL     1       8.847   1.647  22.084  0.00  0.00    +0.000 C 
ATOM      8  O   UNL     1       8.021   2.498  21.817  0.00  0.00    +0.000 OA
BRANCH   7   9
ATOM      9  C   UNL     1      10.164   2.051  22.739  0.00  0.00    +0.000 C 
ATOM     10 CL   UNL     1      10.251   1.468  24.423  0.00  0.00    +0.000 Cl
ENDBRANCH   7   9
ENDBRANCH   4   7
BRANCH   1  11
ATOM     11  C   UNL     1       8.592  -3.399  23.764  0.00  0.00    +0.000 C 
BRANCH  11  18
ATOM     12  C   UNL     1       6.811  -4.059  26.002  0.00  0.00    +0.000 C 
ATOM     13  C   UNL     1       6.609  -4.682  24.655  0.00  0.00    +0.000 C 
ATOM     14  C   UNL     1       5.578  -5.589  24.451  0.00  0.00    +0.000 C 
ATOM     15  C   UNL     1       5.384  -6.192  23.220  0.00  0.00    +0.000 C 
ATOM     16  C   UNL     1       6.229  -5.891  22.169  0.00  0.00    +0.000 C 
ATOM     17  C   UNL     1       7.258  -4.985  22.358  0.00  0.00    +0.000 C 
ATOM     18  C   UNL     1       7.460  -4.377  23.589  0.00  0.00    +0.000 C 
ENDBRANCH  11  18
ENDBRANCH   1  11
TORSDOF 4
ENDMDL
MODEL 7
REMARK VINA RESULT:      -5.6      3.553      6.704
REMARK  Name = 
REMARK  5 active torsions:
REMARK  status: ('A' for Active; 'I' for Inactive)
REMARK    1  A    between atoms: C_1  and  C_2
REMARK    2  A    between atoms: C_7  and  C_8
REMARK    3  A    between atoms: C_8  and  N_9
REMARK    4  A    between atoms: N_12  and  C_13
REMARK    5  A    between atoms: C_13  and  C_15
REMARK                            x       y       z     vdW  Elec       q    Type
REMARK                         _______ _______ _______ _____ _____    ______ ____
ROOT
ATOM      1  N   UNL     1       8.058  -3.077  23.655  0.00  0.00    +0.000 NA
ATOM      2  C   UNL     1       7.211  -2.495  22.632  0.00  0.00    +0.000 C 
ATOM      3  C   UNL     1       7.070  -0.992  22.884  0.00  0.00    +0.000 C 
ATOM      4  N   UNL     1       8.377  -0.380  22.875  0.00  0.00    +0.000 NA
ATOM      5  C   UNL     1       9.259  -0.974  23.859  0.00  0.00    +0.000 C 
ATOM      6  C   UNL     1       9.378  -2.476  23.608  0.00  0.00    +0.000 C 
ENDROOT
BRANCH   4   7
ATOM      7  C   UNL     1       8.877   0.492  21.980  0.00  0.00    +0.000 C 
ATOM      8  O   UNL     1      10.047   0.823  21.966  0.00  0.00    +0.000 OA
BRANCH   7   9
ATOM      9  C   UNL     1       7.911   1.085  20.960  0.00  0.00    +0.000 C 
ATOM     10 CL   UNL     1       7.821   0.073  19.494  0.00  0.00    +0.000 Cl
ENDBRANCH   7   9
ENDBRANCH   4   7
BRANCH   1  11
ATOM     11  C   UNL     1       8.110  -4.531  23.571  0.00  0.00    +0.000 C 
BRANCH  11  18
ATOM     12  C   UNL     1       6.256  -5.985  21.820  0.00  0.00    +0.000 C 
ATOM     13  C   UNL     1       5.986  -5.865  23.288  0.00  0.00    +0.000 C 
ATOM     14  C   UNL     1       4.846  -6.436  23.839  0.00  0.00    +0.000 C 
ATOM     15  C   UNL     1       4.566  -6.321  25.189  0.00  0.00    +0.000 C 
ATOM     16  C   UNL     1       5.431  -5.626  26.012  0.00  0.00    +0.000 C 
ATOM     17  C   UNL     1       6.574  -5.057  25.476  0.00  0.00    +0.000 C 
ATOM     18  C   UNL     1       6.862  -5.166  24.123  0.00  0.00    +0.000 C 
ENDBRANCH  11  18
ENDBRANCH   1  11
TORSDOF 4
ENDMDL
MODEL 8
REMARK VINA RESULT:      -5.5      3.840      6.777
REMARK  Name = 
REMARK  5 active torsions:
REMARK  status: ('A' for Active; 'I' for Inactive)
REMARK    1  A    between atoms: C_1  and  C_2
REMARK    2  A    between atoms: C_7  and  C_8
REMARK    3  A    between atoms: C_8  and  N_9
REMARK    4  A    between atoms: N_12  and  C_13
REMARK    5  A    between atoms: C_13  and  C_15
REMARK                            x       y       z     vdW  Elec       q    Type
REMARK                         _______ _______ _______ _____ _____    ______ ____
ROOT
ATOM      1  N   UNL     1       8.093  -3.039  23.563  0.00  0.00    +0.000 NA
ATOM      2  C   UNL     1       7.642  -2.099  22.556  0.00  0.00    +0.000 C 
ATOM      3  C   UNL     1       7.643  -0.685  23.143  0.00  0.00    +0.000 C 
ATOM      4  N   UNL     1       8.974  -0.354  23.593  0.00  0.00    +0.000 NA
ATOM      5  C   UNL     1       9.468  -1.304  24.569  0.00  0.00    +0.000 C 
ATOM      6  C   UNL     1       9.445  -2.712  23.978  0.00  0.00    +0.000 C 
ENDROOT
BRANCH   4   7
ATOM      7  C   UNL     1       9.810   0.572  23.091  0.00  0.00    +0.000 C 
ATOM      8  O   UNL     1       9.995   0.715  21.897  0.00  0.00    +0.000 OA
BRANCH   7   9
ATOM      9  C   UNL     1      10.555   1.461  24.082  0.00  0.00    +0.000 C 
ATOM     10 CL   UNL     1      10.873   3.073  23.389  0.00  0.00    +0.000 Cl
ENDBRANCH   7   9
ENDBRANCH   4   7
BRANCH   1  11
ATOM     11  C   UNL     1       7.970  -4.423  23.125  0.00  0.00    +0.000 C 
BRANCH  11  18
ATOM     12  C   UNL     1       5.864  -5.826  21.636  0.00  0.00    +0.000 C 
ATOM     13  C   UNL     1       5.862  -5.812  23.134  0.00  0.00    +0.000 C 
ATOM     14  C   UNL     1       4.855  -6.459  23.839  0.00  0.00    +0.000 C 
ATOM     15  C   UNL     1       4.822  -6.443  25.222  0.00  0.00    +0.000 C 
ATOM     16  C   UNL     1       5.806  -5.773  25.924  0.00  0.00    +0.000 C 
ATOM     17  C   UNL     1       6.818  -5.129  25.233  0.00  0.00    +0.000 C 
ATOM     18  C   UNL     1       6.858  -5.138  23.846  0.00  0.00    +0.000 C 
ENDBRANCH  11  18
ENDBRANCH   1  11
TORSDOF 4
ENDMDL
MODEL 9
REMARK VINA RESULT:      -5.4      3.146      6.735
REMARK  Name = 
REMARK  5 active torsions:
REMARK  status: ('A' for Active; 'I' for Inactive)
REMARK    1  A    between atoms: C_1  and  C_2
REMARK    2  A    between atoms: C_7  and  C_8
REMARK    3  A    between atoms: C_8  and  N_9
REMARK    4  A    between atoms: N_12  and  C_13
REMARK    5  A    between atoms: C_13  and  C_15
REMARK                            x       y       z     vdW  Elec       q    Type
REMARK                         _______ _______ _______ _____ _____    ______ ____
ROOT
ATOM      1  N   UNL     1       8.372  -3.152  24.806  0.00  0.00    +0.000 NA
ATOM      2  C   UNL     1       9.703  -3.005  24.250  0.00  0.00    +0.000 C 
ATOM      3  C   UNL     1       9.722  -1.816  23.286  0.00  0.00    +0.000 C 
ATOM      4  N   UNL     1       9.327  -0.620  23.992  0.00  0.00    +0.000 NA
ATOM      5  C   UNL     1       8.017  -0.756  24.596  0.00  0.00    +0.000 C 
ATOM      6  C   UNL     1       8.006  -1.955  25.542  0.00  0.00    +0.000 C 
ENDROOT
BRANCH   4   7
ATOM      7  C   UNL     1      10.080   0.456  24.282  0.00  0.00    +0.000 C 
ATOM      8  O   UNL     1      11.022   0.414  25.049  0.00  0.00    +0.000 OA
BRANCH   7   9
ATOM      9  C   UNL     1       9.707   1.777  23.615  0.00  0.00    +0.000 C 
ATOM     10 CL   UNL     1      10.050   1.734  21.866  0.00  0.00    +0.000 Cl
ENDBRANCH   7   9
ENDBRANCH   4   7
BRANCH   1  11
ATOM     11  C   UNL     1       8.238  -4.358  25.612  0.00  0.00    +0.000 C 
BRANCH  11  18
ATOM     12  C   UNL     1       6.606  -5.616  27.704  0.00  0.00    +0.000 C 
ATOM     13  C   UNL     1       6.211  -5.716  26.263  0.00  0.00    +0.000 C 
ATOM     14  C   UNL     1       5.068  -6.414  25.897  0.00  0.00    +0.000 C 
ATOM     15  C   UNL     1       4.694  -6.535  24.571  0.00  0.00    +0.000 C 
ATOM     16  C   UNL     1       5.467  -5.954  23.584  0.00  0.00    +0.000 C 
ATOM     17  C   UNL     1       6.607  -5.251  23.936  0.00  0.00    +0.000 C 
ATOM     18  C   UNL     1       6.990  -5.125  25.263  0.00  0.00    +0.000 C 
ENDBRANCH  11  18
ENDBRANCH   1  11
TORSDOF 4
ENDMDL
