MODEL 1
REMARK VINA RESULT:      -6.4      0.000      0.000
REMARK  Name = 
REMARK  4 active torsions:
REMARK  status: ('A' for Active; 'I' for Inactive)
REMARK    1  A    between atoms: C_2  and  C_3
REMARK    2  A    between atoms: N_8  and  S_9
REMARK    3  A    between atoms: S_9  and  C_12
REMARK    4  A    between atoms: C_12  and  C_13
REMARK                            x       y       z     vdW  Elec       q    Type
REMARK                         _______ _______ _______ _____ _____    ______ ____
ROOT
ATOM      1  O   UNL     1       6.230   1.523  20.688  0.00  0.00    +0.000 OA
ATOM      2  C   UNL     1       7.193   0.795  20.444  0.00  0.00    +0.000 C 
ATOM      3  N   UNL     1       8.103   0.457  21.450  0.00  0.00    +0.000 N 
ATOM      4  C   UNL     1       7.744   0.787  22.831  0.00  0.00    +0.000 C 
ATOM      5  C   UNL     1       8.694   0.209  23.885  0.00  0.00    +0.000 C 
ATOM      6  N   UNL     1       9.045  -1.190  23.562  0.00  0.00    +0.000 NA
ATOM      7  C   UNL     1       9.506  -1.467  22.185  0.00  0.00    +0.000 C 
ATOM      8  C   UNL     1       9.376  -0.246  21.260  0.00  0.00    +0.000 C 
ENDROOT
BRANCH   6   9
ATOM      9  S   UNL     1       8.851  -2.425  24.658  0.00  0.00    +0.000 S 
ATOM     10  O   UNL     1       8.974  -1.849  25.980  0.00  0.00    +0.000 OA
ATOM     11  O   UNL     1       9.782  -3.477  24.244  0.00  0.00    +0.000 OA
BRANCH   9  12
ATOM     12  C   UNL     1       7.186  -3.121  24.520  0.00  0.00    +0.000 C 
BRANCH  12  13
ATOM     13  C   UNL     1       6.955  -3.956  23.290  0.00  0.00    +0.000 A 
ATOM     14  C   UNL     1       7.404  -5.281  23.251  0.00  0.00    +0.000 A 
ATOM     15  C   UNL     1       7.102  -6.101  22.159  0.00  0.00    +0.000 A 
ATOM     16  C   UNL     1       6.385  -5.594  21.084  0.00  0.00    +0.000 A 
ATOM     17  C   UNL     1       6.006  -4.252  21.074  0.00  0.00    +0.000 A 
ATOM     18  C   UNL     1       6.316  -3.431  22.159  0.00  0.00    +0.000 A 
ENDBRANCH  12  13
ENDBRANCH   9  12
ENDBRANCH   6   9
BRANCH   2  19
ATOM     19  C   UNL     1       7.451   0.214  19.064  0.00  0.00    +0.000 C 
ATOM     20 CL   UNL     1       5.943  -0.177  18.215  0.00  0.00    +0.000 Cl
ENDBRANCH   2  19
TORSDOF 4
ENDMDL
MODEL 2
REMARK VINA RESULT:      -6.3      1.425      1.921
REMARK  Name = 
REMARK  4 active torsions:
REMARK  status: ('A' for Active; 'I' for Inactive)
REMARK    1  A    between atoms: C_2  and  C_3
REMARK    2  A    between atoms: N_8  and  S_9
REMARK    3  A    between atoms: S_9  and  C_12
REMARK    4  A    between atoms: C_12  and  C_13
REMARK                            x       y       z     vdW  Elec       q    Type
REMARK                         _______ _______ _______ _____ _____    ______ ____
ROOT
ATOM      1  O   UNL     1       6.863   0.647  22.001  0.00  0.00    +0.000 OA
ATOM      2  C   UNL     1       7.928   0.044  21.864  0.00  0.00    +0.000 C 
ATOM      3  N   UNL     1       8.583  -0.507  22.970  0.00  0.00    +0.000 N 
ATOM      4  C   UNL     1       7.849  -0.559  24.237  0.00  0.00    +0.000 C 
ATOM      5  C   UNL     1       8.555  -1.353  25.342  0.00  0.00    +0.000 C 
ATOM      6  N   UNL     1       9.123  -2.607  24.803  0.00  0.00    +0.000 NA
ATOM      7  C   UNL     1       9.947  -2.501  23.581  0.00  0.00    +0.000 C 
ATOM      8  C   UNL     1       9.929  -1.089  22.974  0.00  0.00    +0.000 C 
ENDROOT
BRANCH   6   9
ATOM      9  S   UNL     1       8.789  -4.089  25.477  0.00  0.00    +0.000 S 
ATOM     10  O   UNL     1       8.923  -3.949  26.911  0.00  0.00    +0.000 OA
ATOM     11  O   UNL     1       9.634  -5.051  24.767  0.00  0.00    +0.000 OA
BRANCH   9  12
ATOM     12  C   UNL     1       7.074  -4.553  25.134  0.00  0.00    +0.000 C 
BRANCH  12  13
ATOM     13  C   UNL     1       6.716  -4.599  23.673  0.00  0.00    +0.000 A 
ATOM     14  C   UNL     1       6.164  -3.472  23.054  0.00  0.00    +0.000 A 
ATOM     15  C   UNL     1       5.927  -3.463  21.675  0.00  0.00    +0.000 A 
ATOM     16  C   UNL     1       6.203  -4.591  20.914  0.00  0.00    +0.000 A 
ATOM     17  C   UNL     1       6.674  -5.748  21.534  0.00  0.00    +0.000 A 
ATOM     18  C   UNL     1       6.900  -5.760  22.910  0.00  0.00    +0.000 A 
ENDBRANCH  12  13
ENDBRANCH   9  12
ENDBRANCH   6   9
BRANCH   2  19
ATOM     19  C   UNL     1       8.591  -0.151  20.510  0.00  0.00    +0.000 C 
ATOM     20 CL   UNL     1       7.481   0.204  19.171  0.00  0.00    +0.000 Cl
ENDBRANCH   2  19
TORSDOF 4
ENDMDL
MODEL 3
REMARK VINA RESULT:      -6.2      3.425      6.129
REMARK  Name = 
REMARK  4 active torsions:
REMARK  status: ('A' for Active; 'I' for Inactive)
REMARK    1  A    between atoms: C_2  and  C_3
REMARK    2  A    between atoms: N_8  and  S_9
REMARK    3  A    between atoms: S_9  and  C_12
REMARK    4  A    between atoms: C_12  and  C_13
REMARK                            x       y       z     vdW  Elec       q    Type
REMARK                         _______ _______ _______ _____ _____    ______ ____
ROOT
ATOM      1  O   UNL     1       3.154  -4.781  23.701  0.00  0.00    +0.000 OA
ATOM      2  C   UNL     1       4.170  -5.472  23.619  0.00  0.00    +0.000 C 
ATOM      3  N   UNL     1       5.305  -4.992  22.957  0.00  0.00    +0.000 N 
ATOM      4  C   UNL     1       5.330  -3.574  22.590  0.00  0.00    +0.000 C 
ATOM      5  C   UNL     1       6.679  -3.086  22.053  0.00  0.00    +0.000 C 
ATOM      6  N   UNL     1       7.792  -3.624  22.865  0.00  0.00    +0.000 NA
ATOM      7  C   UNL     1       7.790  -5.079  23.127  0.00  0.00    +0.000 C 
ATOM      8  C   UNL     1       6.507  -5.768  22.635  0.00  0.00    +0.000 C 
ENDROOT
BRANCH   6   9
ATOM      9  S   UNL     1       8.951  -2.641  23.537  0.00  0.00    +0.000 S 
ATOM     10  O   UNL     1       9.902  -3.498  24.213  0.00  0.00    +0.000 OA
ATOM     11  O   UNL     1       8.222  -1.630  24.306  0.00  0.00    +0.000 OA
BRANCH   9  12
ATOM     12  C   UNL     1       9.845  -1.757  22.235  0.00  0.00    +0.000 C 
BRANCH  12  13
ATOM     13  C   UNL     1       9.434  -0.320  22.056  0.00  0.00    +0.000 A 
ATOM     14  C   UNL     1       8.333  -0.004  21.252  0.00  0.00    +0.000 A 
ATOM     15  C   UNL     1       7.874   1.313  21.163  0.00  0.00    +0.000 A 
ATOM     16  C   UNL     1       8.533   2.328  21.843  0.00  0.00    +0.000 A 
ATOM     17  C   UNL     1       9.681   2.038  22.580  0.00  0.00    +0.000 A 
ATOM     18  C   UNL     1      10.144   0.725  22.660  0.00  0.00    +0.000 A 
ENDBRANCH  12  13
ENDBRANCH   9  12
ENDBRANCH   6   9
BRANCH   2  19
ATOM     19  C   UNL     1       4.268  -6.862  24.226  0.00  0.00    +0.000 C 
ATOM     20 CL   UNL     1       4.626  -6.803  25.963  0.00  0.00    +0.000 Cl
ENDBRANCH   2  19
TORSDOF 4
ENDMDL
MODEL 4
REMARK VINA RESULT:      -6.2      3.070      4.285
REMARK  Name = 
REMARK  4 active torsions:
REMARK  status: ('A' for Active; 'I' for Inactive)
REMARK    1  A    between atoms: C_2  and  C_3
REMARK    2  A    between atoms: N_8  and  S_9
REMARK    3  A    between atoms: S_9  and  C_12
REMARK    4  A    between atoms: C_12  and  C_13
REMARK                            x       y       z     vdW  Elec       q    Type
REMARK                         _______ _______ _______ _____ _____    ______ ____
ROOT
ATOM      1  O   UNL     1      11.214   0.891  24.535  0.00  0.00    +0.000 OA
ATOM      2  C   UNL     1      10.383   1.243  23.697  0.00  0.00    +0.000 C 
ATOM      3  N   UNL     1       9.823   0.314  22.815  0.00  0.00    +0.000 N 
ATOM      4  C   UNL     1      10.066  -1.107  23.080  0.00  0.00    +0.000 C 
ATOM      5  C   UNL     1       9.259  -2.060  22.192  0.00  0.00    +0.000 C 
ATOM      6  N   UNL     1       7.861  -1.596  22.061  0.00  0.00    +0.000 NA
ATOM      7  C   UNL     1       7.656  -0.180  21.688  0.00  0.00    +0.000 C 
ATOM      8  C   UNL     1       8.966   0.623  21.666  0.00  0.00    +0.000 C 
ENDROOT
BRANCH   6   9
ATOM      9  S   UNL     1       6.567  -2.582  22.399  0.00  0.00    +0.000 S 
ATOM     10  O   UNL     1       5.756  -2.652  21.203  0.00  0.00    +0.000 OA
ATOM     11  O   UNL     1       5.980  -2.061  23.636  0.00  0.00    +0.000 OA
BRANCH   9  12
ATOM     12  C   UNL     1       7.144  -4.258  22.765  0.00  0.00    +0.000 C 
BRANCH  12  13
ATOM     13  C   UNL     1       7.287  -4.567  24.231  0.00  0.00    +0.000 A 
ATOM     14  C   UNL     1       6.235  -5.182  24.920  0.00  0.00    +0.000 A 
ATOM     15  C   UNL     1       6.393  -5.573  26.253  0.00  0.00    +0.000 A 
ATOM     16  C   UNL     1       7.585  -5.318  26.918  0.00  0.00    +0.000 A 
ATOM     17  C   UNL     1       8.609  -4.629  26.267  0.00  0.00    +0.000 A 
ATOM     18  C   UNL     1       8.447  -4.231  24.940  0.00  0.00    +0.000 A 
ENDBRANCH  12  13
ENDBRANCH   9  12
ENDBRANCH   6   9
BRANCH   2  19
ATOM     19  C   UNL     1       9.907   2.681  23.569  0.00  0.00    +0.000 C 
ATOM     20 CL   UNL     1      11.259   3.811  23.357  0.00  0.00    +0.000 Cl
ENDBRANCH   2  19
TORSDOF 4
ENDMDL
MODEL 5
REMARK VINA RESULT:      -6.1      3.645      6.727
REMARK  Name = 
REMARK  4 active torsions:
REMARK  status: ('A' for Active; 'I' for Inactive)
REMARK    1  A    between atoms: C_2  and  C_3
REMARK    2  A    between atoms: N_8  and  S_9
REMARK    3  A    between atoms: S_9  and  C_12
REMARK    4  A    between atoms: C_12  and  C_13
REMARK                            x       y       z     vdW  Elec       q    Type
REMARK                         _______ _______ _______ _____ _____    ______ ____
ROOT
ATOM      1  O   UNL     1       4.239  -6.750  24.147  0.00  0.00    +0.000 OA
ATOM      2  C   UNL     1       5.134  -6.185  24.775  0.00  0.00    +0.000 C 
ATOM      3  N   UNL     1       6.186  -5.553  24.105  0.00  0.00    +0.000 N 
ATOM      4  C   UNL     1       6.059  -5.375  22.656  0.00  0.00    +0.000 C 
ATOM      5  C   UNL     1       7.153  -4.503  22.030  0.00  0.00    +0.000 C 
ATOM      6  N   UNL     1       7.417  -3.313  22.868  0.00  0.00    +0.000 NA
ATOM      7  C   UNL     1       7.645  -3.544  24.310  0.00  0.00    +0.000 C 
ATOM      8  C   UNL     1       7.397  -5.003  24.724  0.00  0.00    +0.000 C 
ENDROOT
BRANCH   6   9
ATOM      9  S   UNL     1       7.374  -1.771  22.250  0.00  0.00    +0.000 S 
ATOM     10  O   UNL     1       7.045  -0.880  23.342  0.00  0.00    +0.000 OA
ATOM     11  O   UNL     1       6.491  -1.832  21.083  0.00  0.00    +0.000 OA
BRANCH   9  12
ATOM     12  C   UNL     1       9.011  -1.302  21.639  0.00  0.00    +0.000 C 
BRANCH  12  13
ATOM     13  C   UNL     1       9.665  -0.177  22.394  0.00  0.00    +0.000 A 
ATOM     14  C   UNL     1       9.663   1.117  21.860  0.00  0.00    +0.000 A 
ATOM     15  C   UNL     1      10.169   2.191  22.598  0.00  0.00    +0.000 A 
ATOM     16  C   UNL     1      10.716   1.976  23.856  0.00  0.00    +0.000 A 
ATOM     17  C   UNL     1      10.800   0.679  24.363  0.00  0.00    +0.000 A 
ATOM     18  C   UNL     1      10.304  -0.393  23.622  0.00  0.00    +0.000 A 
ENDBRANCH  12  13
ENDBRANCH   9  12
ENDBRANCH   6   9
BRANCH   2  19
ATOM     19  C   UNL     1       5.156  -6.124  26.294  0.00  0.00    +0.000 C 
ATOM     20 CL   UNL     1       4.120  -4.826  26.921  0.00  0.00    +0.000 Cl
ENDBRANCH   2  19
TORSDOF 4
ENDMDL
MODEL 6
REMARK VINA RESULT:      -6.0      1.878      2.443
REMARK  Name = 
REMARK  4 active torsions:
REMARK  status: ('A' for Active; 'I' for Inactive)
REMARK    1  A    between atoms: C_2  and  C_3
REMARK    2  A    between atoms: N_8  and  S_9
REMARK    3  A    between atoms: S_9  and  C_12
REMARK    4  A    between atoms: C_12  and  C_13
REMARK                            x       y       z     vdW  Elec       q    Type
REMARK                         _______ _______ _______ _____ _____    ______ ____
ROOT
ATOM      1  O   UNL     1       5.586   2.336  20.649  0.00  0.00    +0.000 OA
ATOM      2  C   UNL     1       6.221   1.335  20.317  0.00  0.00    +0.000 C 
ATOM      3  N   UNL     1       7.455   1.045  20.908  0.00  0.00    +0.000 N 
ATOM      4  C   UNL     1       7.842   1.822  22.089  0.00  0.00    +0.000 C 
ATOM      5  C   UNL     1       9.105   1.313  22.791  0.00  0.00    +0.000 C 
ATOM      6  N   UNL     1       9.091  -0.163  22.890  0.00  0.00    +0.000 NA
ATOM      7  C   UNL     1       8.800  -0.916  21.652  0.00  0.00    +0.000 C 
ATOM      8  C   UNL     1       8.389  -0.004  20.485  0.00  0.00    +0.000 C 
ENDROOT
BRANCH   6   9
ATOM      9  S   UNL     1       9.301  -0.953  24.337  0.00  0.00    +0.000 S 
ATOM     10  O   UNL     1       8.022  -0.958  25.013  0.00  0.00    +0.000 OA
ATOM     11  O   UNL     1      10.451  -0.313  24.979  0.00  0.00    +0.000 OA
BRANCH   9  12
ATOM     12  C   UNL     1       9.767  -2.676  24.040  0.00  0.00    +0.000 C 
BRANCH  12  13
ATOM     13  C   UNL     1       8.827  -3.691  24.632  0.00  0.00    +0.000 A 
ATOM     14  C   UNL     1       9.028  -4.150  25.940  0.00  0.00    +0.000 A 
ATOM     15  C   UNL     1       8.104  -5.009  26.541  0.00  0.00    +0.000 A 
ATOM     16  C   UNL     1       6.995  -5.447  25.830  0.00  0.00    +0.000 A 
ATOM     17  C   UNL     1       6.828  -5.065  24.499  0.00  0.00    +0.000 A 
ATOM     18  C   UNL     1       7.757  -4.216  23.896  0.00  0.00    +0.000 A 
ENDBRANCH  12  13
ENDBRANCH   9  12
ENDBRANCH   6   9
BRANCH   2  19
ATOM     19  C   UNL     1       5.717   0.354  19.270  0.00  0.00    +0.000 C 
ATOM     20 CL   UNL     1       6.007   0.939  17.620  0.00  0.00    +0.000 Cl
ENDBRANCH   2  19
TORSDOF 4
ENDMDL
MODEL 7
REMARK VINA RESULT:      -6.0      2.274      4.594
REMARK  Name = 
REMARK  4 active torsions:
REMARK  status: ('A' for Active; 'I' for Inactive)
REMARK    1  A    between atoms: C_2  and  C_3
REMARK    2  A    between atoms: N_8  and  S_9
REMARK    3  A    between atoms: S_9  and  C_12
REMARK    4  A    between atoms: C_12  and  C_13
REMARK                            x       y       z     vdW  Elec       q    Type
REMARK                         _______ _______ _______ _____ _____    ______ ____
ROOT
ATOM      1  O   UNL     1       8.946  -0.128  20.474  0.00  0.00    +0.000 OA
ATOM      2  C   UNL     1       7.827  -0.465  20.860  0.00  0.00    +0.000 C 
ATOM      3  N   UNL     1       7.675  -1.493  21.796  0.00  0.00    +0.000 N 
ATOM      4  C   UNL     1       8.880  -1.976  22.476  0.00  0.00    +0.000 C 
ATOM      5  C   UNL     1       8.606  -2.955  23.623  0.00  0.00    +0.000 C 
ATOM      6  N   UNL     1       7.468  -2.492  24.446  0.00  0.00    +0.000 NA
ATOM      7  C   UNL     1       6.232  -2.113  23.731  0.00  0.00    +0.000 C 
ATOM      8  C   UNL     1       6.408  -2.109  22.204  0.00  0.00    +0.000 C 
ENDROOT
BRANCH   6   9
ATOM      9  S   UNL     1       7.585  -2.314  26.094  0.00  0.00    +0.000 S 
ATOM     10  O   UNL     1       8.718  -3.101  26.532  0.00  0.00    +0.000 OA
ATOM     11  O   UNL     1       6.254  -2.616  26.625  0.00  0.00    +0.000 OA
BRANCH   9  12
ATOM     12  C   UNL     1       7.929  -0.587  26.509  0.00  0.00    +0.000 C 
BRANCH  12  13
ATOM     13  C   UNL     1       8.708   0.167  25.465  0.00  0.00    +0.000 A 
ATOM     14  C   UNL     1       8.046   1.044  24.598  0.00  0.00    +0.000 A 
ATOM     15  C   UNL     1       8.769   1.831  23.696  0.00  0.00    +0.000 A 
ATOM     16  C   UNL     1      10.150   1.719  23.626  0.00  0.00    +0.000 A 
ATOM     17  C   UNL     1      10.813   0.788  24.425  0.00  0.00    +0.000 A 
ATOM     18  C   UNL     1      10.091  -0.004  25.318  0.00  0.00    +0.000 A 
ENDBRANCH  12  13
ENDBRANCH   9  12
ENDBRANCH   6   9
BRANCH   2  19
ATOM     19  C   UNL     1       6.554   0.203  20.365  0.00  0.00    +0.000 C 
ATOM     20 CL   UNL     1       6.385   1.854  20.992  0.00  0.00    +0.000 Cl
ENDBRANCH   2  19
TORSDOF 4
ENDMDL
MODEL 8
REMARK VINA RESULT:      -6.0      3.310      4.718
REMARK  Name = 
REMARK  4 active torsions:
REMARK  status: ('A' for Active; 'I' for Inactive)
REMARK    1  A    between atoms: C_2  and  C_3
REMARK    2  A    between atoms: N_8  and  S_9
REMARK    3  A    between atoms: S_9  and  C_12
REMARK    4  A    between atoms: C_12  and  C_13
REMARK                            x       y       z     vdW  Elec       q    Type
REMARK                         _______ _______ _______ _____ _____    ______ ____
ROOT
ATOM      1  O   UNL     1      11.150   0.999  24.725  0.00  0.00    +0.000 OA
ATOM      2  C   UNL     1      10.461   1.327  23.759  0.00  0.00    +0.000 C 
ATOM      3  N   UNL     1      10.019   0.370  22.840  0.00  0.00    +0.000 N 
ATOM      4  C   UNL     1      10.191  -1.041  23.193  0.00  0.00    +0.000 C 
ATOM      5  C   UNL     1       9.505  -2.019  22.233  0.00  0.00    +0.000 C 
ATOM      6  N   UNL     1       8.153  -1.540  21.876  0.00  0.00    +0.000 NA
ATOM      7  C   UNL     1       8.034  -0.139  21.422  0.00  0.00    +0.000 C 
ATOM      8  C   UNL     1       9.349   0.644  21.564  0.00  0.00    +0.000 C 
ENDROOT
BRANCH   6   9
ATOM      9  S   UNL     1       6.803  -2.492  22.055  0.00  0.00    +0.000 S 
ATOM     10  O   UNL     1       7.255  -3.862  22.171  0.00  0.00    +0.000 OA
ATOM     11  O   UNL     1       5.904  -2.124  20.959  0.00  0.00    +0.000 OA
BRANCH   9  12
ATOM     12  C   UNL     1       5.946  -2.070  23.592  0.00  0.00    +0.000 C 
BRANCH  12  13
ATOM     13  C   UNL     1       6.847  -1.626  24.712  0.00  0.00    +0.000 A 
ATOM     14  C   UNL     1       7.580  -2.574  25.436  0.00  0.00    +0.000 A 
ATOM     15  C   UNL     1       8.502  -2.170  26.405  0.00  0.00    +0.000 A 
ATOM     16  C   UNL     1       8.671  -0.821  26.687  0.00  0.00    +0.000 A 
ATOM     17  C   UNL     1       7.885   0.128  26.032  0.00  0.00    +0.000 A 
ATOM     18  C   UNL     1       6.958  -0.277  25.072  0.00  0.00    +0.000 A 
ENDBRANCH  12  13
ENDBRANCH   9  12
ENDBRANCH   6   9
BRANCH   2  19
ATOM     19  C   UNL     1      10.039   2.765  23.505  0.00  0.00    +0.000 C 
ATOM     20 CL   UNL     1      11.435   3.848  23.345  0.00  0.00    +0.000 Cl
ENDBRANCH   2  19
TORSDOF 4
ENDMDL
MODEL 9
REMARK VINA RESULT:      -5.9      3.460      5.412
REMARK  Name = 
REMARK  4 active torsions:
REMARK  status: ('A' for Active; 'I' for Inactive)
REMARK    1  A    between atoms: C_2  and  C_3
REMARK    2  A    between atoms: N_8  and  S_9
REMARK    3  A    between atoms: S_9  and  C_12
REMARK    4  A    between atoms: C_12  and  C_13
REMARK                            x       y       z     vdW  Elec       q    Type
REMARK                         _______ _______ _______ _____ _____    ______ ____
ROOT
ATOM      1  O   UNL     1       7.119  -5.915  26.600  0.00  0.00    +0.000 OA
ATOM      2  C   UNL     1       6.872  -4.722  26.776  0.00  0.00    +0.000 C 
ATOM      3  N   UNL     1       7.642  -3.735  26.154  0.00  0.00    +0.000 N 
ATOM      4  C   UNL     1       8.576  -4.160  25.108  0.00  0.00    +0.000 C 
ATOM      5  C   UNL     1       9.232  -3.007  24.341  0.00  0.00    +0.000 C 
ATOM      6  N   UNL     1       8.237  -1.962  24.016  0.00  0.00    +0.000 NA
ATOM      7  C   UNL     1       7.382  -1.481  25.122  0.00  0.00    +0.000 C 
ATOM      8  C   UNL     1       7.570  -2.293  26.413  0.00  0.00    +0.000 C 
ENDROOT
BRANCH   6   9
ATOM      9  S   UNL     1       8.014  -1.407  22.466  0.00  0.00    +0.000 S 
ATOM     10  O   UNL     1       9.156  -1.837  21.688  0.00  0.00    +0.000 OA
ATOM     11  O   UNL     1       7.729   0.025  22.591  0.00  0.00    +0.000 OA
BRANCH   9  12
ATOM     12  C   UNL     1       6.542  -2.167  21.740  0.00  0.00    +0.000 C 
BRANCH  12  13
ATOM     13  C   UNL     1       6.199  -3.524  22.292  0.00  0.00    +0.000 A 
ATOM     14  C   UNL     1       5.186  -3.653  23.249  0.00  0.00    +0.000 A 
ATOM     15  C   UNL     1       4.783  -4.917  23.691  0.00  0.00    +0.000 A 
ATOM     16  C   UNL     1       5.414  -6.056  23.210  0.00  0.00    +0.000 A 
ATOM     17  C   UNL     1       6.480  -5.937  22.320  0.00  0.00    +0.000 A 
ATOM     18  C   UNL     1       6.889  -4.675  21.887  0.00  0.00    +0.000 A 
ENDBRANCH  12  13
ENDBRANCH   9  12
ENDBRANCH   6   9
BRANCH   2  19
ATOM     19  C   UNL     1       5.729  -4.244  27.657  0.00  0.00    +0.000 C 
ATOM     20 CL   UNL     1       4.273  -5.238  27.452  0.00  0.00    +0.000 Cl
ENDBRANCH   2  19
TORSDOF 4
ENDMDL
