MODEL 1
REMARK VINA RESULT:      -7.8      0.000      0.000
REMARK  Name = 
REMARK  3 active torsions:
REMARK  status: ('A' for Active; 'I' for Inactive)
REMARK    1  A    between atoms: C_2  and  C_3
REMARK    2  A    between atoms: N_8  and  S_9
REMARK    3  A    between atoms: S_9  and  C_12
REMARK                            x       y       z     vdW  Elec       q    Type
REMARK                         _______ _______ _______ _____ _____    ______ ____
ROOT
ATOM      1  S   UNL     1      10.000  -0.968  23.239  0.00  0.00    +0.000 S 
ATOM      2  O   UNL     1      10.823  -1.725  22.321  0.00  0.00    +0.000 OA
ATOM      3  O   UNL     1      10.609  -0.171  24.294  0.00  0.00    +0.000 OA
ENDROOT
BRANCH   1   4
ATOM      4  C   UNL     1       8.966   0.134  22.294  0.00  0.00    +0.000 A 
ATOM      5  C   UNL     1       8.122   1.028  22.953  0.00  0.00    +0.000 A 
ATOM      6  C   UNL     1       7.057   1.606  22.258  0.00  0.00    +0.000 A 
ATOM      7  C   UNL     1       6.804   1.258  20.920  0.00  0.00    +0.000 A 
ATOM      8  C   UNL     1       5.626   1.662  20.271  0.00  0.00    +0.000 A 
ATOM      9  C   UNL     1       5.350   1.242  18.968  0.00  0.00    +0.000 A 
ATOM     10  C   UNL     1       6.273   0.466  18.276  0.00  0.00    +0.000 A 
ATOM     11  C   UNL     1       7.461   0.076  18.897  0.00  0.00    +0.000 A 
ATOM     12  C   UNL     1       7.718   0.427  20.231  0.00  0.00    +0.000 A 
ATOM     13  C   UNL     1       8.815  -0.107  20.922  0.00  0.00    +0.000 A 
ENDBRANCH   1   4
BRANCH   1  19
ATOM     14  O   UNL     1       7.015  -4.843  22.564  0.00  0.00    +0.000 OA
ATOM     15  C   UNL     1       6.529  -3.936  23.246  0.00  0.00    +0.000 C 
ATOM     16  N   UNL     1       6.992  -3.674  24.541  0.00  0.00    +0.000 N 
ATOM     17  C   UNL     1       6.797  -2.377  25.210  0.00  0.00    +0.000 C 
ATOM     18  C   UNL     1       8.028  -1.459  25.019  0.00  0.00    +0.000 C 
ATOM     19  N   UNL     1       8.906  -2.027  23.953  0.00  0.00    +0.000 NA
ATOM     20  C   UNL     1       9.426  -3.388  24.319  0.00  0.00    +0.000 C 
ATOM     21  C   UNL     1       8.282  -4.274  24.873  0.00  0.00    +0.000 C 
BRANCH  15  22
ATOM     22  C   UNL     1       5.444  -3.057  22.655  0.00  0.00    +0.000 C 
ATOM     23 CL   UNL     1       5.943  -2.451  21.068  0.00  0.00    +0.000 Cl
ENDBRANCH  15  22
ENDBRANCH   1  19
TORSDOF 3
ENDMDL
MODEL 2
REMARK VINA RESULT:      -7.3      1.634      1.979
REMARK  Name = 
REMARK  3 active torsions:
REMARK  status: ('A' for Active; 'I' for Inactive)
REMARK    1  A    between atoms: C_2  and  C_3
REMARK    2  A    between atoms: N_8  and  S_9
REMARK    3  A    between atoms: S_9  and  C_12
REMARK                            x       y       z     vdW  Elec       q    Type
REMARK                         _______ _______ _______ _____ _____    ______ ____
ROOT
ATOM      1  S   UNL     1       8.994   1.645  24.237  0.00  0.00    +0.000 S 
ATOM      2  O   UNL     1      10.390   1.981  24.058  0.00  0.00    +0.000 OA
ATOM      3  O   UNL     1       8.206   2.290  25.276  0.00  0.00    +0.000 OA
ENDROOT
BRANCH   1   4
ATOM      4  C   UNL     1       8.143   1.926  22.696  0.00  0.00    +0.000 A 
ATOM      5  C   UNL     1       7.043   2.783  22.659  0.00  0.00    +0.000 A 
ATOM      6  C   UNL     1       6.157   2.714  21.581  0.00  0.00    +0.000 A 
ATOM      7  C   UNL     1       6.340   1.761  20.564  0.00  0.00    +0.000 A 
ATOM      8  C   UNL     1       5.355   1.535  19.590  0.00  0.00    +0.000 A 
ATOM      9  C   UNL     1       5.514   0.530  18.634  0.00  0.00    +0.000 A 
ATOM     10  C   UNL     1       6.686  -0.220  18.601  0.00  0.00    +0.000 A 
ATOM     11  C   UNL     1       7.686   0.008  19.546  0.00  0.00    +0.000 A 
ATOM     12  C   UNL     1       7.508   0.963  20.559  0.00  0.00    +0.000 A 
ATOM     13  C   UNL     1       8.420   1.076  21.618  0.00  0.00    +0.000 A 
ENDBRANCH   1   4
BRANCH   1  19
ATOM     14  O   UNL     1       8.476  -2.749  22.045  0.00  0.00    +0.000 OA
ATOM     15  C   UNL     1       7.797  -2.603  23.065  0.00  0.00    +0.000 C 
ATOM     16  N   UNL     1       8.391  -2.561  24.332  0.00  0.00    +0.000 N 
ATOM     17  C   UNL     1       7.734  -1.953  25.501  0.00  0.00    +0.000 C 
ATOM     18  C   UNL     1       8.178  -0.482  25.688  0.00  0.00    +0.000 C 
ATOM     19  N   UNL     1       8.882  -0.019  24.456  0.00  0.00    +0.000 NA
ATOM     20  C   UNL     1      10.123  -0.821  24.183  0.00  0.00    +0.000 C 
ATOM     21  C   UNL     1       9.835  -2.335  24.334  0.00  0.00    +0.000 C 
BRANCH  15  22
ATOM     22  C   UNL     1       6.297  -2.419  22.944  0.00  0.00    +0.000 C 
ATOM     23 CL   UNL     1       5.793  -2.583  21.255  0.00  0.00    +0.000 Cl
ENDBRANCH  15  22
ENDBRANCH   1  19
TORSDOF 3
ENDMDL
MODEL 3
REMARK VINA RESULT:      -7.3      1.635      2.068
REMARK  Name = 
REMARK  3 active torsions:
REMARK  status: ('A' for Active; 'I' for Inactive)
REMARK    1  A    between atoms: C_2  and  C_3
REMARK    2  A    between atoms: N_8  and  S_9
REMARK    3  A    between atoms: S_9  and  C_12
REMARK                            x       y       z     vdW  Elec       q    Type
REMARK                         _______ _______ _______ _____ _____    ______ ____
ROOT
ATOM      1  S   UNL     1       9.878  -1.124  23.169  0.00  0.00    +0.000 S 
ATOM      2  O   UNL     1      10.794  -1.756  22.245  0.00  0.00    +0.000 OA
ATOM      3  O   UNL     1      10.378  -0.425  24.344  0.00  0.00    +0.000 OA
ENDROOT
BRANCH   1   4
ATOM      4  C   UNL     1       8.876   0.041  22.265  0.00  0.00    +0.000 A 
ATOM      5  C   UNL     1       8.040   0.918  22.956  0.00  0.00    +0.000 A 
ATOM      6  C   UNL     1       6.995   1.548  22.276  0.00  0.00    +0.000 A 
ATOM      7  C   UNL     1       6.754   1.270  20.919  0.00  0.00    +0.000 A 
ATOM      8  C   UNL     1       5.593   1.726  20.275  0.00  0.00    +0.000 A 
ATOM      9  C   UNL     1       5.327   1.375  18.951  0.00  0.00    +0.000 A 
ATOM     10  C   UNL     1       6.246   0.616  18.233  0.00  0.00    +0.000 A 
ATOM     11  C   UNL     1       7.418   0.174  18.850  0.00  0.00    +0.000 A 
ATOM     12  C   UNL     1       7.663   0.456  20.203  0.00  0.00    +0.000 A 
ATOM     13  C   UNL     1       8.741  -0.130  20.882  0.00  0.00    +0.000 A 
ENDBRANCH   1   4
BRANCH   1  19
ATOM     14  O   UNL     1       5.246  -1.999  24.637  0.00  0.00    +0.000 OA
ATOM     15  C   UNL     1       6.110  -2.578  25.301  0.00  0.00    +0.000 C 
ATOM     16  N   UNL     1       6.847  -3.640  24.765  0.00  0.00    +0.000 N 
ATOM     17  C   UNL     1       8.153  -4.057  25.302  0.00  0.00    +0.000 C 
ATOM     18  C   UNL     1       9.314  -3.390  24.527  0.00  0.00    +0.000 C 
ATOM     19  N   UNL     1       8.774  -2.283  23.684  0.00  0.00    +0.000 NA
ATOM     20  C   UNL     1       7.793  -2.783  22.662  0.00  0.00    +0.000 C 
ATOM     21  C   UNL     1       6.787  -3.766  23.310  0.00  0.00    +0.000 C 
BRANCH  15  22
ATOM     22  C   UNL     1       6.416  -2.100  26.708  0.00  0.00    +0.000 C 
ATOM     23 CL   UNL     1       7.568  -0.756  26.662  0.00  0.00    +0.000 Cl
ENDBRANCH  15  22
ENDBRANCH   1  19
TORSDOF 3
ENDMDL
MODEL 4
REMARK VINA RESULT:      -7.2      1.940      2.332
REMARK  Name = 
REMARK  3 active torsions:
REMARK  status: ('A' for Active; 'I' for Inactive)
REMARK    1  A    between atoms: C_2  and  C_3
REMARK    2  A    between atoms: N_8  and  S_9
REMARK    3  A    between atoms: S_9  and  C_12
REMARK                            x       y       z     vdW  Elec       q    Type
REMARK                         _______ _______ _______ _____ _____    ______ ____
ROOT
ATOM      1  S   UNL     1       8.189  -0.590  25.043  0.00  0.00    +0.000 S 
ATOM      2  O   UNL     1       9.516  -0.383  25.580  0.00  0.00    +0.000 OA
ATOM      3  O   UNL     1       7.101   0.311  25.391  0.00  0.00    +0.000 OA
ENDROOT
BRANCH   1   4
ATOM      4  C   UNL     1       8.294  -0.606  23.264  0.00  0.00    +0.000 A 
ATOM      5  C   UNL     1       9.130   0.301  22.611  0.00  0.00    +0.000 A 
ATOM      6  C   UNL     1       8.937   0.555  21.251  0.00  0.00    +0.000 A 
ATOM      7  C   UNL     1       7.884  -0.058  20.551  0.00  0.00    +0.000 A 
ATOM      8  C   UNL     1       7.544   0.339  19.248  0.00  0.00    +0.000 A 
ATOM      9  C   UNL     1       6.445  -0.222  18.595  0.00  0.00    +0.000 A 
ATOM     10  C   UNL     1       5.709  -1.230  19.210  0.00  0.00    +0.000 A 
ATOM     11  C   UNL     1       6.047  -1.654  20.496  0.00  0.00    +0.000 A 
ATOM     12  C   UNL     1       7.102  -1.047  21.194  0.00  0.00    +0.000 A 
ATOM     13  C   UNL     1       7.338  -1.335  22.546  0.00  0.00    +0.000 A 
ENDBRANCH   1   4
BRANCH   1  19
ATOM     14  O   UNL     1       8.695  -5.395  24.022  0.00  0.00    +0.000 OA
ATOM     15  C   UNL     1       7.530  -5.031  24.204  0.00  0.00    +0.000 C 
ATOM     16  N   UNL     1       7.072  -4.669  25.476  0.00  0.00    +0.000 N 
ATOM     17  C   UNL     1       5.888  -3.819  25.685  0.00  0.00    +0.000 C 
ATOM     18  C   UNL     1       6.288  -2.333  25.849  0.00  0.00    +0.000 C 
ATOM     19  N   UNL     1       7.709  -2.156  25.427  0.00  0.00    +0.000 NA
ATOM     20  C   UNL     1       8.652  -2.961  26.276  0.00  0.00    +0.000 C 
ATOM     21  C   UNL     1       8.119  -4.403  26.461  0.00  0.00    +0.000 C 
BRANCH  15  22
ATOM     22  C   UNL     1       6.587  -4.927  23.020  0.00  0.00    +0.000 C 
ATOM     23 CL   UNL     1       7.251  -5.799  21.629  0.00  0.00    +0.000 Cl
ENDBRANCH  15  22
ENDBRANCH   1  19
TORSDOF 3
ENDMDL
MODEL 5
REMARK VINA RESULT:      -7.1      3.270      4.655
REMARK  Name = 
REMARK  3 active torsions:
REMARK  status: ('A' for Active; 'I' for Inactive)
REMARK    1  A    between atoms: C_2  and  C_3
REMARK    2  A    between atoms: N_8  and  S_9
REMARK    3  A    between atoms: S_9  and  C_12
REMARK                            x       y       z     vdW  Elec       q    Type
REMARK                         _______ _______ _______ _____ _____    ______ ____
ROOT
ATOM      1  S   UNL     1       6.567  -3.875  22.092  0.00  0.00    +0.000 S 
ATOM      2  O   UNL     1       5.650  -3.094  21.290  0.00  0.00    +0.000 OA
ATOM      3  O   UNL     1       7.054  -5.161  21.616  0.00  0.00    +0.000 OA
ENDROOT
BRANCH   1   4
ATOM      4  C   UNL     1       8.001  -2.878  22.444  0.00  0.00    +0.000 A 
ATOM      5  C   UNL     1       8.712  -3.080  23.628  0.00  0.00    +0.000 A 
ATOM      6  C   UNL     1       9.576  -2.083  24.087  0.00  0.00    +0.000 A 
ATOM      7  C   UNL     1       9.698  -0.867  23.393  0.00  0.00    +0.000 A 
ATOM      8  C   UNL     1      10.393   0.222  23.944  0.00  0.00    +0.000 A 
ATOM      9  C   UNL     1      10.438   1.449  23.281  0.00  0.00    +0.000 A 
ATOM     10  C   UNL     1       9.843   1.588  22.031  0.00  0.00    +0.000 A 
ATOM     11  C   UNL     1       9.168   0.509  21.457  0.00  0.00    +0.000 A 
ATOM     12  C   UNL     1       9.050  -0.708  22.146  0.00  0.00    +0.000 A 
ATOM     13  C   UNL     1       8.226  -1.736  21.665  0.00  0.00    +0.000 A 
ENDBRANCH   1   4
BRANCH   1  19
ATOM     14  O   UNL     1       6.885  -2.985  26.939  0.00  0.00    +0.000 OA
ATOM     15  C   UNL     1       6.574  -4.145  26.651  0.00  0.00    +0.000 C 
ATOM     16  N   UNL     1       5.317  -4.447  26.115  0.00  0.00    +0.000 N 
ATOM     17  C   UNL     1       5.052  -5.676  25.347  0.00  0.00    +0.000 C 
ATOM     18  C   UNL     1       5.193  -5.426  23.827  0.00  0.00    +0.000 C 
ATOM     19  N   UNL     1       5.866  -4.112  23.603  0.00  0.00    +0.000 NA
ATOM     20  C   UNL     1       5.067  -2.969  24.163  0.00  0.00    +0.000 C 
ATOM     21  C   UNL     1       4.573  -3.303  25.592  0.00  0.00    +0.000 C 
BRANCH  15  22
ATOM     22  C   UNL     1       7.587  -5.258  26.836  0.00  0.00    +0.000 C 
ATOM     23 CL   UNL     1       9.233  -4.619  26.693  0.00  0.00    +0.000 Cl
ENDBRANCH  15  22
ENDBRANCH   1  19
TORSDOF 3
ENDMDL
MODEL 6
REMARK VINA RESULT:      -6.8      2.684      5.358
REMARK  Name = 
REMARK  3 active torsions:
REMARK  status: ('A' for Active; 'I' for Inactive)
REMARK    1  A    between atoms: C_2  and  C_3
REMARK    2  A    between atoms: N_8  and  S_9
REMARK    3  A    between atoms: S_9  and  C_12
REMARK                            x       y       z     vdW  Elec       q    Type
REMARK                         _______ _______ _______ _____ _____    ______ ____
ROOT
ATOM      1  S   UNL     1       8.056  -0.660  25.610  0.00  0.00    +0.000 S 
ATOM      2  O   UNL     1       6.865   0.143  25.785  0.00  0.00    +0.000 OA
ATOM      3  O   UNL     1       8.975  -0.869  26.719  0.00  0.00    +0.000 OA
ENDROOT
BRANCH   1   4
ATOM      4  C   UNL     1       7.569  -2.275  25.034  0.00  0.00    +0.000 A 
ATOM      5  C   UNL     1       8.217  -3.409  25.523  0.00  0.00    +0.000 A 
ATOM      6  C   UNL     1       8.119  -4.612  24.819  0.00  0.00    +0.000 A 
ATOM      7  C   UNL     1       7.416  -4.674  23.604  0.00  0.00    +0.000 A 
ATOM      8  C   UNL     1       7.481  -5.809  22.780  0.00  0.00    +0.000 A 
ATOM      9  C   UNL     1       6.843  -5.827  21.539  0.00  0.00    +0.000 A 
ATOM     10  C   UNL     1       6.082  -4.736  21.131  0.00  0.00    +0.000 A 
ATOM     11  C   UNL     1       5.986  -3.609  21.948  0.00  0.00    +0.000 A 
ATOM     12  C   UNL     1       6.683  -3.547  23.164  0.00  0.00    +0.000 A 
ATOM     13  C   UNL     1       6.743  -2.358  23.906  0.00  0.00    +0.000 A 
ENDBRANCH   1   4
BRANCH   1  19
ATOM     14  O   UNL     1       7.871   1.975  21.439  0.00  0.00    +0.000 OA
ATOM     15  C   UNL     1       8.578   0.965  21.375  0.00  0.00    +0.000 C 
ATOM     16  N   UNL     1       9.798   0.888  22.056  0.00  0.00    +0.000 N 
ATOM     17  C   UNL     1      10.444  -0.392  22.393  0.00  0.00    +0.000 C 
ATOM     18  C   UNL     1      10.076  -0.843  23.826  0.00  0.00    +0.000 C 
ATOM     19  N   UNL     1       8.931  -0.024  24.322  0.00  0.00    +0.000 NA
ATOM     20  C   UNL     1       9.275   1.437  24.396  0.00  0.00    +0.000 C 
ATOM     21  C   UNL     1       9.991   1.891  23.101  0.00  0.00    +0.000 C 
BRANCH  15  22
ATOM     22  C   UNL     1       8.095  -0.235  20.583  0.00  0.00    +0.000 C 
ATOM     23 CL   UNL     1       7.542   0.272  18.978  0.00  0.00    +0.000 Cl
ENDBRANCH  15  22
ENDBRANCH   1  19
TORSDOF 3
ENDMDL
MODEL 7
REMARK VINA RESULT:      -6.8      2.839      4.269
REMARK  Name = 
REMARK  3 active torsions:
REMARK  status: ('A' for Active; 'I' for Inactive)
REMARK    1  A    between atoms: C_2  and  C_3
REMARK    2  A    between atoms: N_8  and  S_9
REMARK    3  A    between atoms: S_9  and  C_12
REMARK                            x       y       z     vdW  Elec       q    Type
REMARK                         _______ _______ _______ _____ _____    ______ ____
ROOT
ATOM      1  S   UNL     1       8.101  -4.151  23.854  0.00  0.00    +0.000 S 
ATOM      2  O   UNL     1       7.592  -4.927  22.744  0.00  0.00    +0.000 OA
ATOM      3  O   UNL     1       9.394  -4.464  24.443  0.00  0.00    +0.000 OA
ENDROOT
BRANCH   1   4
ATOM      4  C   UNL     1       8.157  -2.437  23.368  0.00  0.00    +0.000 A 
ATOM      5  C   UNL     1       7.828  -2.076  22.061  0.00  0.00    +0.000 A 
ATOM      6  C   UNL     1       8.229  -0.830  21.573  0.00  0.00    +0.000 A 
ATOM      7  C   UNL     1       8.997   0.037  22.368  0.00  0.00    +0.000 A 
ATOM      8  C   UNL     1       9.585   1.193  21.831  0.00  0.00    +0.000 A 
ATOM      9  C   UNL     1      10.411   2.002  22.612  0.00  0.00    +0.000 A 
ATOM     10  C   UNL     1      10.612   1.702  23.956  0.00  0.00    +0.000 A 
ATOM     11  C   UNL     1      10.016   0.570  24.513  0.00  0.00    +0.000 A 
ATOM     12  C   UNL     1       9.244  -0.294  23.722  0.00  0.00    +0.000 A 
ATOM     13  C   UNL     1       8.792  -1.524  24.220  0.00  0.00    +0.000 A 
ENDBRANCH   1   4
BRANCH   1  19
ATOM     14  O   UNL     1       5.748  -6.920  27.197  0.00  0.00    +0.000 OA
ATOM     15  C   UNL     1       5.022  -6.133  26.582  0.00  0.00    +0.000 C 
ATOM     16  N   UNL     1       5.098  -4.753  26.801  0.00  0.00    +0.000 N 
ATOM     17  C   UNL     1       4.621  -3.762  25.822  0.00  0.00    +0.000 C 
ATOM     18  C   UNL     1       5.775  -3.274  24.914  0.00  0.00    +0.000 C 
ATOM     19  N   UNL     1       6.951  -4.179  25.081  0.00  0.00    +0.000 NA
ATOM     20  C   UNL     1       7.469  -4.173  26.491  0.00  0.00    +0.000 C 
ATOM     21  C   UNL     1       6.300  -4.300  27.499  0.00  0.00    +0.000 C 
BRANCH  15  22
ATOM     22  C   UNL     1       4.062  -6.665  25.535  0.00  0.00    +0.000 C 
ATOM     23 CL   UNL     1       4.880  -6.812  23.972  0.00  0.00    +0.000 Cl
ENDBRANCH  15  22
ENDBRANCH   1  19
TORSDOF 3
ENDMDL
MODEL 8
REMARK VINA RESULT:      -6.6      3.051      4.468
REMARK  Name = 
REMARK  3 active torsions:
REMARK  status: ('A' for Active; 'I' for Inactive)
REMARK    1  A    between atoms: C_2  and  C_3
REMARK    2  A    between atoms: N_8  and  S_9
REMARK    3  A    between atoms: S_9  and  C_12
REMARK                            x       y       z     vdW  Elec       q    Type
REMARK                         _______ _______ _______ _____ _____    ______ ____
ROOT
ATOM      1  S   UNL     1       8.020  -4.608  23.918  0.00  0.00    +0.000 S 
ATOM      2  O   UNL     1       7.607  -5.324  22.732  0.00  0.00    +0.000 OA
ATOM      3  O   UNL     1       9.250  -4.968  24.609  0.00  0.00    +0.000 OA
ENDROOT
BRANCH   1   4
ATOM      4  C   UNL     1       8.143  -2.875  23.520  0.00  0.00    +0.000 A 
ATOM      5  C   UNL     1       7.798  -2.432  22.243  0.00  0.00    +0.000 A 
ATOM      6  C   UNL     1       8.242  -1.181  21.808  0.00  0.00    +0.000 A 
ATOM      7  C   UNL     1       9.069  -0.391  22.626  0.00  0.00    +0.000 A 
ATOM      8  C   UNL     1       9.694   0.765  22.133  0.00  0.00    +0.000 A 
ATOM      9  C   UNL     1      10.576   1.495  22.932  0.00  0.00    +0.000 A 
ATOM     10  C   UNL     1      10.796   1.116  24.252  0.00  0.00    +0.000 A 
ATOM     11  C   UNL     1      10.164  -0.017  24.767  0.00  0.00    +0.000 A 
ATOM     12  C   UNL     1       9.334  -0.803  23.953  0.00  0.00    +0.000 A 
ATOM     13  C   UNL     1       8.838  -2.037  24.400  0.00  0.00    +0.000 A 
ENDBRANCH   1   4
BRANCH   1  19
ATOM     14  O   UNL     1       3.453  -3.094  25.028  0.00  0.00    +0.000 OA
ATOM     15  C   UNL     1       4.244  -3.071  25.975  0.00  0.00    +0.000 C 
ATOM     16  N   UNL     1       4.710  -4.254  26.561  0.00  0.00    +0.000 N 
ATOM     17  C   UNL     1       5.952  -4.318  27.349  0.00  0.00    +0.000 C 
ATOM     18  C   UNL     1       7.148  -4.757  26.471  0.00  0.00    +0.000 C 
ATOM     19  N   UNL     1       6.761  -4.672  25.032  0.00  0.00    +0.000 NA
ATOM     20  C   UNL     1       5.616  -5.588  24.703  0.00  0.00    +0.000 C 
ATOM     21  C   UNL     1       4.499  -5.464  25.769  0.00  0.00    +0.000 C 
BRANCH  15  22
ATOM     22  C   UNL     1       4.759  -1.739  26.486  0.00  0.00    +0.000 C 
ATOM     23 CL   UNL     1       5.558  -0.850  25.180  0.00  0.00    +0.000 Cl
ENDBRANCH  15  22
ENDBRANCH   1  19
TORSDOF 3
ENDMDL
MODEL 9
REMARK VINA RESULT:      -6.5      2.655      5.943
REMARK  Name = 
REMARK  3 active torsions:
REMARK  status: ('A' for Active; 'I' for Inactive)
REMARK    1  A    between atoms: C_2  and  C_3
REMARK    2  A    between atoms: N_8  and  S_9
REMARK    3  A    between atoms: S_9  and  C_12
REMARK                            x       y       z     vdW  Elec       q    Type
REMARK                         _______ _______ _______ _____ _____    ______ ____
ROOT
ATOM      1  S   UNL     1       7.582  -1.479  25.399  0.00  0.00    +0.000 S 
ATOM      2  O   UNL     1       6.626  -0.405  25.553  0.00  0.00    +0.000 OA
ATOM      3  O   UNL     1       8.228  -2.067  26.563  0.00  0.00    +0.000 OA
ENDROOT
BRANCH   1   4
ATOM      4  C   UNL     1       6.797  -2.814  24.517  0.00  0.00    +0.000 A 
ATOM      5  C   UNL     1       6.104  -2.551  23.335  0.00  0.00    +0.000 A 
ATOM      6  C   UNL     1       5.186  -3.489  22.856  0.00  0.00    +0.000 A 
ATOM      7  C   UNL     1       4.923  -4.666  23.577  0.00  0.00    +0.000 A 
ATOM      8  C   UNL     1       3.861  -5.515  23.226  0.00  0.00    +0.000 A 
ATOM      9  C   UNL     1       3.561  -6.639  23.999  0.00  0.00    +0.000 A 
ATOM     10  C   UNL     1       4.355  -6.963  25.094  0.00  0.00    +0.000 A 
ATOM     11  C   UNL     1       5.430  -6.144  25.443  0.00  0.00    +0.000 A 
ATOM     12  C   UNL     1       5.698  -4.971  24.721  0.00  0.00    +0.000 A 
ATOM     13  C   UNL     1       6.656  -4.048  25.165  0.00  0.00    +0.000 A 
ENDBRANCH   1   4
BRANCH   1  19
ATOM     14  O   UNL     1       8.782   1.661  21.782  0.00  0.00    +0.000 OA
ATOM     15  C   UNL     1       9.176   0.505  21.607  0.00  0.00    +0.000 C 
ATOM     16  N   UNL     1      10.207  -0.036  22.383  0.00  0.00    +0.000 N 
ATOM     17  C   UNL     1      10.408  -1.486  22.545  0.00  0.00    +0.000 C 
ATOM     18  C   UNL     1       9.715  -2.007  23.827  0.00  0.00    +0.000 C 
ATOM     19  N   UNL     1       8.786  -0.960  24.345  0.00  0.00    +0.000 NA
ATOM     20  C   UNL     1       9.512   0.302  24.719  0.00  0.00    +0.000 C 
ATOM     21  C   UNL     1      10.514   0.700  23.608  0.00  0.00    +0.000 C 
BRANCH  15  22
ATOM     22  C   UNL     1       8.501  -0.365  20.564  0.00  0.00    +0.000 C 
ATOM     23 CL   UNL     1       7.351   0.594  19.617  0.00  0.00    +0.000 Cl
ENDBRANCH  15  22
ENDBRANCH   1  19
TORSDOF 3
ENDMDL
