MODEL 1
REMARK VINA RESULT:      -7.5      0.000      0.000
REMARK  Name = 
REMARK  3 active torsions:
REMARK  status: ('A' for Active; 'I' for Inactive)
REMARK    1  A    between atoms: C_2  and  C_3
REMARK    2  A    between atoms: C_11  and  S_12
REMARK    3  A    between atoms: S_12  and  N_15
REMARK                            x       y       z     vdW  Elec       q    Type
REMARK                         _______ _______ _______ _____ _____    ______ ____
ROOT
ATOM      1  O   UNL     1       6.248   1.642  20.510  0.00  0.00    +0.000 OA
ATOM      2  C   UNL     1       7.101   0.805  20.267  0.00  0.00    +0.000 C 
ATOM      3  N   UNL     1       7.962   0.398  21.331  0.00  0.00    +0.000 N 
ATOM      4  C   UNL     1       9.065   1.143  21.576  0.00  0.00    +0.000 A 
ATOM      5  C   UNL     1      10.087   0.661  22.375  0.00  0.00    +0.000 A 
ATOM      6  C   UNL     1       9.974  -0.609  22.925  0.00  0.00    +0.000 A 
ATOM      7  C   UNL     1       8.808  -1.352  22.726  0.00  0.00    +0.000 A 
ATOM      8  C   UNL     1       8.686  -2.663  23.213  0.00  0.00    +0.000 A 
ATOM      9  C   UNL     1       7.526  -3.397  22.949  0.00  0.00    +0.000 A 
ATOM     10  C   UNL     1       6.425  -2.792  22.340  0.00  0.00    +0.000 A 
ATOM     11  C   UNL     1       6.535  -1.489  21.857  0.00  0.00    +0.000 A 
ATOM     12  C   UNL     1       7.749  -0.786  21.968  0.00  0.00    +0.000 A 
ENDROOT
BRANCH   9  13
ATOM     13  S   UNL     1       7.504  -5.180  23.172  0.00  0.00    +0.000 S 
ATOM     14  O   UNL     1       8.654  -5.482  23.998  0.00  0.00    +0.000 OA
ATOM     15  O   UNL     1       7.324  -5.744  21.853  0.00  0.00    +0.000 OA
BRANCH  13  16
ATOM     16  N   UNL     1       6.119  -5.429  24.103  0.00  0.00    +0.000 N 
ATOM     17  C   UNL     1       6.183  -5.454  25.575  0.00  0.00    +0.000 C 
ATOM     18  C   UNL     1       5.149  -6.511  25.960  0.00  0.00    +0.000 C 
ATOM     19  C   UNL     1       4.551  -6.900  24.643  0.00  0.00    +0.000 C 
ATOM     20  C   UNL     1       5.105  -6.283  23.599  0.00  0.00    +0.000 C 
ENDBRANCH  13  16
ENDBRANCH   9  13
BRANCH   2  21
ATOM     21  C   UNL     1       7.463   0.178  18.945  0.00  0.00    +0.000 C 
ATOM     22 CL   UNL     1       6.003  -0.537  18.248  0.00  0.00    +0.000 Cl
ENDBRANCH   2  21
TORSDOF 3
ENDMDL
MODEL 2
REMARK VINA RESULT:      -6.9      2.743      3.591
REMARK  Name = 
REMARK  3 active torsions:
REMARK  status: ('A' for Active; 'I' for Inactive)
REMARK    1  A    between atoms: C_2  and  C_3
REMARK    2  A    between atoms: C_11  and  S_12
REMARK    3  A    between atoms: S_12  and  N_15
REMARK                            x       y       z     vdW  Elec       q    Type
REMARK                         _______ _______ _______ _____ _____    ______ ____
ROOT
ATOM      1  O   UNL     1      10.909   2.536  23.815  0.00  0.00    +0.000 OA
ATOM      2  C   UNL     1       9.771   2.104  23.876  0.00  0.00    +0.000 C 
ATOM      3  N   UNL     1       9.331   1.225  22.840  0.00  0.00    +0.000 N 
ATOM      4  C   UNL     1       8.834   1.776  21.708  0.00  0.00    +0.000 A 
ATOM      5  C   UNL     1       8.124   1.013  20.797  0.00  0.00    +0.000 A 
ATOM      6  C   UNL     1       7.919  -0.335  21.057  0.00  0.00    +0.000 A 
ATOM      7  C   UNL     1       8.487  -0.918  22.193  0.00  0.00    +0.000 A 
ATOM      8  C   UNL     1       8.246  -2.262  22.521  0.00  0.00    +0.000 A 
ATOM      9  C   UNL     1       8.786  -2.798  23.694  0.00  0.00    +0.000 A 
ATOM     10  C   UNL     1       9.687  -2.061  24.463  0.00  0.00    +0.000 A 
ATOM     11  C   UNL     1       9.936  -0.727  24.143  0.00  0.00    +0.000 A 
ATOM     12  C   UNL     1       9.277  -0.117  23.059  0.00  0.00    +0.000 A 
ENDROOT
BRANCH   9  13
ATOM     13  S   UNL     1       8.163  -4.346  24.360  0.00  0.00    +0.000 S 
ATOM     14  O   UNL     1       7.530  -4.001  25.615  0.00  0.00    +0.000 OA
ATOM     15  O   UNL     1       9.258  -5.285  24.275  0.00  0.00    +0.000 OA
BRANCH  13  16
ATOM     16  N   UNL     1       6.950  -4.770  23.267  0.00  0.00    +0.000 N 
ATOM     17  C   UNL     1       5.537  -4.831  23.682  0.00  0.00    +0.000 C 
ATOM     18  C   UNL     1       4.979  -6.004  22.877  0.00  0.00    +0.000 C 
ATOM     19  C   UNL     1       6.139  -6.416  22.023  0.00  0.00    +0.000 C 
ATOM     20  C   UNL     1       7.248  -5.712  22.251  0.00  0.00    +0.000 C 
ENDBRANCH  13  16
ENDBRANCH   9  13
BRANCH   2  21
ATOM     21  C   UNL     1       8.682   2.441  24.863  0.00  0.00    +0.000 C 
ATOM     22 CL   UNL     1       8.621   4.199  25.048  0.00  0.00    +0.000 Cl
ENDBRANCH   2  21
TORSDOF 3
ENDMDL
MODEL 3
REMARK VINA RESULT:      -6.8      2.243      2.649
REMARK  Name = 
REMARK  3 active torsions:
REMARK  status: ('A' for Active; 'I' for Inactive)
REMARK    1  A    between atoms: C_2  and  C_3
REMARK    2  A    between atoms: C_11  and  S_12
REMARK    3  A    between atoms: S_12  and  N_15
REMARK                            x       y       z     vdW  Elec       q    Type
REMARK                         _______ _______ _______ _____ _____    ______ ____
ROOT
ATOM      1  O   UNL     1       7.201   1.798  21.403  0.00  0.00    +0.000 OA
ATOM      2  C   UNL     1       7.938   0.844  21.585  0.00  0.00    +0.000 C 
ATOM      3  N   UNL     1       8.569   0.719  22.860  0.00  0.00    +0.000 N 
ATOM      4  C   UNL     1       9.730   1.384  23.063  0.00  0.00    +0.000 A 
ATOM      5  C   UNL     1      10.543   1.085  24.143  0.00  0.00    +0.000 A 
ATOM      6  C   UNL     1      10.157   0.083  25.024  0.00  0.00    +0.000 A 
ATOM      7  C   UNL     1       8.928  -0.559  24.851  0.00  0.00    +0.000 A 
ATOM      8  C   UNL     1       8.536  -1.619  25.684  0.00  0.00    +0.000 A 
ATOM      9  C   UNL     1       7.324  -2.275  25.449  0.00  0.00    +0.000 A 
ATOM     10  C   UNL     1       6.427  -1.791  24.496  0.00  0.00    +0.000 A 
ATOM     11  C   UNL     1       6.805  -0.735  23.667  0.00  0.00    +0.000 A 
ATOM     12  C   UNL     1       8.087  -0.164  23.778  0.00  0.00    +0.000 A 
ENDROOT
BRANCH   9  13
ATOM     13  S   UNL     1       6.992  -3.875  26.196  0.00  0.00    +0.000 S 
ATOM     14  O   UNL     1       5.632  -3.800  26.685  0.00  0.00    +0.000 OA
ATOM     15  O   UNL     1       8.116  -4.150  27.063  0.00  0.00    +0.000 OA
BRANCH  13  16
ATOM     16  N   UNL     1       7.010  -4.923  24.874  0.00  0.00    +0.000 N 
ATOM     17  C   UNL     1       8.062  -4.836  23.847  0.00  0.00    +0.000 C 
ATOM     18  C   UNL     1       7.326  -5.175  22.551  0.00  0.00    +0.000 C 
ATOM     19  C   UNL     1       5.942  -5.504  23.020  0.00  0.00    +0.000 C 
ATOM     20  C   UNL     1       5.773  -5.360  24.335  0.00  0.00    +0.000 C 
ENDBRANCH  13  16
ENDBRANCH   9  13
BRANCH   2  21
ATOM     21  C   UNL     1       8.379  -0.214  20.605  0.00  0.00    +0.000 C 
ATOM     22 CL   UNL     1       7.606   0.112  19.048  0.00  0.00    +0.000 Cl
ENDBRANCH   2  21
TORSDOF 3
ENDMDL
MODEL 4
REMARK VINA RESULT:      -6.8      2.856      3.545
REMARK  Name = 
REMARK  3 active torsions:
REMARK  status: ('A' for Active; 'I' for Inactive)
REMARK    1  A    between atoms: C_2  and  C_3
REMARK    2  A    between atoms: C_11  and  S_12
REMARK    3  A    between atoms: S_12  and  N_15
REMARK                            x       y       z     vdW  Elec       q    Type
REMARK                         _______ _______ _______ _____ _____    ______ ____
ROOT
ATOM      1  O   UNL     1      10.990   2.147  23.800  0.00  0.00    +0.000 OA
ATOM      2  C   UNL     1       9.841   1.744  23.875  0.00  0.00    +0.000 C 
ATOM      3  N   UNL     1       9.356   0.906  22.826  0.00  0.00    +0.000 N 
ATOM      4  C   UNL     1       8.850   1.501  21.720  0.00  0.00    +0.000 A 
ATOM      5  C   UNL     1       8.100   0.782  20.805  0.00  0.00    +0.000 A 
ATOM      6  C   UNL     1       7.865  -0.567  21.033  0.00  0.00    +0.000 A 
ATOM      7  C   UNL     1       8.441  -1.196  22.140  0.00  0.00    +0.000 A 
ATOM      8  C   UNL     1       8.171  -2.542  22.436  0.00  0.00    +0.000 A 
ATOM      9  C   UNL     1       8.722  -3.124  23.581  0.00  0.00    +0.000 A 
ATOM     10  C   UNL     1       9.659  -2.432  24.351  0.00  0.00    +0.000 A 
ATOM     11  C   UNL     1       9.936  -1.097  24.062  0.00  0.00    +0.000 A 
ATOM     12  C   UNL     1       9.271  -0.440  23.009  0.00  0.00    +0.000 A 
ENDROOT
BRANCH   9  13
ATOM     13  S   UNL     1       8.072  -4.674  24.220  0.00  0.00    +0.000 S 
ATOM     14  O   UNL     1       9.218  -5.546  24.358  0.00  0.00    +0.000 OA
ATOM     15  O   UNL     1       6.940  -5.004  23.384  0.00  0.00    +0.000 OA
BRANCH  13  16
ATOM     16  N   UNL     1       7.548  -4.257  25.768  0.00  0.00    +0.000 N 
ATOM     17  C   UNL     1       7.656  -5.205  26.891  0.00  0.00    +0.000 C 
ATOM     18  C   UNL     1       6.402  -4.924  27.717  0.00  0.00    +0.000 C 
ATOM     19  C   UNL     1       5.770  -3.772  27.000  0.00  0.00    +0.000 C 
ATOM     20  C   UNL     1       6.425  -3.401  25.899  0.00  0.00    +0.000 C 
ENDBRANCH  13  16
ENDBRANCH   9  13
BRANCH   2  21
ATOM     21  C   UNL     1       8.784   2.081  24.895  0.00  0.00    +0.000 C 
ATOM     22 CL   UNL     1       8.503   3.827  24.851  0.00  0.00    +0.000 Cl
ENDBRANCH   2  21
TORSDOF 3
ENDMDL
MODEL 5
REMARK VINA RESULT:      -6.7      2.876      6.697
REMARK  Name = 
REMARK  3 active torsions:
REMARK  status: ('A' for Active; 'I' for Inactive)
REMARK    1  A    between atoms: C_2  and  C_3
REMARK    2  A    between atoms: C_11  and  S_12
REMARK    3  A    between atoms: S_12  and  N_15
REMARK                            x       y       z     vdW  Elec       q    Type
REMARK                         _______ _______ _______ _____ _____    ______ ____
ROOT
ATOM      1  O   UNL     1       4.633  -7.181  23.927  0.00  0.00    +0.000 OA
ATOM      2  C   UNL     1       4.679  -6.071  24.429  0.00  0.00    +0.000 C 
ATOM      3  N   UNL     1       5.806  -5.751  25.245  0.00  0.00    +0.000 N 
ATOM      4  C   UNL     1       5.769  -6.108  26.550  0.00  0.00    +0.000 A 
ATOM      5  C   UNL     1       6.671  -5.582  27.458  0.00  0.00    +0.000 A 
ATOM      6  C   UNL     1       7.623  -4.672  27.018  0.00  0.00    +0.000 A 
ATOM      7  C   UNL     1       7.703  -4.353  25.660  0.00  0.00    +0.000 A 
ATOM      8  C   UNL     1       8.610  -3.389  25.190  0.00  0.00    +0.000 A 
ATOM      9  C   UNL     1       8.627  -3.056  23.833  0.00  0.00    +0.000 A 
ATOM     10  C   UNL     1       7.862  -3.777  22.914  0.00  0.00    +0.000 A 
ATOM     11  C   UNL     1       6.963  -4.738  23.370  0.00  0.00    +0.000 A 
ATOM     12  C   UNL     1       6.811  -4.978  24.749  0.00  0.00    +0.000 A 
ENDROOT
BRANCH   9  13
ATOM     13  S   UNL     1       9.444  -1.557  23.271  0.00  0.00    +0.000 S 
ATOM     14  O   UNL     1      10.547  -2.002  22.446  0.00  0.00    +0.000 OA
ATOM     15  O   UNL     1       9.635  -0.742  24.450  0.00  0.00    +0.000 OA
BRANCH  13  16
ATOM     16  N   UNL     1       8.293  -0.852  22.260  0.00  0.00    +0.000 N 
ATOM     17  C   UNL     1       8.620  -0.486  20.871  0.00  0.00    +0.000 C 
ATOM     18  C   UNL     1       7.822   0.798  20.642  0.00  0.00    +0.000 C 
ATOM     19  C   UNL     1       7.057   0.958  21.920  0.00  0.00    +0.000 C 
ATOM     20  C   UNL     1       7.330   0.020  22.828  0.00  0.00    +0.000 C 
ENDBRANCH  13  16
ENDBRANCH   9  13
BRANCH   2  21
ATOM     21  C   UNL     1       3.645  -4.974  24.399  0.00  0.00    +0.000 C 
ATOM     22 CL   UNL     1       2.428  -5.388  23.184  0.00  0.00    +0.000 Cl
ENDBRANCH   2  21
TORSDOF 3
ENDMDL
MODEL 6
REMARK VINA RESULT:      -6.7      3.097      6.746
REMARK  Name = 
REMARK  3 active torsions:
REMARK  status: ('A' for Active; 'I' for Inactive)
REMARK    1  A    between atoms: C_2  and  C_3
REMARK    2  A    between atoms: C_11  and  S_12
REMARK    3  A    between atoms: S_12  and  N_15
REMARK                            x       y       z     vdW  Elec       q    Type
REMARK                         _______ _______ _______ _____ _____    ______ ____
ROOT
ATOM      1  O   UNL     1       4.536  -7.308  24.228  0.00  0.00    +0.000 OA
ATOM      2  C   UNL     1       4.604  -6.160  24.632  0.00  0.00    +0.000 C 
ATOM      3  N   UNL     1       5.808  -5.748  25.280  0.00  0.00    +0.000 N 
ATOM      4  C   UNL     1       5.936  -5.997  26.604  0.00  0.00    +0.000 A 
ATOM      5  C   UNL     1       6.920  -5.378  27.354  0.00  0.00    +0.000 A 
ATOM      6  C   UNL     1       7.784  -4.485  26.732  0.00  0.00    +0.000 A 
ATOM      7  C   UNL     1       7.694  -4.277  25.353  0.00  0.00    +0.000 A 
ATOM      8  C   UNL     1       8.507  -3.335  24.704  0.00  0.00    +0.000 A 
ATOM      9  C   UNL     1       8.354  -3.113  23.332  0.00  0.00    +0.000 A 
ATOM     10  C   UNL     1       7.511  -3.925  22.571  0.00  0.00    +0.000 A 
ATOM     11  C   UNL     1       6.703  -4.866  23.206  0.00  0.00    +0.000 A 
ATOM     12  C   UNL     1       6.722  -4.995  24.608  0.00  0.00    +0.000 A 
ENDROOT
BRANCH   9  13
ATOM     13  S   UNL     1       9.050  -1.647  22.561  0.00  0.00    +0.000 S 
ATOM     14  O   UNL     1       8.063  -1.210  21.597  0.00  0.00    +0.000 OA
ATOM     15  O   UNL     1      10.401  -1.998  22.185  0.00  0.00    +0.000 OA
BRANCH  13  16
ATOM     16  N   UNL     1       9.072  -0.528  23.823  0.00  0.00    +0.000 N 
ATOM     17  C   UNL     1       7.989   0.458  23.987  0.00  0.00    +0.000 C 
ATOM     18  C   UNL     1       8.714   1.703  24.498  0.00  0.00    +0.000 C 
ATOM     19  C   UNL     1      10.130   1.237  24.649  0.00  0.00    +0.000 C 
ATOM     20  C   UNL     1      10.322  -0.025  24.265  0.00  0.00    +0.000 C 
ENDBRANCH  13  16
ENDBRANCH   9  13
BRANCH   2  21
ATOM     21  C   UNL     1       3.538  -5.094  24.640  0.00  0.00    +0.000 C 
ATOM     22 CL   UNL     1       2.503  -5.330  23.225  0.00  0.00    +0.000 Cl
ENDBRANCH   2  21
TORSDOF 3
ENDMDL
MODEL 7
REMARK VINA RESULT:      -6.6      2.780      3.247
REMARK  Name = 
REMARK  3 active torsions:
REMARK  status: ('A' for Active; 'I' for Inactive)
REMARK    1  A    between atoms: C_2  and  C_3
REMARK    2  A    between atoms: C_11  and  S_12
REMARK    3  A    between atoms: S_12  and  N_15
REMARK                            x       y       z     vdW  Elec       q    Type
REMARK                         _______ _______ _______ _____ _____    ______ ____
ROOT
ATOM      1  O   UNL     1       8.317   2.597  25.138  0.00  0.00    +0.000 OA
ATOM      2  C   UNL     1       7.832   1.719  24.444  0.00  0.00    +0.000 C 
ATOM      3  N   UNL     1       8.721   0.807  23.799  0.00  0.00    +0.000 N 
ATOM      4  C   UNL     1       9.246   1.167  22.605  0.00  0.00    +0.000 A 
ATOM      5  C   UNL     1       9.866   0.236  21.789  0.00  0.00    +0.000 A 
ATOM      6  C   UNL     1       9.943  -1.085  22.207  0.00  0.00    +0.000 A 
ATOM      7  C   UNL     1       9.459  -1.445  23.468  0.00  0.00    +0.000 A 
ATOM      8  C   UNL     1       9.462  -2.782  23.896  0.00  0.00    +0.000 A 
ATOM      9  C   UNL     1       8.921  -3.114  25.141  0.00  0.00    +0.000 A 
ATOM     10  C   UNL     1       8.518  -2.116  26.030  0.00  0.00    +0.000 A 
ATOM     11  C   UNL     1       8.516  -0.785  25.616  0.00  0.00    +0.000 A 
ATOM     12  C   UNL     1       8.905  -0.443  24.307  0.00  0.00    +0.000 A 
ENDROOT
BRANCH   9  13
ATOM     13  S   UNL     1       8.517  -4.820  25.536  0.00  0.00    +0.000 S 
ATOM     14  O   UNL     1       8.539  -4.900  26.981  0.00  0.00    +0.000 OA
ATOM     15  O   UNL     1       9.370  -5.634  24.700  0.00  0.00    +0.000 OA
BRANCH  13  16
ATOM     16  N   UNL     1       6.912  -4.956  25.034  0.00  0.00    +0.000 N 
ATOM     17  C   UNL     1       5.914  -5.662  25.856  0.00  0.00    +0.000 C 
ATOM     18  C   UNL     1       5.014  -6.339  24.822  0.00  0.00    +0.000 C 
ATOM     19  C   UNL     1       5.567  -5.855  23.518  0.00  0.00    +0.000 C 
ATOM     20  C   UNL     1       6.640  -5.073  23.647  0.00  0.00    +0.000 C 
ENDBRANCH  13  16
ENDBRANCH   9  13
BRANCH   2  21
ATOM     21  C   UNL     1       6.388   1.497  24.071  0.00  0.00    +0.000 C 
ATOM     22 CL   UNL     1       5.472   1.182  25.550  0.00  0.00    +0.000 Cl
ENDBRANCH   2  21
TORSDOF 3
ENDMDL
MODEL 8
REMARK VINA RESULT:      -6.5      3.361      6.841
REMARK  Name = 
REMARK  3 active torsions:
REMARK  status: ('A' for Active; 'I' for Inactive)
REMARK    1  A    between atoms: C_2  and  C_3
REMARK    2  A    between atoms: C_11  and  S_12
REMARK    3  A    between atoms: S_12  and  N_15
REMARK                            x       y       z     vdW  Elec       q    Type
REMARK                         _______ _______ _______ _____ _____    ______ ____
ROOT
ATOM      1  O   UNL     1       3.889  -4.829  25.736  0.00  0.00    +0.000 OA
ATOM      2  C   UNL     1       5.044  -5.158  25.522  0.00  0.00    +0.000 C 
ATOM      3  N   UNL     1       5.535  -5.048  24.185  0.00  0.00    +0.000 N 
ATOM      4  C   UNL     1       5.307  -6.078  23.338  0.00  0.00    +0.000 A 
ATOM      5  C   UNL     1       5.993  -6.179  22.140  0.00  0.00    +0.000 A 
ATOM      6  C   UNL     1       6.930  -5.208  21.812  0.00  0.00    +0.000 A 
ATOM      7  C   UNL     1       7.118  -4.111  22.656  0.00  0.00    +0.000 A 
ATOM      8  C   UNL     1       8.101  -3.145  22.388  0.00  0.00    +0.000 A 
ATOM      9  C   UNL     1       8.299  -2.088  23.282  0.00  0.00    +0.000 A 
ATOM     10  C   UNL     1       7.430  -1.895  24.357  0.00  0.00    +0.000 A 
ATOM     11  C   UNL     1       6.447  -2.846  24.629  0.00  0.00    +0.000 A 
ATOM     12  C   UNL     1       6.334  -4.003  23.835  0.00  0.00    +0.000 A 
ENDROOT
BRANCH   9  13
ATOM     13  S   UNL     1       9.796  -1.098  23.208  0.00  0.00    +0.000 S 
ATOM     14  O   UNL     1      10.751  -1.893  22.465  0.00  0.00    +0.000 OA
ATOM     15  O   UNL     1      10.044  -0.649  24.559  0.00  0.00    +0.000 OA
BRANCH  13  16
ATOM     16  N   UNL     1       9.342   0.206  22.238  0.00  0.00    +0.000 N 
ATOM     17  C   UNL     1       8.768   1.429  22.824  0.00  0.00    +0.000 C 
ATOM     18  C   UNL     1       7.738   1.874  21.786  0.00  0.00    +0.000 C 
ATOM     19  C   UNL     1       7.919   0.882  20.678  0.00  0.00    +0.000 C 
ATOM     20  C   UNL     1       8.828  -0.057  20.942  0.00  0.00    +0.000 C 
ENDBRANCH  13  16
ENDBRANCH   9  13
BRANCH   2  21
ATOM     21  C   UNL     1       6.043  -5.776  26.466  0.00  0.00    +0.000 C 
ATOM     22 CL   UNL     1       6.313  -4.652  27.806  0.00  0.00    +0.000 Cl
ENDBRANCH   2  21
TORSDOF 3
ENDMDL
MODEL 9
REMARK VINA RESULT:      -6.3      2.927      3.581
REMARK  Name = 
REMARK  3 active torsions:
REMARK  status: ('A' for Active; 'I' for Inactive)
REMARK    1  A    between atoms: C_2  and  C_3
REMARK    2  A    between atoms: C_11  and  S_12
REMARK    3  A    between atoms: S_12  and  N_15
REMARK                            x       y       z     vdW  Elec       q    Type
REMARK                         _______ _______ _______ _____ _____    ______ ____
ROOT
ATOM      1  O   UNL     1       9.705   1.874  21.534  0.00  0.00    +0.000 OA
ATOM      2  C   UNL     1       9.603   1.671  22.732  0.00  0.00    +0.000 C 
ATOM      3  N   UNL     1       8.409   1.048  23.206  0.00  0.00    +0.000 N 
ATOM      4  C   UNL     1       7.339   1.837  23.465  0.00  0.00    +0.000 A 
ATOM      5  C   UNL     1       6.264   1.362  24.195  0.00  0.00    +0.000 A 
ATOM      6  C   UNL     1       6.291   0.057  24.670  0.00  0.00    +0.000 A 
ATOM      7  C   UNL     1       7.365  -0.777  24.348  0.00  0.00    +0.000 A 
ATOM      8  C   UNL     1       7.456  -2.080  24.865  0.00  0.00    +0.000 A 
ATOM      9  C   UNL     1       8.571  -2.868  24.566  0.00  0.00    +0.000 A 
ATOM     10  C   UNL     1       9.519  -2.437  23.638  0.00  0.00    +0.000 A 
ATOM     11  C   UNL     1       9.435  -1.147  23.116  0.00  0.00    +0.000 A 
ATOM     12  C   UNL     1       8.409  -0.275  23.528  0.00  0.00    +0.000 A 
ENDROOT
BRANCH   9  13
ATOM     13  S   UNL     1       8.931  -4.341  25.531  0.00  0.00    +0.000 S 
ATOM     14  O   UNL     1       8.825  -3.934  26.916  0.00  0.00    +0.000 OA
ATOM     15  O   UNL     1      10.146  -4.894  24.975  0.00  0.00    +0.000 OA
BRANCH  13  16
ATOM     16  N   UNL     1       7.624  -5.351  25.186  0.00  0.00    +0.000 N 
ATOM     17  C   UNL     1       7.058  -5.429  23.829  0.00  0.00    +0.000 C 
ATOM     18  C   UNL     1       5.561  -5.610  24.076  0.00  0.00    +0.000 C 
ATOM     19  C   UNL     1       5.469  -5.703  25.568  0.00  0.00    +0.000 C 
ATOM     20  C   UNL     1       6.641  -5.556  26.187  0.00  0.00    +0.000 C 
ENDBRANCH  13  16
ENDBRANCH   9  13
BRANCH   2  21
ATOM     21  C   UNL     1      10.537   2.075  23.845  0.00  0.00    +0.000 C 
ATOM     22 CL   UNL     1      11.305   3.605  23.400  0.00  0.00    +0.000 Cl
ENDBRANCH   2  21
TORSDOF 3
ENDMDL
