MODEL 1
REMARK VINA RESULT:      -6.4      0.000      0.000
REMARK  Name = 
REMARK  4 active torsions:
REMARK  status: ('A' for Active; 'I' for Inactive)
REMARK    1  A    between atoms: C_2  and  C_3
REMARK    2  A    between atoms: C_2  and  N_5
REMARK    3  A    between atoms: N_8  and  C_9
REMARK    4  A    between atoms: C_9  and  C_10
REMARK                            x       y       z     vdW  Elec       q    Type
REMARK                         _______ _______ _______ _____ _____    ______ ____
ROOT
ATOM      1  N   UNL     1       8.121  -4.021  26.300  0.00  0.00    +0.000 NA
ATOM      2  C   UNL     1       7.753  -2.641  26.552  0.00  0.00    +0.000 C 
ATOM      3  C   UNL     1       8.564  -1.722  25.614  0.00  0.00    +0.000 C 
ATOM      4  N   UNL     1       8.753  -2.296  24.301  0.00  0.00    +0.000 NA
ATOM      5  C   UNL     1       9.568  -3.501  24.386  0.00  0.00    +0.000 C 
ATOM      6  C   UNL     1       9.449  -4.206  25.751  0.00  0.00    +0.000 C 
ENDROOT
BRANCH   1   8
ATOM      7  O   UNL     1       7.473  -5.749  27.591  0.00  0.00    +0.000 OA
ATOM      8  C   UNL     1       7.363  -5.099  26.568  0.00  0.00    +0.000 C 
BRANCH   8   9
ATOM      9  C   UNL     1       6.320  -5.486  25.525  0.00  0.00    +0.000 C 
ATOM     10 CL   UNL     1       5.108  -6.581  26.237  0.00  0.00    +0.000 Cl
ENDBRANCH   8   9
ENDBRANCH   1   8
BRANCH   4  11
ATOM     11  C   UNL     1       7.511  -2.478  23.556  0.00  0.00    +0.000 C 
BRANCH  11  12
ATOM     12  C   UNL     1       7.531  -1.689  22.274  0.00  0.00    +0.000 C 
ATOM     13  C   UNL     1       8.658  -0.945  21.951  0.00  0.00    +0.000 C 
ATOM     14  C   UNL     1       8.746  -0.192  20.785  0.00  0.00    +0.000 C 
ATOM     15  C   UNL     1       7.652  -0.226  19.943  0.00  0.00    +0.000 C 
ATOM     16  C   UNL     1       6.509  -0.977  20.261  0.00  0.00    +0.000 C 
ATOM     17  C   UNL     1       6.421  -1.712  21.425  0.00  0.00    +0.000 C 
ATOM     18  O   UNL     1       5.607  -0.828  19.263  0.00  0.00    +0.000 OA
ATOM     19  C   UNL     1       6.228  -0.067  18.300  0.00  0.00    +0.000 C 
ATOM     20  O   UNL     1       7.449   0.381  18.751  0.00  0.00    +0.000 OA
ENDBRANCH  11  12
ENDBRANCH   4  11
TORSDOF 4
ENDMDL
MODEL 2
REMARK VINA RESULT:      -6.4      2.926      7.137
REMARK  Name = 
REMARK  4 active torsions:
REMARK  status: ('A' for Active; 'I' for Inactive)
REMARK    1  A    between atoms: C_2  and  C_3
REMARK    2  A    between atoms: C_2  and  N_5
REMARK    3  A    between atoms: N_8  and  C_9
REMARK    4  A    between atoms: C_9  and  C_10
REMARK                            x       y       z     vdW  Elec       q    Type
REMARK                         _______ _______ _______ _____ _____    ______ ____
ROOT
ATOM      1  N   UNL     1       7.852   0.103  20.786  0.00  0.00    +0.000 NA
ATOM      2  C   UNL     1       9.243  -0.157  21.101  0.00  0.00    +0.000 C 
ATOM      3  C   UNL     1       9.375  -0.438  22.613  0.00  0.00    +0.000 C 
ATOM      4  N   UNL     1       8.259  -1.192  23.137  0.00  0.00    +0.000 NA
ATOM      5  C   UNL     1       7.031  -0.413  23.041  0.00  0.00    +0.000 C 
ATOM      6  C   UNL     1       7.061   0.610  21.890  0.00  0.00    +0.000 C 
ENDROOT
BRANCH   1   8
ATOM      7  O   UNL     1       7.911  -0.089  18.543  0.00  0.00    +0.000 OA
ATOM      8  C   UNL     1       7.276  -0.048  19.579  0.00  0.00    +0.000 C 
BRANCH   8   9
ATOM      9  C   UNL     1       5.757  -0.185  19.552  0.00  0.00    +0.000 C 
ATOM     10 CL   UNL     1       5.012   1.313  18.939  0.00  0.00    +0.000 Cl
ENDBRANCH   8   9
ENDBRANCH   1   8
BRANCH   4  11
ATOM     11  C   UNL     1       8.147  -2.537  22.582  0.00  0.00    +0.000 C 
BRANCH  11  12
ATOM     12  C   UNL     1       7.629  -3.505  23.613  0.00  0.00    +0.000 C 
ATOM     13  C   UNL     1       6.680  -4.448  23.242  0.00  0.00    +0.000 C 
ATOM     14  C   UNL     1       6.157  -5.373  24.142  0.00  0.00    +0.000 C 
ATOM     15  C   UNL     1       6.639  -5.318  25.434  0.00  0.00    +0.000 C 
ATOM     16  C   UNL     1       7.600  -4.368  25.817  0.00  0.00    +0.000 C 
ATOM     17  C   UNL     1       8.106  -3.445  24.925  0.00  0.00    +0.000 C 
ATOM     18  O   UNL     1       7.884  -4.550  27.127  0.00  0.00    +0.000 OA
ATOM     19  C   UNL     1       7.173  -5.660  27.520  0.00  0.00    +0.000 C 
ATOM     20  O   UNL     1       6.337  -6.081  26.511  0.00  0.00    +0.000 OA
ENDBRANCH  11  12
ENDBRANCH   4  11
TORSDOF 4
ENDMDL
MODEL 3
REMARK VINA RESULT:      -6.3      2.861      3.932
REMARK  Name = 
REMARK  4 active torsions:
REMARK  status: ('A' for Active; 'I' for Inactive)
REMARK    1  A    between atoms: C_2  and  C_3
REMARK    2  A    between atoms: C_2  and  N_5
REMARK    3  A    between atoms: N_8  and  C_9
REMARK    4  A    between atoms: C_9  and  C_10
REMARK                            x       y       z     vdW  Elec       q    Type
REMARK                         _______ _______ _______ _____ _____    ______ ____
ROOT
ATOM      1  N   UNL     1       6.615  -4.833  24.655  0.00  0.00    +0.000 NA
ATOM      2  C   UNL     1       7.004  -5.405  23.380  0.00  0.00    +0.000 C 
ATOM      3  C   UNL     1       6.822  -4.344  22.274  0.00  0.00    +0.000 C 
ATOM      4  N   UNL     1       7.169  -3.013  22.718  0.00  0.00    +0.000 NA
ATOM      5  C   UNL     1       6.256  -2.574  23.766  0.00  0.00    +0.000 C 
ATOM      6  C   UNL     1       5.661  -3.746  24.569  0.00  0.00    +0.000 C 
ENDROOT
BRANCH   1   8
ATOM      7  O   UNL     1       6.490  -6.157  26.472  0.00  0.00    +0.000 OA
ATOM      8  C   UNL     1       7.029  -5.252  25.864  0.00  0.00    +0.000 C 
BRANCH   8   9
ATOM      9  C   UNL     1       8.241  -4.545  26.462  0.00  0.00    +0.000 C 
ATOM     10 CL   UNL     1       9.737  -5.114  25.680  0.00  0.00    +0.000 Cl
ENDBRANCH   8   9
ENDBRANCH   1   8
BRANCH   4  11
ATOM     11  C   UNL     1       8.578  -2.859  23.064  0.00  0.00    +0.000 C 
BRANCH  11  12
ATOM     12  C   UNL     1       9.044  -1.449  22.814  0.00  0.00    +0.000 C 
ATOM     13  C   UNL     1       8.813  -0.867  21.574  0.00  0.00    +0.000 C 
ATOM     14  C   UNL     1       9.216   0.430  21.272  0.00  0.00    +0.000 C 
ATOM     15  C   UNL     1       9.854   1.128  22.278  0.00  0.00    +0.000 C 
ATOM     16  C   UNL     1      10.090   0.549  23.535  0.00  0.00    +0.000 C 
ATOM     17  C   UNL     1       9.700  -0.743  23.826  0.00  0.00    +0.000 C 
ATOM     18  O   UNL     1      10.722   1.456  24.314  0.00  0.00    +0.000 OA
ATOM     19  C   UNL     1      10.790   2.613  23.571  0.00  0.00    +0.000 C 
ATOM     20  O   UNL     1      10.341   2.391  22.289  0.00  0.00    +0.000 OA
ENDBRANCH  11  12
ENDBRANCH   4  11
TORSDOF 4
ENDMDL
MODEL 4
REMARK VINA RESULT:      -6.3      3.016      3.882
REMARK  Name = 
REMARK  4 active torsions:
REMARK  status: ('A' for Active; 'I' for Inactive)
REMARK    1  A    between atoms: C_2  and  C_3
REMARK    2  A    between atoms: C_2  and  N_5
REMARK    3  A    between atoms: N_8  and  C_9
REMARK    4  A    between atoms: C_9  and  C_10
REMARK                            x       y       z     vdW  Elec       q    Type
REMARK                         _______ _______ _______ _____ _____    ______ ____
ROOT
ATOM      1  N   UNL     1       6.647  -4.498  24.524  0.00  0.00    +0.000 NA
ATOM      2  C   UNL     1       6.467  -3.077  24.297  0.00  0.00    +0.000 C 
ATOM      3  C   UNL     1       7.429  -2.293  25.215  0.00  0.00    +0.000 C 
ATOM      4  N   UNL     1       8.710  -2.946  25.364  0.00  0.00    +0.000 NA
ATOM      5  C   UNL     1       8.552  -4.224  26.047  0.00  0.00    +0.000 C 
ATOM      6  C   UNL     1       7.158  -4.846  25.834  0.00  0.00    +0.000 C 
ENDROOT
BRANCH   1   8
ATOM      7  O   UNL     1       5.394  -6.223  23.798  0.00  0.00    +0.000 OA
ATOM      8  C   UNL     1       6.345  -5.479  23.653  0.00  0.00    +0.000 C 
BRANCH   8   9
ATOM      9  C   UNL     1       7.252  -5.623  22.436  0.00  0.00    +0.000 C 
ATOM     10 CL   UNL     1       6.278  -5.706  20.946  0.00  0.00    +0.000 Cl
ENDBRANCH   8   9
ENDBRANCH   1   8
BRANCH   4  11
ATOM     11  C   UNL     1       9.472  -3.035  24.123  0.00  0.00    +0.000 C 
BRANCH  11  12
ATOM     12  C   UNL     1       9.678  -1.672  23.517  0.00  0.00    +0.000 C 
ATOM     13  C   UNL     1       9.421  -1.484  22.165  0.00  0.00    +0.000 C 
ATOM     14  C   UNL     1       9.590  -0.253  21.539  0.00  0.00    +0.000 C 
ATOM     15  C   UNL     1      10.020   0.791  22.334  0.00  0.00    +0.000 C 
ATOM     16  C   UNL     1      10.280   0.609  23.702  0.00  0.00    +0.000 C 
ATOM     17  C   UNL     1      10.124  -0.616  24.316  0.00  0.00    +0.000 C 
ATOM     18  O   UNL     1      10.679   1.792  24.224  0.00  0.00    +0.000 OA
ATOM     19  C   UNL     1      10.575   2.711  23.205  0.00  0.00    +0.000 C 
ATOM     20  O   UNL     1      10.259   2.086  22.020  0.00  0.00    +0.000 OA
ENDBRANCH  11  12
ENDBRANCH   4  11
TORSDOF 4
ENDMDL
MODEL 5
REMARK VINA RESULT:      -6.3      1.720      2.428
REMARK  Name = 
REMARK  4 active torsions:
REMARK  status: ('A' for Active; 'I' for Inactive)
REMARK    1  A    between atoms: C_2  and  C_3
REMARK    2  A    between atoms: C_2  and  N_5
REMARK    3  A    between atoms: N_8  and  C_9
REMARK    4  A    between atoms: C_9  and  C_10
REMARK                            x       y       z     vdW  Elec       q    Type
REMARK                         _______ _______ _______ _____ _____    ______ ____
ROOT
ATOM      1  N   UNL     1       6.441  -4.703  25.634  0.00  0.00    +0.000 NA
ATOM      2  C   UNL     1       6.184  -5.349  24.360  0.00  0.00    +0.000 C 
ATOM      3  C   UNL     1       5.425  -4.368  23.441  0.00  0.00    +0.000 C 
ATOM      4  N   UNL     1       5.874  -3.002  23.594  0.00  0.00    +0.000 NA
ATOM      5  C   UNL     1       5.571  -2.517  24.935  0.00  0.00    +0.000 C 
ATOM      6  C   UNL     1       5.511  -3.647  25.980  0.00  0.00    +0.000 C 
ENDROOT
BRANCH   1   8
ATOM      7  O   UNL     1       7.321  -5.951  27.289  0.00  0.00    +0.000 OA
ATOM      8  C   UNL     1       7.417  -5.031  26.499  0.00  0.00    +0.000 C 
BRANCH   8   9
ATOM      9  C   UNL     1       8.692  -4.195  26.449  0.00  0.00    +0.000 C 
ATOM     10 CL   UNL     1       9.895  -4.965  25.384  0.00  0.00    +0.000 Cl
ENDBRANCH   8   9
ENDBRANCH   1   8
BRANCH   4  11
ATOM     11  C   UNL     1       7.261  -2.792  23.193  0.00  0.00    +0.000 C 
BRANCH  11  12
ATOM     12  C   UNL     1       7.345  -1.875  22.001  0.00  0.00    +0.000 C 
ATOM     13  C   UNL     1       8.521  -1.175  21.765  0.00  0.00    +0.000 C 
ATOM     14  C   UNL     1       8.669  -0.311  20.684  0.00  0.00    +0.000 C 
ATOM     15  C   UNL     1       7.585  -0.188  19.838  0.00  0.00    +0.000 C 
ATOM     16  C   UNL     1       6.393  -0.894  20.069  0.00  0.00    +0.000 C 
ATOM     17  C   UNL     1       6.246  -1.739  21.150  0.00  0.00    +0.000 C 
ATOM     18  O   UNL     1       5.514  -0.584  19.089  0.00  0.00    +0.000 OA
ATOM     19  C   UNL     1       6.193   0.233  18.214  0.00  0.00    +0.000 C 
ATOM     20  O   UNL     1       7.434   0.553  18.715  0.00  0.00    +0.000 OA
ENDBRANCH  11  12
ENDBRANCH   4  11
TORSDOF 4
ENDMDL
MODEL 6
REMARK VINA RESULT:      -6.2      3.782      5.941
REMARK  Name = 
REMARK  4 active torsions:
REMARK  status: ('A' for Active; 'I' for Inactive)
REMARK    1  A    between atoms: C_2  and  C_3
REMARK    2  A    between atoms: C_2  and  N_5
REMARK    3  A    between atoms: N_8  and  C_9
REMARK    4  A    between atoms: C_9  and  C_10
REMARK                            x       y       z     vdW  Elec       q    Type
REMARK                         _______ _______ _______ _____ _____    ______ ____
ROOT
ATOM      1  N   UNL     1       8.982   2.158  22.747  0.00  0.00    +0.000 NA
ATOM      2  C   UNL     1       7.627   2.565  22.424  0.00  0.00    +0.000 C 
ATOM      3  C   UNL     1       7.057   1.615  21.350  0.00  0.00    +0.000 C 
ATOM      4  N   UNL     1       7.481   0.246  21.537  0.00  0.00    +0.000 NA
ATOM      5  C   UNL     1       8.923   0.134  21.360  0.00  0.00    +0.000 C 
ATOM      6  C   UNL     1       9.669   1.440  21.693  0.00  0.00    +0.000 C 
ENDROOT
BRANCH   1   8
ATOM      7  O   UNL     1       9.402   3.409  24.572  0.00  0.00    +0.000 OA
ATOM      8  C   UNL     1       9.632   2.426  23.894  0.00  0.00    +0.000 C 
BRANCH   8   9
ATOM      9  C   UNL     1      10.690   1.421  24.338  0.00  0.00    +0.000 C 
ATOM     10 CL   UNL     1       9.920   0.018  25.120  0.00  0.00    +0.000 Cl
ENDBRANCH   8   9
ENDBRANCH   1   8
BRANCH   4  11
ATOM     11  C   UNL     1       6.992  -0.357  22.773  0.00  0.00    +0.000 C 
BRANCH  11  12
ATOM     12  C   UNL     1       7.045  -1.860  22.697  0.00  0.00    +0.000 C 
ATOM     13  C   UNL     1       7.824  -2.558  23.611  0.00  0.00    +0.000 C 
ATOM     14  C   UNL     1       7.920  -3.947  23.601  0.00  0.00    +0.000 C 
ATOM     15  C   UNL     1       7.187  -4.609  22.636  0.00  0.00    +0.000 C 
ATOM     16  C   UNL     1       6.396  -3.911  21.710  0.00  0.00    +0.000 C 
ATOM     17  C   UNL     1       6.314  -2.533  21.716  0.00  0.00    +0.000 C 
ATOM     18  O   UNL     1       5.795  -4.809  20.895  0.00  0.00    +0.000 OA
ATOM     19  C   UNL     1       6.143  -6.050  21.377  0.00  0.00    +0.000 C 
ATOM     20  O   UNL     1       7.069  -5.935  22.388  0.00  0.00    +0.000 OA
ENDBRANCH  11  12
ENDBRANCH   4  11
TORSDOF 4
ENDMDL
MODEL 7
REMARK VINA RESULT:      -6.2      2.919      6.886
REMARK  Name = 
REMARK  4 active torsions:
REMARK  status: ('A' for Active; 'I' for Inactive)
REMARK    1  A    between atoms: C_2  and  C_3
REMARK    2  A    between atoms: C_2  and  N_5
REMARK    3  A    between atoms: N_8  and  C_9
REMARK    4  A    between atoms: C_9  and  C_10
REMARK                            x       y       z     vdW  Elec       q    Type
REMARK                         _______ _______ _______ _____ _____    ______ ____
ROOT
ATOM      1  N   UNL     1       7.793  -0.296  21.313  0.00  0.00    +0.000 NA
ATOM      2  C   UNL     1       9.231  -0.483  21.349  0.00  0.00    +0.000 C 
ATOM      3  C   UNL     1       9.676  -0.700  22.810  0.00  0.00    +0.000 C 
ATOM      4  N   UNL     1       8.727  -1.481  23.571  0.00  0.00    +0.000 NA
ATOM      5  C   UNL     1       7.466  -0.761  23.701  0.00  0.00    +0.000 C 
ATOM      6  C   UNL     1       7.215   0.218  22.538  0.00  0.00    +0.000 C 
ENDROOT
BRANCH   1   8
ATOM      7  O   UNL     1       6.046  -1.277  20.285  0.00  0.00    +0.000 OA
ATOM      8  C   UNL     1       6.996  -0.519  20.252  0.00  0.00    +0.000 C 
BRANCH   8   9
ATOM      9  C   UNL     1       7.323   0.244  18.972  0.00  0.00    +0.000 C 
ATOM     10 CL   UNL     1       5.859   0.437  17.976  0.00  0.00    +0.000 Cl
ENDBRANCH   8   9
ENDBRANCH   1   8
BRANCH   4  11
ATOM     11  C   UNL     1       8.574  -2.850  23.089  0.00  0.00    +0.000 C 
BRANCH  11  12
ATOM     12  C   UNL     1       8.051  -3.750  24.177  0.00  0.00    +0.000 C 
ATOM     13  C   UNL     1       8.784  -3.897  25.347  0.00  0.00    +0.000 C 
ATOM     14  C   UNL     1       8.363  -4.711  26.394  0.00  0.00    +0.000 C 
ATOM     15  C   UNL     1       7.161  -5.367  26.220  0.00  0.00    +0.000 C 
ATOM     16  C   UNL     1       6.412  -5.222  25.041  0.00  0.00    +0.000 C 
ATOM     17  C   UNL     1       6.840  -4.424  24.001  0.00  0.00    +0.000 C 
ATOM     18  O   UNL     1       5.290  -5.970  25.151  0.00  0.00    +0.000 OA
ATOM     19  C   UNL     1       5.306  -6.495  26.423  0.00  0.00    +0.000 C 
ATOM     20  O   UNL     1       6.495  -6.203  27.052  0.00  0.00    +0.000 OA
ENDBRANCH  11  12
ENDBRANCH   4  11
TORSDOF 4
ENDMDL
MODEL 8
REMARK VINA RESULT:      -6.1      3.994      6.104
REMARK  Name = 
REMARK  4 active torsions:
REMARK  status: ('A' for Active; 'I' for Inactive)
REMARK    1  A    between atoms: C_2  and  C_3
REMARK    2  A    between atoms: C_2  and  N_5
REMARK    3  A    between atoms: N_8  and  C_9
REMARK    4  A    between atoms: C_9  and  C_10
REMARK                            x       y       z     vdW  Elec       q    Type
REMARK                         _______ _______ _______ _____ _____    ______ ____
ROOT
ATOM      1  N   UNL     1       9.714   1.539  22.969  0.00  0.00    +0.000 NA
ATOM      2  C   UNL     1       9.831   0.514  21.950  0.00  0.00    +0.000 C 
ATOM      3  C   UNL     1      10.314  -0.797  22.605  0.00  0.00    +0.000 C 
ATOM      4  N   UNL     1       9.746  -1.005  23.918  0.00  0.00    +0.000 NA
ATOM      5  C   UNL     1      10.208   0.027  24.838  0.00  0.00    +0.000 C 
ATOM      6  C   UNL     1      10.564   1.346  24.127  0.00  0.00    +0.000 C 
ENDROOT
BRANCH   1   8
ATOM      7  O   UNL     1       9.196   3.671  23.479  0.00  0.00    +0.000 OA
ATOM      8  C   UNL     1       8.935   2.634  22.900  0.00  0.00    +0.000 C 
BRANCH   8   9
ATOM      9  C   UNL     1       7.683   2.536  22.035  0.00  0.00    +0.000 C 
ATOM     10 CL   UNL     1       6.570   3.877  22.402  0.00  0.00    +0.000 Cl
ENDBRANCH   8   9
ENDBRANCH   1   8
BRANCH   4  11
ATOM     11  C   UNL     1       8.298  -1.179  23.910  0.00  0.00    +0.000 C 
BRANCH  11  12
ATOM     12  C   UNL     1       7.924  -2.570  23.471  0.00  0.00    +0.000 C 
ATOM     13  C   UNL     1       8.443  -3.661  24.158  0.00  0.00    +0.000 C 
ATOM     14  C   UNL     1       8.141  -4.974  23.808  0.00  0.00    +0.000 C 
ATOM     15  C   UNL     1       7.283  -5.147  22.741  0.00  0.00    +0.000 C 
ATOM     16  C   UNL     1       6.752  -4.050  22.043  0.00  0.00    +0.000 C 
ATOM     17  C   UNL     1       7.064  -2.750  22.385  0.00  0.00    +0.000 C 
ATOM     18  O   UNL     1       5.949  -4.515  21.059  0.00  0.00    +0.000 OA
ATOM     19  C   UNL     1       5.914  -5.883  21.212  0.00  0.00    +0.000 C 
ATOM     20  O   UNL     1       6.802  -6.283  22.184  0.00  0.00    +0.000 OA
ENDBRANCH  11  12
ENDBRANCH   4  11
TORSDOF 4
ENDMDL
MODEL 9
REMARK VINA RESULT:      -6.1      4.099      6.096
REMARK  Name = 
REMARK  4 active torsions:
REMARK  status: ('A' for Active; 'I' for Inactive)
REMARK    1  A    between atoms: C_2  and  C_3
REMARK    2  A    between atoms: C_2  and  N_5
REMARK    3  A    between atoms: N_8  and  C_9
REMARK    4  A    between atoms: C_9  and  C_10
REMARK                            x       y       z     vdW  Elec       q    Type
REMARK                         _______ _______ _______ _____ _____    ______ ____
ROOT
ATOM      1  N   UNL     1      10.049   1.599  23.295  0.00  0.00    +0.000 NA
ATOM      2  C   UNL     1       9.940   0.792  22.095  0.00  0.00    +0.000 C 
ATOM      3  C   UNL     1      10.165  -0.690  22.461  0.00  0.00    +0.000 C 
ATOM      4  N   UNL     1       9.593  -1.040  23.741  0.00  0.00    +0.000 NA
ATOM      5  C   UNL     1      10.267  -0.318  24.812  0.00  0.00    +0.000 C 
ATOM      6  C   UNL     1      10.865   1.023  24.345  0.00  0.00    +0.000 C 
ENDROOT
BRANCH   1   8
ATOM      7  O   UNL     1      10.163   3.825  23.619  0.00  0.00    +0.000 OA
ATOM      8  C   UNL     1       9.501   2.814  23.479  0.00  0.00    +0.000 C 
BRANCH   8   9
ATOM      9  C   UNL     1       7.978   2.889  23.494  0.00  0.00    +0.000 C 
ATOM     10 CL   UNL     1       7.401   3.996  22.223  0.00  0.00    +0.000 Cl
ENDBRANCH   8   9
ENDBRANCH   1   8
BRANCH   4  11
ATOM     11  C   UNL     1       8.138  -0.930  23.784  0.00  0.00    +0.000 C 
BRANCH  11  12
ATOM     12  C   UNL     1       7.489  -2.081  23.062  0.00  0.00    +0.000 C 
ATOM     13  C   UNL     1       6.539  -1.819  22.083  0.00  0.00    +0.000 C 
ATOM     14  C   UNL     1       5.898  -2.833  21.376  0.00  0.00    +0.000 C 
ATOM     15  C   UNL     1       6.261  -4.128  21.688  0.00  0.00    +0.000 C 
ATOM     16  C   UNL     1       7.221  -4.401  22.676  0.00  0.00    +0.000 C 
ATOM     17  C   UNL     1       7.845  -3.393  23.383  0.00  0.00    +0.000 C 
ATOM     18  O   UNL     1       7.376  -5.742  22.764  0.00  0.00    +0.000 OA
ATOM     19  C   UNL     1       6.586  -6.282  21.775  0.00  0.00    +0.000 C 
ATOM     20  O   UNL     1       5.830  -5.302  21.172  0.00  0.00    +0.000 OA
ENDBRANCH  11  12
ENDBRANCH   4  11
TORSDOF 4
ENDMDL
