MODEL 1
REMARK VINA RESULT:      -7.2      0.000      0.000
REMARK  Name = 
REMARK  4 active torsions:
REMARK  status: ('A' for Active; 'I' for Inactive)
REMARK    1  A    between atoms: C_2  and  C_3
REMARK    2  A    between atoms: N_8  and  S_9
REMARK    3  A    between atoms: S_9  and  C_12
REMARK    4  A    between atoms: C_15  and  N_16
REMARK                            x       y       z     vdW  Elec       q    Type
REMARK                         _______ _______ _______ _____ _____    ______ ____
ROOT
ATOM      1  S   UNL     1       9.265  -0.981  22.867  0.00  0.00    +0.000 S 
ATOM      2  O   UNL     1       9.753   0.266  23.411  0.00  0.00    +0.000 OA
ATOM      3  O   UNL     1      10.069  -1.783  21.960  0.00  0.00    +0.000 OA
ENDROOT
BRANCH   1   9
ATOM      4  O   UNL     1       8.247  -5.746  22.902  0.00  0.00    +0.000 OA
ATOM      5  C   UNL     1       7.283  -5.107  23.334  0.00  0.00    +0.000 C 
ATOM      6  N   UNL     1       7.431  -4.303  24.468  0.00  0.00    +0.000 N 
ATOM      7  C   UNL     1       6.639  -3.109  24.799  0.00  0.00    +0.000 C 
ATOM      8  C   UNL     1       7.512  -1.816  24.853  0.00  0.00    +0.000 C 
ATOM      9  N   UNL     1       8.816  -1.959  24.152  0.00  0.00    +0.000 NA
ATOM     10  C   UNL     1       9.612  -3.183  24.414  0.00  0.00    +0.000 C 
ATOM     11  C   UNL     1       8.763  -4.270  25.076  0.00  0.00    +0.000 C 
BRANCH   5  12
ATOM     12  C   UNL     1       5.897  -5.249  22.714  0.00  0.00    +0.000 C 
ATOM     13 CL   UNL     1       6.015  -5.761  21.011  0.00  0.00    +0.000 Cl
ENDBRANCH   5  12
ENDBRANCH   1   9
BRANCH   1  14
ATOM     14  C   UNL     1       7.768  -0.559  21.989  0.00  0.00    +0.000 A 
ATOM     15  C   UNL     1       6.959  -1.598  21.511  0.00  0.00    +0.000 A 
ATOM     16  C   UNL     1       6.237  -1.392  20.338  0.00  0.00    +0.000 A 
ATOM     17  C   UNL     1       6.334  -0.146  19.707  0.00  0.00    +0.000 A 
ATOM     18  C   UNL     1       6.918   0.955  20.318  0.00  0.00    +0.000 A 
ATOM     19  C   UNL     1       7.648   0.726  21.467  0.00  0.00    +0.000 A 
BRANCH  17  20
ATOM     20  N   UNL     1       6.329  -0.127  18.257  0.00  0.00    +0.000 N 
ATOM     21  O   UNL     1       6.013  -1.174  17.678  0.00  0.00    +0.000 OA
ATOM     22  O   UNL     1       6.610   0.951  17.719  0.00  0.00    +0.000 OA
ENDBRANCH  17  20
ENDBRANCH   1  14
TORSDOF 4
ENDMDL
MODEL 2
REMARK VINA RESULT:      -6.9      1.530      1.977
REMARK  Name = 
REMARK  4 active torsions:
REMARK  status: ('A' for Active; 'I' for Inactive)
REMARK    1  A    between atoms: C_2  and  C_3
REMARK    2  A    between atoms: N_8  and  S_9
REMARK    3  A    between atoms: S_9  and  C_12
REMARK    4  A    between atoms: C_15  and  N_16
REMARK                            x       y       z     vdW  Elec       q    Type
REMARK                         _______ _______ _______ _____ _____    ______ ____
ROOT
ATOM      1  S   UNL     1       8.120   0.098  23.566  0.00  0.00    +0.000 S 
ATOM      2  O   UNL     1       6.798   0.414  24.057  0.00  0.00    +0.000 OA
ATOM      3  O   UNL     1       9.158   1.110  23.468  0.00  0.00    +0.000 OA
ENDROOT
BRANCH   1   9
ATOM      4  O   UNL     1       7.710  -4.706  22.857  0.00  0.00    +0.000 OA
ATOM      5  C   UNL     1       7.251  -4.403  23.962  0.00  0.00    +0.000 C 
ATOM      6  N   UNL     1       8.072  -3.793  24.916  0.00  0.00    +0.000 N 
ATOM      7  C   UNL     1       7.633  -2.901  26.000  0.00  0.00    +0.000 C 
ATOM      8  C   UNL     1       8.226  -1.463  25.861  0.00  0.00    +0.000 C 
ATOM      9  N   UNL     1       8.721  -1.164  24.490  0.00  0.00    +0.000 NA
ATOM     10  C   UNL     1       9.564  -2.185  23.820  0.00  0.00    +0.000 C 
ATOM     11  C   UNL     1       9.458  -3.542  24.519  0.00  0.00    +0.000 C 
BRANCH   5  12
ATOM     12  C   UNL     1       5.822  -4.769  24.354  0.00  0.00    +0.000 C 
ATOM     13 CL   UNL     1       4.690  -3.467  23.905  0.00  0.00    +0.000 Cl
ENDBRANCH   5  12
ENDBRANCH   1   9
BRANCH   1  14
ATOM     14  C   UNL     1       7.870  -0.540  21.916  0.00  0.00    +0.000 A 
ATOM     15  C   UNL     1       8.530   0.086  20.851  0.00  0.00    +0.000 A 
ATOM     16  C   UNL     1       7.909   0.107  19.604  0.00  0.00    +0.000 A 
ATOM     17  C   UNL     1       6.666  -0.523  19.469  0.00  0.00    +0.000 A 
ATOM     18  C   UNL     1       6.145  -1.360  20.447  0.00  0.00    +0.000 A 
ATOM     19  C   UNL     1       6.762  -1.350  21.681  0.00  0.00    +0.000 A 
BRANCH  17  20
ATOM     20  N   UNL     1       5.691   0.099  18.595  0.00  0.00    +0.000 N 
ATOM     21  O   UNL     1       4.952   0.960  19.091  0.00  0.00    +0.000 OA
ATOM     22  O   UNL     1       5.703  -0.261  17.411  0.00  0.00    +0.000 OA
ENDBRANCH  17  20
ENDBRANCH   1  14
TORSDOF 4
ENDMDL
MODEL 3
REMARK VINA RESULT:      -6.8      2.237      2.777
REMARK  Name = 
REMARK  4 active torsions:
REMARK  status: ('A' for Active; 'I' for Inactive)
REMARK    1  A    between atoms: C_2  and  C_3
REMARK    2  A    between atoms: N_8  and  S_9
REMARK    3  A    between atoms: S_9  and  C_12
REMARK    4  A    between atoms: C_15  and  N_16
REMARK                            x       y       z     vdW  Elec       q    Type
REMARK                         _______ _______ _______ _____ _____    ______ ____
ROOT
ATOM      1  S   UNL     1       7.625  -0.858  23.668  0.00  0.00    +0.000 S 
ATOM      2  O   UNL     1       6.203  -0.970  23.896  0.00  0.00    +0.000 OA
ATOM      3  O   UNL     1       8.504  -0.221  24.637  0.00  0.00    +0.000 OA
ENDROOT
BRANCH   1   9
ATOM      4  O   UNL     1       5.912  -5.163  25.175  0.00  0.00    +0.000 OA
ATOM      5  C   UNL     1       7.079  -5.019  25.552  0.00  0.00    +0.000 C 
ATOM      6  N   UNL     1       8.098  -4.838  24.611  0.00  0.00    +0.000 N 
ATOM      7  C   UNL     1       9.372  -4.137  24.832  0.00  0.00    +0.000 C 
ATOM      8  C   UNL     1       9.517  -2.875  23.923  0.00  0.00    +0.000 C 
ATOM      9  N   UNL     1       8.220  -2.397  23.373  0.00  0.00    +0.000 NA
ATOM     10  C   UNL     1       7.301  -3.404  22.789  0.00  0.00    +0.000 C 
ATOM     11  C   UNL     1       7.694  -4.823  23.205  0.00  0.00    +0.000 C 
BRANCH   5  12
ATOM     12  C   UNL     1       7.456  -5.133  27.025  0.00  0.00    +0.000 C 
ATOM     13 CL   UNL     1       6.034  -4.859  28.065  0.00  0.00    +0.000 Cl
ENDBRANCH   5  12
ENDBRANCH   1   9
BRANCH   1  14
ATOM     14  C   UNL     1       7.789   0.063  22.146  0.00  0.00    +0.000 A 
ATOM     15  C   UNL     1       6.848   1.063  21.867  0.00  0.00    +0.000 A 
ATOM     16  C   UNL     1       6.517   1.310  20.536  0.00  0.00    +0.000 A 
ATOM     17  C   UNL     1       7.160   0.565  19.540  0.00  0.00    +0.000 A 
ATOM     18  C   UNL     1       8.269  -0.228  19.803  0.00  0.00    +0.000 A 
ATOM     19  C   UNL     1       8.567  -0.479  21.127  0.00  0.00    +0.000 A 
BRANCH  17  20
ATOM     20  N   UNL     1       6.379   0.183  18.380  0.00  0.00    +0.000 N 
ATOM     21  O   UNL     1       5.949  -0.976  18.343  0.00  0.00    +0.000 OA
ATOM     22  O   UNL     1       6.180   1.066  17.536  0.00  0.00    +0.000 OA
ENDBRANCH  17  20
ENDBRANCH   1  14
TORSDOF 4
ENDMDL
MODEL 4
REMARK VINA RESULT:      -6.5      3.281      4.089
REMARK  Name = 
REMARK  4 active torsions:
REMARK  status: ('A' for Active; 'I' for Inactive)
REMARK    1  A    between atoms: C_2  and  C_3
REMARK    2  A    between atoms: N_8  and  S_9
REMARK    3  A    between atoms: S_9  and  C_12
REMARK    4  A    between atoms: C_15  and  N_16
REMARK                            x       y       z     vdW  Elec       q    Type
REMARK                         _______ _______ _______ _____ _____    ______ ____
ROOT
ATOM      1  S   UNL     1       9.309  -2.032  23.235  0.00  0.00    +0.000 S 
ATOM      2  O   UNL     1      10.342  -2.908  23.738  0.00  0.00    +0.000 OA
ATOM      3  O   UNL     1       8.627  -2.301  21.979  0.00  0.00    +0.000 OA
ENDROOT
BRANCH   1   9
ATOM      4  O   UNL     1       7.400  -5.449  26.136  0.00  0.00    +0.000 OA
ATOM      5  C   UNL     1       6.504  -4.896  25.491  0.00  0.00    +0.000 C 
ATOM      6  N   UNL     1       6.300  -3.519  25.620  0.00  0.00    +0.000 N 
ATOM      7  C   UNL     1       5.715  -2.627  24.608  0.00  0.00    +0.000 C 
ATOM      8  C   UNL     1       6.725  -1.538  24.125  0.00  0.00    +0.000 C 
ATOM      9  N   UNL     1       8.142  -1.878  24.427  0.00  0.00    +0.000 NA
ATOM     10  C   UNL     1       8.461  -2.372  25.789  0.00  0.00    +0.000 C 
ATOM     11  C   UNL     1       7.197  -2.809  26.533  0.00  0.00    +0.000 C 
BRANCH   5  12
ATOM     12  C   UNL     1       5.541  -5.700  24.623  0.00  0.00    +0.000 C 
ATOM     13 CL   UNL     1       4.628  -6.871  25.608  0.00  0.00    +0.000 Cl
ENDBRANCH   5  12
ENDBRANCH   1   9
BRANCH   1  14
ATOM     14  C   UNL     1      10.089  -0.434  23.062  0.00  0.00    +0.000 A 
ATOM     15  C   UNL     1      10.570   0.202  24.213  0.00  0.00    +0.000 A 
ATOM     16  C   UNL     1      10.548   1.594  24.262  0.00  0.00    +0.000 A 
ATOM     17  C   UNL     1      10.070   2.292  23.145  0.00  0.00    +0.000 A 
ATOM     18  C   UNL     1       9.846   1.675  21.922  0.00  0.00    +0.000 A 
ATOM     19  C   UNL     1       9.851   0.295  21.900  0.00  0.00    +0.000 A 
BRANCH  17  20
ATOM     20  N   UNL     1       9.304   3.498  23.387  0.00  0.00    +0.000 N 
ATOM     21  O   UNL     1       9.873   4.421  23.984  0.00  0.00    +0.000 OA
ATOM     22  O   UNL     1       8.149   3.516  22.944  0.00  0.00    +0.000 OA
ENDBRANCH  17  20
ENDBRANCH   1  14
TORSDOF 4
ENDMDL
MODEL 5
REMARK VINA RESULT:      -6.5      1.887      2.419
REMARK  Name = 
REMARK  4 active torsions:
REMARK  status: ('A' for Active; 'I' for Inactive)
REMARK    1  A    between atoms: C_2  and  C_3
REMARK    2  A    between atoms: N_8  and  S_9
REMARK    3  A    between atoms: S_9  and  C_12
REMARK    4  A    between atoms: C_15  and  N_16
REMARK                            x       y       z     vdW  Elec       q    Type
REMARK                         _______ _______ _______ _____ _____    ______ ____
ROOT
ATOM      1  S   UNL     1       7.192  -0.270  25.073  0.00  0.00    +0.000 S 
ATOM      2  O   UNL     1       5.830   0.190  24.928  0.00  0.00    +0.000 OA
ATOM      3  O   UNL     1       8.236   0.594  25.600  0.00  0.00    +0.000 OA
ENDROOT
BRANCH   1   9
ATOM      4  O   UNL     1       8.761  -4.745  23.954  0.00  0.00    +0.000 OA
ATOM      5  C   UNL     1       7.564  -4.782  24.254  0.00  0.00    +0.000 C 
ATOM      6  N   UNL     1       7.151  -4.363  25.523  0.00  0.00    +0.000 N 
ATOM      7  C   UNL     1       5.827  -3.827  25.874  0.00  0.00    +0.000 C 
ATOM      8  C   UNL     1       5.902  -2.352  26.382  0.00  0.00    +0.000 C 
ATOM      9  N   UNL     1       7.165  -1.665  26.002  0.00  0.00    +0.000 NA
ATOM     10  C   UNL     1       8.440  -2.394  26.209  0.00  0.00    +0.000 C 
ATOM     11  C   UNL     1       8.198  -3.889  26.428  0.00  0.00    +0.000 C 
BRANCH   5  12
ATOM     12  C   UNL     1       6.526  -5.370  23.304  0.00  0.00    +0.000 C 
ATOM     13 CL   UNL     1       7.241  -5.683  21.702  0.00  0.00    +0.000 Cl
ENDBRANCH   5  12
ENDBRANCH   1   9
BRANCH   1  14
ATOM     14  C   UNL     1       7.705  -0.750  23.430  0.00  0.00    +0.000 A 
ATOM     15  C   UNL     1       8.756  -0.047  22.827  0.00  0.00    +0.000 A 
ATOM     16  C   UNL     1       8.746   0.102  21.442  0.00  0.00    +0.000 A 
ATOM     17  C   UNL     1       7.700  -0.481  20.716  0.00  0.00    +0.000 A 
ATOM     18  C   UNL     1       6.817  -1.390  21.284  0.00  0.00    +0.000 A 
ATOM     19  C   UNL     1       6.827  -1.507  22.659  0.00  0.00    +0.000 A 
BRANCH  17  20
ATOM     20  N   UNL     1       7.199   0.242  19.564  0.00  0.00    +0.000 N 
ATOM     21  O   UNL     1       6.273   1.040  19.755  0.00  0.00    +0.000 OA
ATOM     22  O   UNL     1       7.767   0.023  18.487  0.00  0.00    +0.000 OA
ENDBRANCH  17  20
ENDBRANCH   1  14
TORSDOF 4
ENDMDL
MODEL 6
REMARK VINA RESULT:      -6.5      3.560      6.237
REMARK  Name = 
REMARK  4 active torsions:
REMARK  status: ('A' for Active; 'I' for Inactive)
REMARK    1  A    between atoms: C_2  and  C_3
REMARK    2  A    between atoms: N_8  and  S_9
REMARK    3  A    between atoms: S_9  and  C_12
REMARK    4  A    between atoms: C_15  and  N_16
REMARK                            x       y       z     vdW  Elec       q    Type
REMARK                         _______ _______ _______ _____ _____    ______ ____
ROOT
ATOM      1  S   UNL     1       6.712  -2.003  22.277  0.00  0.00    +0.000 S 
ATOM      2  O   UNL     1       6.314  -1.222  23.426  0.00  0.00    +0.000 OA
ATOM      3  O   UNL     1       5.962  -1.965  21.032  0.00  0.00    +0.000 OA
ENDROOT
BRANCH   1   9
ATOM      4  O   UNL     1      10.096   0.027  25.136  0.00  0.00    +0.000 OA
ATOM      5  C   UNL     1       9.935   0.713  24.122  0.00  0.00    +0.000 C 
ATOM      6  N   UNL     1      10.169   0.158  22.860  0.00  0.00    +0.000 N 
ATOM      7  C   UNL     1       9.547   0.577  21.596  0.00  0.00    +0.000 C 
ATOM      8  C   UNL     1       8.682  -0.555  20.958  0.00  0.00    +0.000 C 
ATOM      9  N   UNL     1       8.306  -1.621  21.926  0.00  0.00    +0.000 NA
ATOM     10  C   UNL     1       9.368  -2.159  22.810  0.00  0.00    +0.000 C 
ATOM     11  C   UNL     1      10.593  -1.243  22.831  0.00  0.00    +0.000 C 
BRANCH   5  12
ATOM     12  C   UNL     1       9.579   2.193  24.215  0.00  0.00    +0.000 C 
ATOM     13 CL   UNL     1      10.868   3.200  23.508  0.00  0.00    +0.000 Cl
ENDBRANCH   5  12
ENDBRANCH   1   9
BRANCH   1  14
ATOM     14  C   UNL     1       6.696  -3.701  22.833  0.00  0.00    +0.000 A 
ATOM     15  C   UNL     1       6.573  -4.716  21.874  0.00  0.00    +0.000 A 
ATOM     16  C   UNL     1       5.910  -5.888  22.230  0.00  0.00    +0.000 A 
ATOM     17  C   UNL     1       5.421  -6.007  23.537  0.00  0.00    +0.000 A 
ATOM     18  C   UNL     1       5.773  -5.121  24.546  0.00  0.00    +0.000 A 
ATOM     19  C   UNL     1       6.410  -3.956  24.171  0.00  0.00    +0.000 A 
BRANCH  17  20
ATOM     20  N   UNL     1       4.158  -6.694  23.720  0.00  0.00    +0.000 N 
ATOM     21  O   UNL     1       4.130  -7.621  24.540  0.00  0.00    +0.000 OA
ATOM     22  O   UNL     1       3.200  -6.270  23.061  0.00  0.00    +0.000 OA
ENDBRANCH  17  20
ENDBRANCH   1  14
TORSDOF 4
ENDMDL
MODEL 7
REMARK VINA RESULT:      -6.5      2.872      5.421
REMARK  Name = 
REMARK  4 active torsions:
REMARK  status: ('A' for Active; 'I' for Inactive)
REMARK    1  A    between atoms: C_2  and  C_3
REMARK    2  A    between atoms: N_8  and  S_9
REMARK    3  A    between atoms: S_9  and  C_12
REMARK    4  A    between atoms: C_15  and  N_16
REMARK                            x       y       z     vdW  Elec       q    Type
REMARK                         _______ _______ _______ _____ _____    ______ ____
ROOT
ATOM      1  S   UNL     1       8.869  -3.280  24.743  0.00  0.00    +0.000 S 
ATOM      2  O   UNL     1       9.791  -4.366  24.501  0.00  0.00    +0.000 OA
ATOM      3  O   UNL     1       8.312  -3.033  26.062  0.00  0.00    +0.000 OA
ENDROOT
BRANCH   1   9
ATOM      4  O   UNL     1       6.811   0.823  23.108  0.00  0.00    +0.000 OA
ATOM      5  C   UNL     1       7.580   0.370  22.256  0.00  0.00    +0.000 C 
ATOM      6  N   UNL     1       8.937   0.209  22.555  0.00  0.00    +0.000 N 
ATOM      7  C   UNL     1       9.855  -0.762  21.941  0.00  0.00    +0.000 C 
ATOM      8  C   UNL     1      10.411  -1.788  22.979  0.00  0.00    +0.000 C 
ATOM      9  N   UNL     1       9.598  -1.863  24.223  0.00  0.00    +0.000 NA
ATOM     10  C   UNL     1       9.189  -0.588  24.861  0.00  0.00    +0.000 C 
ATOM     11  C   UNL     1       9.358   0.593  23.903  0.00  0.00    +0.000 C 
BRANCH   5  12
ATOM     12  C   UNL     1       7.104   0.069  20.838  0.00  0.00    +0.000 C 
ATOM     13 CL   UNL     1       6.313  -1.526  20.761  0.00  0.00    +0.000 Cl
ENDBRANCH   5  12
ENDBRANCH   1   9
BRANCH   1  14
ATOM     14  C   UNL     1       7.487  -3.583  23.652  0.00  0.00    +0.000 A 
ATOM     15  C   UNL     1       6.263  -2.965  23.938  0.00  0.00    +0.000 A 
ATOM     16  C   UNL     1       5.087  -3.630  23.596  0.00  0.00    +0.000 A 
ATOM     17  C   UNL     1       5.187  -4.873  22.958  0.00  0.00    +0.000 A 
ATOM     18  C   UNL     1       6.384  -5.352  22.444  0.00  0.00    +0.000 A 
ATOM     19  C   UNL     1       7.539  -4.692  22.812  0.00  0.00    +0.000 A 
BRANCH  17  20
ATOM     20  N   UNL     1       4.205  -5.883  23.301  0.00  0.00    +0.000 N 
ATOM     21  O   UNL     1       3.091  -5.794  22.768  0.00  0.00    +0.000 OA
ATOM     22  O   UNL     1       4.577  -6.772  24.076  0.00  0.00    +0.000 OA
ENDBRANCH  17  20
ENDBRANCH   1  14
TORSDOF 4
ENDMDL
MODEL 8
REMARK VINA RESULT:      -6.5      3.093      6.695
REMARK  Name = 
REMARK  4 active torsions:
REMARK  status: ('A' for Active; 'I' for Inactive)
REMARK    1  A    between atoms: C_2  and  C_3
REMARK    2  A    between atoms: N_8  and  S_9
REMARK    3  A    between atoms: S_9  and  C_12
REMARK    4  A    between atoms: C_15  and  N_16
REMARK                            x       y       z     vdW  Elec       q    Type
REMARK                         _______ _______ _______ _____ _____    ______ ____
ROOT
ATOM      1  S   UNL     1       8.379  -1.207  25.476  0.00  0.00    +0.000 S 
ATOM      2  O   UNL     1       9.030  -0.962  26.743  0.00  0.00    +0.000 OA
ATOM      3  O   UNL     1       7.072  -0.649  25.170  0.00  0.00    +0.000 OA
ENDROOT
BRANCH   1   9
ATOM      4  O   UNL     1       7.570   1.710  21.658  0.00  0.00    +0.000 OA
ATOM      5  C   UNL     1       7.956   0.605  21.268  0.00  0.00    +0.000 C 
ATOM      6  N   UNL     1       9.207   0.122  21.667  0.00  0.00    +0.000 N 
ATOM      7  C   UNL     1       9.600  -1.290  21.780  0.00  0.00    +0.000 C 
ATOM      8  C   UNL     1       9.963  -1.688  23.246  0.00  0.00    +0.000 C 
ATOM      9  N   UNL     1       9.432  -0.738  24.260  0.00  0.00    +0.000 NA
ATOM     10  C   UNL     1       9.615   0.713  24.012  0.00  0.00    +0.000 C 
ATOM     11  C   UNL     1       9.988   0.987  22.553  0.00  0.00    +0.000 C 
BRANCH   5  12
ATOM     12  C   UNL     1       7.140  -0.215  20.274  0.00  0.00    +0.000 C 
ATOM     13 CL   UNL     1       7.438   0.335  18.605  0.00  0.00    +0.000 Cl
ENDBRANCH   5  12
ENDBRANCH   1   9
BRANCH   1  14
ATOM     14  C   UNL     1       8.216  -2.983  25.365  0.00  0.00    +0.000 A 
ATOM     15  C   UNL     1       7.067  -3.511  24.762  0.00  0.00    +0.000 A 
ATOM     16  C   UNL     1       6.580  -4.734  25.220  0.00  0.00    +0.000 A 
ATOM     17  C   UNL     1       7.279  -5.389  26.242  0.00  0.00    +0.000 A 
ATOM     18  C   UNL     1       8.547  -4.996  26.647  0.00  0.00    +0.000 A 
ATOM     19  C   UNL     1       9.003  -3.772  26.200  0.00  0.00    +0.000 A 
BRANCH  17  20
ATOM     20  N   UNL     1       6.500  -6.105  27.233  0.00  0.00    +0.000 N 
ATOM     21  O   UNL     1       6.883  -6.043  28.408  0.00  0.00    +0.000 OA
ATOM     22  O   UNL     1       5.493  -6.694  26.821  0.00  0.00    +0.000 OA
ENDBRANCH  17  20
ENDBRANCH   1  14
TORSDOF 4
ENDMDL
MODEL 9
REMARK VINA RESULT:      -6.4      2.815      5.081
REMARK  Name = 
REMARK  4 active torsions:
REMARK  status: ('A' for Active; 'I' for Inactive)
REMARK    1  A    between atoms: C_2  and  C_3
REMARK    2  A    between atoms: N_8  and  S_9
REMARK    3  A    between atoms: S_9  and  C_12
REMARK    4  A    between atoms: C_15  and  N_16
REMARK                            x       y       z     vdW  Elec       q    Type
REMARK                         _______ _______ _______ _____ _____    ______ ____
ROOT
ATOM      1  S   UNL     1       8.265  -0.691  25.562  0.00  0.00    +0.000 S 
ATOM      2  O   UNL     1       8.914  -1.361  26.666  0.00  0.00    +0.000 OA
ATOM      3  O   UNL     1       7.570   0.573  25.740  0.00  0.00    +0.000 OA
ENDROOT
BRANCH   1   9
ATOM      4  O   UNL     1       7.873   1.743  21.360  0.00  0.00    +0.000 OA
ATOM      5  C   UNL     1       8.171   0.566  21.137  0.00  0.00    +0.000 C 
ATOM      6  N   UNL     1       9.355   0.036  21.658  0.00  0.00    +0.000 N 
ATOM      7  C   UNL     1       9.612  -1.377  21.974  0.00  0.00    +0.000 C 
ATOM      8  C   UNL     1       9.881  -1.604  23.496  0.00  0.00    +0.000 C 
ATOM      9  N   UNL     1       9.402  -0.483  24.349  0.00  0.00    +0.000 NA
ATOM     10  C   UNL     1       9.727   0.900  23.922  0.00  0.00    +0.000 C 
ATOM     11  C   UNL     1      10.179   0.941  22.461  0.00  0.00    +0.000 C 
BRANCH   5  12
ATOM     12  C   UNL     1       7.320  -0.307  20.220  0.00  0.00    +0.000 C 
ATOM     13 CL   UNL     1       7.244   0.387  18.580  0.00  0.00    +0.000 Cl
ENDBRANCH   5  12
ENDBRANCH   1   9
BRANCH   1  14
ATOM     14  C   UNL     1       7.058  -1.857  24.947  0.00  0.00    +0.000 A 
ATOM     15  C   UNL     1       7.144  -3.190  25.368  0.00  0.00    +0.000 A 
ATOM     16  C   UNL     1       6.736  -4.192  24.489  0.00  0.00    +0.000 A 
ATOM     17  C   UNL     1       6.235  -3.815  23.237  0.00  0.00    +0.000 A 
ATOM     18  C   UNL     1       5.908  -2.501  22.931  0.00  0.00    +0.000 A 
ATOM     19  C   UNL     1       6.340  -1.522  23.803  0.00  0.00    +0.000 A 
BRANCH  17  20
ATOM     20  N   UNL     1       6.560  -4.659  22.104  0.00  0.00    +0.000 N 
ATOM     21  O   UNL     1       5.907  -4.490  21.066  0.00  0.00    +0.000 OA
ATOM     22  O   UNL     1       7.490  -5.459  22.262  0.00  0.00    +0.000 OA
ENDBRANCH  17  20
ENDBRANCH   1  14
TORSDOF 4
ENDMDL
