MODEL 1
REMARK VINA RESULT:      -6.4      0.000      0.000
REMARK  Name = 
REMARK  3 active torsions:
REMARK  status: ('A' for Active; 'I' for Inactive)
REMARK    1  A    between atoms: C_2  and  C_3
REMARK    2  A    between atoms: N_8  and  C_9
REMARK    3  A    between atoms: C_9  and  C_10
REMARK                            x       y       z     vdW  Elec       q    Type
REMARK                         _______ _______ _______ _____ _____    ______ ____
ROOT
ATOM      1  O   UNL     1       9.940  -4.673  24.866  0.00  0.00    +0.000 OA
ATOM      2  C   UNL     1       8.921  -4.000  24.692  0.00  0.00    +0.000 C 
ATOM      3  N   UNL     1       8.968  -2.781  24.029  0.00  0.00    +0.000 N 
ATOM      4  C   UNL     1       7.812  -1.956  23.681  0.00  0.00    +0.000 C 
ATOM      5  C   UNL     1       7.829  -1.619  22.181  0.00  0.00    +0.000 C 
ATOM      6  N   UNL     1       9.037  -0.900  21.759  0.00  0.00    +0.000 NA
ATOM      7  C   UNL     1      10.161  -0.995  22.703  0.00  0.00    +0.000 C 
ATOM      8  C   UNL     1      10.238  -2.365  23.417  0.00  0.00    +0.000 C 
ENDROOT
BRANCH   2   9
ATOM      9  C   UNL     1       7.586  -4.487  25.225  0.00  0.00    +0.000 C 
ATOM     10 CL   UNL     1       7.829  -5.335  26.767  0.00  0.00    +0.000 Cl
ENDBRANCH   2   9
BRANCH   6  11
ATOM     11  C   UNL     1       8.817   0.422  21.170  0.00  0.00    +0.000 C 
BRANCH  11  12
ATOM     12  C   UNL     1       7.575   0.633  20.318  0.00  0.00    +0.000 A 
ATOM     13  C   UNL     1       7.428   0.089  19.034  0.00  0.00    +0.000 A 
ATOM     14  C   UNL     1       6.279   0.322  18.275  0.00  0.00    +0.000 A 
ATOM     15  C   UNL     1       5.273   1.148  18.770  0.00  0.00    +0.000 A 
ATOM     16  C   UNL     1       5.422   1.737  20.019  0.00  0.00    +0.000 A 
ATOM     17  C   UNL     1       6.560   1.481  20.791  0.00  0.00    +0.000 A 
ENDBRANCH  11  12
ENDBRANCH   6  11
TORSDOF 3
ENDMDL
MODEL 2
REMARK VINA RESULT:      -6.0      3.207      4.467
REMARK  Name = 
REMARK  3 active torsions:
REMARK  status: ('A' for Active; 'I' for Inactive)
REMARK    1  A    between atoms: C_2  and  C_3
REMARK    2  A    between atoms: N_8  and  C_9
REMARK    3  A    between atoms: C_9  and  C_10
REMARK                            x       y       z     vdW  Elec       q    Type
REMARK                         _______ _______ _______ _____ _____    ______ ____
ROOT
ATOM      1  O   UNL     1       3.699  -4.635  23.004  0.00  0.00    +0.000 OA
ATOM      2  C   UNL     1       4.821  -5.112  23.191  0.00  0.00    +0.000 C 
ATOM      3  N   UNL     1       5.968  -4.415  22.836  0.00  0.00    +0.000 N 
ATOM      4  C   UNL     1       7.341  -4.841  23.105  0.00  0.00    +0.000 C 
ATOM      5  C   UNL     1       8.114  -3.727  23.829  0.00  0.00    +0.000 C 
ATOM      6  N   UNL     1       8.173  -2.472  23.070  0.00  0.00    +0.000 NA
ATOM      7  C   UNL     1       7.175  -2.364  21.995  0.00  0.00    +0.000 C 
ATOM      8  C   UNL     1       5.827  -3.035  22.352  0.00  0.00    +0.000 C 
ENDROOT
BRANCH   2   9
ATOM      9  C   UNL     1       4.969  -6.494  23.800  0.00  0.00    +0.000 C 
ATOM     10 CL   UNL     1       5.084  -6.361  25.568  0.00  0.00    +0.000 Cl
ENDBRANCH   2   9
BRANCH   6  11
ATOM     11  C   UNL     1       9.517  -1.996  22.734  0.00  0.00    +0.000 C 
BRANCH  11  12
ATOM     12  C   UNL     1       9.818  -0.515  22.900  0.00  0.00    +0.000 A 
ATOM     13  C   UNL     1       9.729   0.406  21.846  0.00  0.00    +0.000 A 
ATOM     14  C   UNL     1      10.033   1.756  22.035  0.00  0.00    +0.000 A 
ATOM     15  C   UNL     1      10.481   2.202  23.275  0.00  0.00    +0.000 A 
ATOM     16  C   UNL     1      10.624   1.297  24.319  0.00  0.00    +0.000 A 
ATOM     17  C   UNL     1      10.293  -0.050  24.138  0.00  0.00    +0.000 A 
ENDBRANCH  11  12
ENDBRANCH   6  11
TORSDOF 3
ENDMDL
MODEL 3
REMARK VINA RESULT:      -5.8      4.173      5.824
REMARK  Name = 
REMARK  3 active torsions:
REMARK  status: ('A' for Active; 'I' for Inactive)
REMARK    1  A    between atoms: C_2  and  C_3
REMARK    2  A    between atoms: N_8  and  C_9
REMARK    3  A    between atoms: C_9  and  C_10
REMARK                            x       y       z     vdW  Elec       q    Type
REMARK                         _______ _______ _______ _____ _____    ______ ____
ROOT
ATOM      1  O   UNL     1       5.532  -2.004  19.711  0.00  0.00    +0.000 OA
ATOM      2  C   UNL     1       6.102  -0.910  19.732  0.00  0.00    +0.000 C 
ATOM      3  N   UNL     1       6.871  -0.521  20.821  0.00  0.00    +0.000 N 
ATOM      4  C   UNL     1       7.668   0.701  20.906  0.00  0.00    +0.000 C 
ATOM      5  C   UNL     1       9.119   0.368  21.292  0.00  0.00    +0.000 C 
ATOM      6  N   UNL     1       9.233  -0.334  22.576  0.00  0.00    +0.000 NA
ATOM      7  C   UNL     1       7.981  -0.946  23.048  0.00  0.00    +0.000 C 
ATOM      8  C   UNL     1       7.105  -1.495  21.897  0.00  0.00    +0.000 C 
ENDROOT
BRANCH   2   9
ATOM      9  C   UNL     1       5.954   0.050  18.566  0.00  0.00    +0.000 C 
ATOM     10 CL   UNL     1       4.787   1.323  18.982  0.00  0.00    +0.000 Cl
ENDBRANCH   2   9
BRANCH   6  11
ATOM     11  C   UNL     1      10.030   0.343  23.602  0.00  0.00    +0.000 C 
BRANCH  11  12
ATOM     12  C   UNL     1       9.773   1.820  23.854  0.00  0.00    +0.000 A 
ATOM     13  C   UNL     1      10.623   2.835  23.391  0.00  0.00    +0.000 A 
ATOM     14  C   UNL     1      10.363   4.180  23.660  0.00  0.00    +0.000 A 
ATOM     15  C   UNL     1       9.269   4.532  24.445  0.00  0.00    +0.000 A 
ATOM     16  C   UNL     1       8.442   3.540  24.957  0.00  0.00    +0.000 A 
ATOM     17  C   UNL     1       8.687   2.195  24.663  0.00  0.00    +0.000 A 
ENDBRANCH  11  12
ENDBRANCH   6  11
TORSDOF 3
ENDMDL
MODEL 4
REMARK VINA RESULT:      -5.8      3.135      4.467
REMARK  Name = 
REMARK  3 active torsions:
REMARK  status: ('A' for Active; 'I' for Inactive)
REMARK    1  A    between atoms: C_2  and  C_3
REMARK    2  A    between atoms: N_8  and  C_9
REMARK    3  A    between atoms: C_9  and  C_10
REMARK                            x       y       z     vdW  Elec       q    Type
REMARK                         _______ _______ _______ _____ _____    ______ ____
ROOT
ATOM      1  O   UNL     1       5.111  -5.896  25.891  0.00  0.00    +0.000 OA
ATOM      2  C   UNL     1       6.165  -5.551  26.430  0.00  0.00    +0.000 C 
ATOM      3  N   UNL     1       7.203  -4.998  25.691  0.00  0.00    +0.000 N 
ATOM      4  C   UNL     1       8.448  -4.464  26.241  0.00  0.00    +0.000 C 
ATOM      5  C   UNL     1       8.682  -3.030  25.738  0.00  0.00    +0.000 C 
ATOM      6  N   UNL     1       8.757  -2.931  24.276  0.00  0.00    +0.000 NA
ATOM      7  C   UNL     1       8.200  -4.088  23.558  0.00  0.00    +0.000 C 
ATOM      8  C   UNL     1       6.973  -4.707  24.269  0.00  0.00    +0.000 C 
ENDROOT
BRANCH   2   9
ATOM      9  C   UNL     1       6.358  -5.746  27.923  0.00  0.00    +0.000 C 
ATOM     10 CL   UNL     1       5.229  -6.982  28.516  0.00  0.00    +0.000 Cl
ENDBRANCH   2   9
BRANCH   6  11
ATOM     11  C   UNL     1      10.011  -2.399  23.738  0.00  0.00    +0.000 C 
BRANCH  11  12
ATOM     12  C   UNL     1      10.069  -0.924  23.374  0.00  0.00    +0.000 A 
ATOM     13  C   UNL     1      10.417   0.078  24.292  0.00  0.00    +0.000 A 
ATOM     14  C   UNL     1      10.441   1.424  23.923  0.00  0.00    +0.000 A 
ATOM     15  C   UNL     1      10.066   1.799  22.636  0.00  0.00    +0.000 A 
ATOM     16  C   UNL     1       9.669   0.828  21.725  0.00  0.00    +0.000 A 
ATOM     17  C   UNL     1       9.673  -0.523  22.087  0.00  0.00    +0.000 A 
ENDBRANCH  11  12
ENDBRANCH   6  11
TORSDOF 3
ENDMDL
MODEL 5
REMARK VINA RESULT:      -5.8      3.262      6.131
REMARK  Name = 
REMARK  3 active torsions:
REMARK  status: ('A' for Active; 'I' for Inactive)
REMARK    1  A    between atoms: C_2  and  C_3
REMARK    2  A    between atoms: N_8  and  C_9
REMARK    3  A    between atoms: C_9  and  C_10
REMARK                            x       y       z     vdW  Elec       q    Type
REMARK                         _______ _______ _______ _____ _____    ______ ____
ROOT
ATOM      1  O   UNL     1       9.773   1.416  21.564  0.00  0.00    +0.000 OA
ATOM      2  C   UNL     1       8.838   0.613  21.500  0.00  0.00    +0.000 C 
ATOM      3  N   UNL     1       8.926  -0.642  22.087  0.00  0.00    +0.000 N 
ATOM      4  C   UNL     1       7.846  -1.625  22.159  0.00  0.00    +0.000 C 
ATOM      5  C   UNL     1       7.633  -2.081  23.612  0.00  0.00    +0.000 C 
ATOM      6  N   UNL     1       8.829  -2.681  24.215  0.00  0.00    +0.000 NA
ATOM      7  C   UNL     1      10.084  -2.375  23.511  0.00  0.00    +0.000 C 
ATOM      8  C   UNL     1      10.107  -0.951  22.906  0.00  0.00    +0.000 C 
ENDROOT
BRANCH   2   9
ATOM      9  C   UNL     1       7.570   0.979  20.751  0.00  0.00    +0.000 C 
ATOM     10 CL   UNL     1       7.612   0.273  19.121  0.00  0.00    +0.000 Cl
ENDBRANCH   2   9
BRANCH   6  11
ATOM     11  C   UNL     1       8.683  -4.065  24.673  0.00  0.00    +0.000 C 
BRANCH  11  12
ATOM     12  C   UNL     1       7.510  -4.876  24.149  0.00  0.00    +0.000 A 
ATOM     13  C   UNL     1       7.442  -5.363  22.835  0.00  0.00    +0.000 A 
ATOM     14  C   UNL     1       6.337  -6.088  22.386  0.00  0.00    +0.000 A 
ATOM     15  C   UNL     1       5.252  -6.299  23.232  0.00  0.00    +0.000 A 
ATOM     16  C   UNL     1       5.277  -5.782  24.522  0.00  0.00    +0.000 A 
ATOM     17  C   UNL     1       6.395  -5.080  24.980  0.00  0.00    +0.000 A 
ENDBRANCH  11  12
ENDBRANCH   6  11
TORSDOF 3
ENDMDL
MODEL 6
REMARK VINA RESULT:      -5.7      1.437      1.906
REMARK  Name = 
REMARK  3 active torsions:
REMARK  status: ('A' for Active; 'I' for Inactive)
REMARK    1  A    between atoms: C_2  and  C_3
REMARK    2  A    between atoms: N_8  and  C_9
REMARK    3  A    between atoms: C_9  and  C_10
REMARK                            x       y       z     vdW  Elec       q    Type
REMARK                         _______ _______ _______ _____ _____    ______ ____
ROOT
ATOM      1  O   UNL     1       8.280  -5.322  25.257  0.00  0.00    +0.000 OA
ATOM      2  C   UNL     1       7.502  -4.599  24.630  0.00  0.00    +0.000 C 
ATOM      3  N   UNL     1       7.934  -3.418  24.040  0.00  0.00    +0.000 N 
ATOM      4  C   UNL     1       7.123  -2.544  23.193  0.00  0.00    +0.000 C 
ATOM      5  C   UNL     1       7.838  -2.282  21.857  0.00  0.00    +0.000 C 
ATOM      6  N   UNL     1       9.157  -1.658  22.016  0.00  0.00    +0.000 NA
ATOM      7  C   UNL     1       9.726  -1.773  23.368  0.00  0.00    +0.000 C 
ATOM      8  C   UNL     1       9.370  -3.109  24.062  0.00  0.00    +0.000 C 
ENDROOT
BRANCH   2   9
ATOM      9  C   UNL     1       6.038  -4.979  24.509  0.00  0.00    +0.000 C 
ATOM     10 CL   UNL     1       5.785  -5.929  23.028  0.00  0.00    +0.000 Cl
ENDBRANCH   2   9
BRANCH   6  11
ATOM     11  C   UNL     1       9.325  -0.355  21.369  0.00  0.00    +0.000 C 
BRANCH  11  12
ATOM     12  C   UNL     1       8.111   0.288  20.718  0.00  0.00    +0.000 A 
ATOM     13  C   UNL     1       7.228   1.129  21.410  0.00  0.00    +0.000 A 
ATOM     14  C   UNL     1       6.112   1.685  20.781  0.00  0.00    +0.000 A 
ATOM     15  C   UNL     1       5.831   1.367  19.455  0.00  0.00    +0.000 A 
ATOM     16  C   UNL     1       6.664   0.495  18.767  0.00  0.00    +0.000 A 
ATOM     17  C   UNL     1       7.797  -0.038  19.388  0.00  0.00    +0.000 A 
ENDBRANCH  11  12
ENDBRANCH   6  11
TORSDOF 3
ENDMDL
MODEL 7
REMARK VINA RESULT:      -5.6      1.978      2.509
REMARK  Name = 
REMARK  3 active torsions:
REMARK  status: ('A' for Active; 'I' for Inactive)
REMARK    1  A    between atoms: C_2  and  C_3
REMARK    2  A    between atoms: N_8  and  C_9
REMARK    3  A    between atoms: C_9  and  C_10
REMARK                            x       y       z     vdW  Elec       q    Type
REMARK                         _______ _______ _______ _____ _____    ______ ____
ROOT
ATOM      1  O   UNL     1       9.147  -5.224  24.552  0.00  0.00    +0.000 OA
ATOM      2  C   UNL     1       8.337  -4.544  23.919  0.00  0.00    +0.000 C 
ATOM      3  N   UNL     1       8.598  -3.215  23.611  0.00  0.00    +0.000 N 
ATOM      4  C   UNL     1       7.758  -2.352  22.782  0.00  0.00    +0.000 C 
ATOM      5  C   UNL     1       8.591  -1.718  21.655  0.00  0.00    +0.000 C 
ATOM      6  N   UNL     1       9.716  -0.914  22.145  0.00  0.00    +0.000 NA
ATOM      7  C   UNL     1      10.093  -1.183  23.542  0.00  0.00    +0.000 C 
ATOM      8  C   UNL     1       9.922  -2.668  23.939  0.00  0.00    +0.000 C 
ENDROOT
BRANCH   2   9
ATOM      9  C   UNL     1       7.015  -5.146  23.478  0.00  0.00    +0.000 C 
ATOM     10 CL   UNL     1       7.215  -5.941  21.901  0.00  0.00    +0.000 Cl
ENDBRANCH   2   9
BRANCH   6  11
ATOM     11  C   UNL     1       9.706   0.498  21.754  0.00  0.00    +0.000 C 
BRANCH  11  12
ATOM     12  C   UNL     1       8.465   1.320  22.061  0.00  0.00    +0.000 A 
ATOM     13  C   UNL     1       7.411   1.484  21.150  0.00  0.00    +0.000 A 
ATOM     14  C   UNL     1       6.296   2.263  21.462  0.00  0.00    +0.000 A 
ATOM     15  C   UNL     1       6.237   2.938  22.678  0.00  0.00    +0.000 A 
ATOM     16  C   UNL     1       7.293   2.831  23.574  0.00  0.00    +0.000 A 
ATOM     17  C   UNL     1       8.397   2.027  23.273  0.00  0.00    +0.000 A 
ENDBRANCH  11  12
ENDBRANCH   6  11
TORSDOF 3
ENDMDL
MODEL 8
REMARK VINA RESULT:      -5.4      2.395      3.433
REMARK  Name = 
REMARK  3 active torsions:
REMARK  status: ('A' for Active; 'I' for Inactive)
REMARK    1  A    between atoms: C_2  and  C_3
REMARK    2  A    between atoms: N_8  and  C_9
REMARK    3  A    between atoms: C_9  and  C_10
REMARK                            x       y       z     vdW  Elec       q    Type
REMARK                         _______ _______ _______ _____ _____    ______ ____
ROOT
ATOM      1  O   UNL     1       7.195  -5.001  23.949  0.00  0.00    +0.000 OA
ATOM      2  C   UNL     1       8.240  -4.427  24.264  0.00  0.00    +0.000 C 
ATOM      3  N   UNL     1       8.679  -3.303  23.577  0.00  0.00    +0.000 N 
ATOM      4  C   UNL     1       9.842  -2.490  23.930  0.00  0.00    +0.000 C 
ATOM      5  C   UNL     1       9.443  -1.010  24.049  0.00  0.00    +0.000 C 
ATOM      6  N   UNL     1       8.869  -0.461  22.815  0.00  0.00    +0.000 NA
ATOM      7  C   UNL     1       8.402  -1.476  21.858  0.00  0.00    +0.000 C 
ATOM      8  C   UNL     1       7.805  -2.727  22.546  0.00  0.00    +0.000 C 
ENDROOT
BRANCH   2   9
ATOM      9  C   UNL     1       9.085  -4.957  25.408  0.00  0.00    +0.000 C 
ATOM     10 CL   UNL     1       8.077  -5.149  26.859  0.00  0.00    +0.000 Cl
ENDBRANCH   2   9
BRANCH   6  11
ATOM     11  C   UNL     1       9.586   0.675  22.232  0.00  0.00    +0.000 C 
BRANCH  11  12
ATOM     12  C   UNL     1       9.157   2.078  22.631  0.00  0.00    +0.000 A 
ATOM     13  C   UNL     1       7.997   2.693  22.136  0.00  0.00    +0.000 A 
ATOM     14  C   UNL     1       7.647   3.991  22.513  0.00  0.00    +0.000 A 
ATOM     15  C   UNL     1       8.482   4.720  23.355  0.00  0.00    +0.000 A 
ATOM     16  C   UNL     1       9.661   4.148  23.816  0.00  0.00    +0.000 A 
ATOM     17  C   UNL     1       9.997   2.838  23.462  0.00  0.00    +0.000 A 
ENDBRANCH  11  12
ENDBRANCH   6  11
TORSDOF 3
ENDMDL
MODEL 9
REMARK VINA RESULT:      -5.4      3.208      4.559
REMARK  Name = 
REMARK  3 active torsions:
REMARK  status: ('A' for Active; 'I' for Inactive)
REMARK    1  A    between atoms: C_2  and  C_3
REMARK    2  A    between atoms: N_8  and  C_9
REMARK    3  A    between atoms: C_9  and  C_10
REMARK                            x       y       z     vdW  Elec       q    Type
REMARK                         _______ _______ _______ _____ _____    ______ ____
ROOT
ATOM      1  O   UNL     1       5.841  -4.030  21.080  0.00  0.00    +0.000 OA
ATOM      2  C   UNL     1       6.634  -4.305  21.984  0.00  0.00    +0.000 C 
ATOM      3  N   UNL     1       7.515  -3.355  22.483  0.00  0.00    +0.000 N 
ATOM      4  C   UNL     1       8.420  -3.544  23.616  0.00  0.00    +0.000 C 
ATOM      5  C   UNL     1       8.222  -2.424  24.651  0.00  0.00    +0.000 C 
ATOM      6  N   UNL     1       8.458  -1.082  24.107  0.00  0.00    +0.000 NA
ATOM      7  C   UNL     1       8.427  -1.006  22.638  0.00  0.00    +0.000 C 
ATOM      8  C   UNL     1       7.396  -1.970  22.004  0.00  0.00    +0.000 C 
ENDROOT
BRANCH   2   9
ATOM      9  C   UNL     1       6.677  -5.709  22.560  0.00  0.00    +0.000 C 
ATOM     10 CL   UNL     1       5.586  -5.816  23.959  0.00  0.00    +0.000 Cl
ENDBRANCH   2   9
BRANCH   6  11
ATOM     11  C   UNL     1       9.519  -0.310  24.757  0.00  0.00    +0.000 C 
BRANCH  11  12
ATOM     12  C   UNL     1       9.577   1.188  24.506  0.00  0.00    +0.000 A 
ATOM     13  C   UNL     1       8.587   2.076  24.950  0.00  0.00    +0.000 A 
ATOM     14  C   UNL     1       8.666   3.445  24.683  0.00  0.00    +0.000 A 
ATOM     15  C   UNL     1       9.718   3.944  23.919  0.00  0.00    +0.000 A 
ATOM     16  C   UNL     1      10.682   3.074  23.426  0.00  0.00    +0.000 A 
ATOM     17  C   UNL     1      10.617   1.709  23.718  0.00  0.00    +0.000 A 
ENDBRANCH  11  12
ENDBRANCH   6  11
TORSDOF 3
ENDMDL
