
  xtb     06082023053D
xtb: 6.2.3 (830e466)
 38 39  0     0  0            999 V2000
   10.6823    7.3650    7.6051 O   0  0  0  0  0  0  0  0  0  0  0  0
   10.1634    7.9126    8.5592 C   0  0  0  0  0  0  0  0  0  0  0  0
   10.1761    7.2409    9.9244 C   0  0  0  0  0  0  0  0  0  0  0  0
   11.0287    8.2511   11.1165 Cl  0  0  0  0  0  0  0  0  0  0  0  0
    9.5807    9.1258    8.4689 N   0  0  0  0  0  0  0  0  0  0  0  0
    8.8023    9.7683    9.5083 C   0  0  0  0  0  0  0  0  0  0  0  0
    7.7341   10.6773    8.8649 C   0  0  0  0  0  0  0  0  0  0  0  0
    7.3177   10.1910    7.5787 N   0  0  0  0  0  0  0  0  0  0  0  0
    6.2352    8.9184    7.5532 S   0  0  0  0  0  0  0  0  0  0  0  0
    5.7117    8.8684    6.2222 O   0  0  0  0  0  0  0  0  0  0  0  0
    5.3444    9.1220    8.6576 O   0  0  0  0  0  0  0  0  0  0  0  0
    7.1468    7.4044    7.8120 C   0  0  0  0  0  0  0  0  0  0  0  0
    6.8559    6.6580    8.8691 C   0  0  0  0  0  0  0  0  0  0  0  0
    7.4188    5.3640    9.2255 C   0  0  0  0  0  0  0  0  0  0  0  0
    6.9265    4.7058   10.3553 C   0  0  0  0  0  0  0  0  0  0  0  0
    7.4285    3.4744   10.7302 C   0  0  0  0  0  0  0  0  0  0  0  0
    8.4332    2.8791    9.9846 C   0  0  0  0  0  0  0  0  0  0  0  0
    8.9330    3.5234    8.8631 C   0  0  0  0  0  0  0  0  0  0  0  0
    8.4337    4.7540    8.4833 C   0  0  0  0  0  0  0  0  0  0  0  0
    8.3669   10.1477    6.5860 C   0  0  0  0  0  0  0  0  0  0  0  0
    9.7317    9.8930    7.2479 C   0  0  0  0  0  0  0  0  0  0  0  0
   10.7252    6.3035    9.8355 H   0  0  0  0  0  0  0  0  0  0  0  0
    9.1739    7.0458   10.3051 H   0  0  0  0  0  0  0  0  0  0  0  0
    9.4504   10.3613   10.1649 H   0  0  0  0  0  0  0  0  0  0  0  0
    8.3069    9.0056   10.1103 H   0  0  0  0  0  0  0  0  0  0  0  0
    8.1150   11.6941    8.7339 H   0  0  0  0  0  0  0  0  0  0  0  0
    6.8443   10.7117    9.4929 H   0  0  0  0  0  0  0  0  0  0  0  0
    7.8284    7.1477    7.0233 H   0  0  0  0  0  0  0  0  0  0  0  0
    6.1049    7.0541    9.5432 H   0  0  0  0  0  0  0  0  0  0  0  0
    6.1409    5.1682   10.9354 H   0  0  0  0  0  0  0  0  0  0  0  0
    7.0365    2.9770   11.6048 H   0  0  0  0  0  0  0  0  0  0  0  0
    8.8260    1.9167   10.2764 H   0  0  0  0  0  0  0  0  0  0  0  0
    9.7171    3.0630    8.2812 H   0  0  0  0  0  0  0  0  0  0  0  0
    8.8406    5.2492    7.6163 H   0  0  0  0  0  0  0  0  0  0  0  0
    8.3918   11.1009    6.0456 H   0  0  0  0  0  0  0  0  0  0  0  0
    8.1021    9.3655    5.8745 H   0  0  0  0  0  0  0  0  0  0  0  0
   10.3911    9.3338    6.5830 H   0  0  0  0  0  0  0  0  0  0  0  0
   10.2069   10.8459    7.5042 H   0  0  0  0  0  0  0  0  0  0  0  0
  1  2  1  0  0  0  0
  2  3  1  0  0  0  0
  2  5  1  0  0  0  0
  3  4  1  0  0  0  0
  3 22  1  0  0  0  0
  3 23  1  0  0  0  0
  5  6  1  0  0  0  0
  5 21  1  0  0  0  0
  6  7  1  0  0  0  0
  6 24  1  0  0  0  0
  6 25  1  0  0  0  0
  7  8  1  0  0  0  0
  7 26  1  0  0  0  0
  7 27  1  0  0  0  0
  8  9  1  0  0  0  0
  8 20  1  0  0  0  0
  9 10  1  0  0  0  0
  9 11  1  0  0  0  0
  9 12  1  0  0  0  0
 12 13  1  0  0  0  0
 12 28  1  0  0  0  0
 13 14  1  0  0  0  0
 13 29  1  0  0  0  0
 14 15  1  0  0  0  0
 14 19  1  0  0  0  0
 15 16  1  0  0  0  0
 15 30  1  0  0  0  0
 16 17  1  0  0  0  0
 16 31  1  0  0  0  0
 17 18  1  0  0  0  0
 17 32  1  0  0  0  0
 18 19  1  0  0  0  0
 18 33  1  0  0  0  0
 19 34  1  0  0  0  0
 20 21  1  0  0  0  0
 20 35  1  0  0  0  0
 20 36  1  0  0  0  0
 21 37  1  0  0  0  0
 21 38  1  0  0  0  0
M  END
>  <name>


>  <Energy>
28.4439

> <total energy / Eh>
    -64.483099316609

> <gradient norm / Eh/a0>
      0.000663008025

$$$$
