MODEL 1
REMARK VINA RESULT:      -5.9      0.000      0.000
REMARK  Name = 
REMARK  4 active torsions:
REMARK  status: ('A' for Active; 'I' for Inactive)
REMARK    1  A    between atoms: C_2  and  C_3
REMARK    2  A    between atoms: C_2  and  N_5
REMARK    3  A    between atoms: N_8  and  C_9
REMARK    4  A    between atoms: C_9  and  C_10
REMARK                            x       y       z     vdW  Elec       q    Type
REMARK                         _______ _______ _______ _____ _____    ______ ____
ROOT
ATOM      1  N   UNL     1       7.564  -3.912  24.512  0.00  0.00    +0.000 NA
ATOM      2  C   UNL     1       7.325  -2.573  25.008  0.00  0.00    +0.000 C 
ATOM      3  C   UNL     1       7.121  -1.623  23.805  0.00  0.00    +0.000 C 
ATOM      4  N   UNL     1       7.895  -2.013  22.650  0.00  0.00    +0.000 NA
ATOM      5  C   UNL     1       7.437  -3.299  22.141  0.00  0.00    +0.000 C 
ATOM      6  C   UNL     1       6.895  -4.211  23.260  0.00  0.00    +0.000 C 
ENDROOT
BRANCH   1   8
ATOM      7  O   UNL     1       9.340  -5.294  24.539  0.00  0.00    +0.000 OA
ATOM      8  C   UNL     1       8.346  -4.848  25.081  0.00  0.00    +0.000 C 
BRANCH   8   9
ATOM      9  C   UNL     1       7.957  -5.343  26.469  0.00  0.00    +0.000 C 
ATOM     10 CL   UNL     1       6.215  -5.704  26.573  0.00  0.00    +0.000 Cl
ENDBRANCH   8   9
ENDBRANCH   1   8
BRANCH   4  11
ATOM     11  C   UNL     1       9.335  -1.945  22.846  0.00  0.00    +0.000 C 
BRANCH  11  12
ATOM     12  C   UNL     1       9.771  -0.508  22.968  0.00  0.00    +0.000 C 
ATOM     13  C   UNL     1       9.616   0.384  21.916  0.00  0.00    +0.000 C 
ATOM     14  C   UNL     1      10.025   1.700  22.037  0.00  0.00    +0.000 C 
ATOM     15  C   UNL     1      10.590   2.127  23.226  0.00  0.00    +0.000 C 
ATOM     16 CL   UNL     1      11.106   3.770  23.386  0.00  0.00    +0.000 Cl
ATOM     17  C   UNL     1      10.746   1.254  24.292  0.00  0.00    +0.000 C 
ATOM     18  C   UNL     1      10.336  -0.058  24.155  0.00  0.00    +0.000 C 
ENDBRANCH  11  12
ENDBRANCH   4  11
TORSDOF 4
ENDMDL
MODEL 2
REMARK VINA RESULT:      -5.7      3.230      4.036
REMARK  Name = 
REMARK  4 active torsions:
REMARK  status: ('A' for Active; 'I' for Inactive)
REMARK    1  A    between atoms: C_2  and  C_3
REMARK    2  A    between atoms: C_2  and  N_5
REMARK    3  A    between atoms: N_8  and  C_9
REMARK    4  A    between atoms: C_9  and  C_10
REMARK                            x       y       z     vdW  Elec       q    Type
REMARK                         _______ _______ _______ _____ _____    ______ ____
ROOT
ATOM      1  N   UNL     1       7.333  -4.756  23.949  0.00  0.00    +0.000 NA
ATOM      2  C   UNL     1       6.168  -4.053  24.444  0.00  0.00    +0.000 C 
ATOM      3  C   UNL     1       5.280  -3.650  23.243  0.00  0.00    +0.000 C 
ATOM      4  N   UNL     1       6.047  -3.363  22.054  0.00  0.00    +0.000 NA
ATOM      5  C   UNL     1       6.721  -4.565  21.582  0.00  0.00    +0.000 C 
ATOM      6  C   UNL     1       7.098  -5.516  22.736  0.00  0.00    +0.000 C 
ENDROOT
BRANCH   1   8
ATOM      7  O   UNL     1       9.270  -5.728  24.555  0.00  0.00    +0.000 OA
ATOM      8  C   UNL     1       8.566  -4.737  24.487  0.00  0.00    +0.000 C 
BRANCH   8   9
ATOM      9  C   UNL     1       9.086  -3.405  25.012  0.00  0.00    +0.000 C 
ATOM     10 CL   UNL     1      10.070  -2.557  23.791  0.00  0.00    +0.000 Cl
ENDBRANCH   8   9
ENDBRANCH   1   8
BRANCH   4  11
ATOM     11  C   UNL     1       6.928  -2.211  22.176  0.00  0.00    +0.000 C 
BRANCH  11  12
ATOM     12  C   UNL     1       6.759  -1.305  20.985  0.00  0.00    +0.000 C 
ATOM     13  C   UNL     1       5.789  -1.550  20.024  0.00  0.00    +0.000 C 
ATOM     14  C   UNL     1       5.646  -0.713  18.931  0.00  0.00    +0.000 C 
ATOM     15  C   UNL     1       6.482   0.383  18.804  0.00  0.00    +0.000 C 
ATOM     16 CL   UNL     1       6.312   1.433  17.440  0.00  0.00    +0.000 Cl
ATOM     17  C   UNL     1       7.452   0.650  19.758  0.00  0.00    +0.000 C 
ATOM     18  C   UNL     1       7.585  -0.196  20.841  0.00  0.00    +0.000 C 
ENDBRANCH  11  12
ENDBRANCH   4  11
TORSDOF 4
ENDMDL
MODEL 3
REMARK VINA RESULT:      -5.7      1.927      2.554
REMARK  Name = 
REMARK  4 active torsions:
REMARK  status: ('A' for Active; 'I' for Inactive)
REMARK    1  A    between atoms: C_2  and  C_3
REMARK    2  A    between atoms: C_2  and  N_5
REMARK    3  A    between atoms: N_8  and  C_9
REMARK    4  A    between atoms: C_9  and  C_10
REMARK                            x       y       z     vdW  Elec       q    Type
REMARK                         _______ _______ _______ _____ _____    ______ ____
ROOT
ATOM      1  N   UNL     1       7.400  -4.826  23.964  0.00  0.00    +0.000 NA
ATOM      2  C   UNL     1       8.690  -5.198  24.508  0.00  0.00    +0.000 C 
ATOM      3  C   UNL     1       9.233  -4.023  25.354  0.00  0.00    +0.000 C 
ATOM      4  N   UNL     1       8.827  -2.734  24.845  0.00  0.00    +0.000 NA
ATOM      5  C   UNL     1       7.382  -2.580  24.949  0.00  0.00    +0.000 C 
ATOM      6  C   UNL     1       6.638  -3.923  24.805  0.00  0.00    +0.000 C 
ENDROOT
BRANCH   1   8
ATOM      7  O   UNL     1       7.418  -6.056  22.080  0.00  0.00    +0.000 OA
ATOM      8  C   UNL     1       6.891  -5.212  22.780  0.00  0.00    +0.000 C 
BRANCH   8   9
ATOM      9  C   UNL     1       5.590  -4.561  22.326  0.00  0.00    +0.000 C 
ATOM     10 CL   UNL     1       5.889  -3.027  21.468  0.00  0.00    +0.000 Cl
ENDBRANCH   8   9
ENDBRANCH   1   8
BRANCH   4  11
ATOM     11  C   UNL     1       9.353  -2.422  23.525  0.00  0.00    +0.000 C 
BRANCH  11  12
ATOM     12  C   UNL     1       9.741  -0.968  23.456  0.00  0.00    +0.000 C 
ATOM     13  C   UNL     1       9.623  -0.245  22.278  0.00  0.00    +0.000 C 
ATOM     14  C   UNL     1       9.988   1.089  22.225  0.00  0.00    +0.000 C 
ATOM     15  C   UNL     1      10.469   1.705  23.367  0.00  0.00    +0.000 C 
ATOM     16 CL   UNL     1      10.929   3.371  23.311  0.00  0.00    +0.000 Cl
ATOM     17  C   UNL     1      10.586   1.002  24.557  0.00  0.00    +0.000 C 
ATOM     18  C   UNL     1      10.221  -0.330  24.593  0.00  0.00    +0.000 C 
ENDBRANCH  11  12
ENDBRANCH   4  11
TORSDOF 4
ENDMDL
MODEL 4
REMARK VINA RESULT:      -5.6      2.885      3.901
REMARK  Name = 
REMARK  4 active torsions:
REMARK  status: ('A' for Active; 'I' for Inactive)
REMARK    1  A    between atoms: C_2  and  C_3
REMARK    2  A    between atoms: C_2  and  N_5
REMARK    3  A    between atoms: N_8  and  C_9
REMARK    4  A    between atoms: C_9  and  C_10
REMARK                            x       y       z     vdW  Elec       q    Type
REMARK                         _______ _______ _______ _____ _____    ______ ____
ROOT
ATOM      1  N   UNL     1       8.586  -3.240  25.645  0.00  0.00    +0.000 NA
ATOM      2  C   UNL     1       9.605  -3.608  24.684  0.00  0.00    +0.000 C 
ATOM      3  C   UNL     1       9.877  -2.401  23.756  0.00  0.00    +0.000 C 
ATOM      4  N   UNL     1       8.700  -1.594  23.532  0.00  0.00    +0.000 NA
ATOM      5  C   UNL     1       8.269  -0.969  24.776  0.00  0.00    +0.000 C 
ATOM      6  C   UNL     1       8.592  -1.836  26.009  0.00  0.00    +0.000 C 
ENDROOT
BRANCH   1   8
ATOM      7  O   UNL     1       7.872  -4.737  27.165  0.00  0.00    +0.000 OA
ATOM      8  C   UNL     1       7.659  -4.056  26.179  0.00  0.00    +0.000 C 
BRANCH   8   9
ATOM      9  C   UNL     1       6.290  -4.101  25.512  0.00  0.00    +0.000 C 
ATOM     10 CL   UNL     1       6.210  -5.369  24.261  0.00  0.00    +0.000 Cl
ENDBRANCH   8   9
ENDBRANCH   1   8
BRANCH   4  11
ATOM     11  C   UNL     1       7.631  -2.282  22.825  0.00  0.00    +0.000 C 
BRANCH  11  12
ATOM     12  C   UNL     1       7.251  -1.508  21.589  0.00  0.00    +0.000 C 
ATOM     13  C   UNL     1       6.130  -1.845  20.844  0.00  0.00    +0.000 C 
ATOM     14  C   UNL     1       5.793  -1.131  19.707  0.00  0.00    +0.000 C 
ATOM     15  C   UNL     1       6.586  -0.064  19.318  0.00  0.00    +0.000 C 
ATOM     16 CL   UNL     1       6.175   0.833  17.899  0.00  0.00    +0.000 Cl
ATOM     17  C   UNL     1       7.706   0.294  20.055  0.00  0.00    +0.000 C 
ATOM     18  C   UNL     1       8.031  -0.432  21.184  0.00  0.00    +0.000 C 
ENDBRANCH  11  12
ENDBRANCH   4  11
TORSDOF 4
ENDMDL
MODEL 5
REMARK VINA RESULT:      -5.6      2.105      2.923
REMARK  Name = 
REMARK  4 active torsions:
REMARK  status: ('A' for Active; 'I' for Inactive)
REMARK    1  A    between atoms: C_2  and  C_3
REMARK    2  A    between atoms: C_2  and  N_5
REMARK    3  A    between atoms: N_8  and  C_9
REMARK    4  A    between atoms: C_9  and  C_10
REMARK                            x       y       z     vdW  Elec       q    Type
REMARK                         _______ _______ _______ _____ _____    ______ ____
ROOT
ATOM      1  N   UNL     1       6.861  -4.039  23.793  0.00  0.00    +0.000 NA
ATOM      2  C   UNL     1       8.114  -4.763  23.847  0.00  0.00    +0.000 C 
ATOM      3  C   UNL     1       9.136  -3.933  24.657  0.00  0.00    +0.000 C 
ATOM      4  N   UNL     1       8.943  -2.510  24.506  0.00  0.00    +0.000 NA
ATOM      5  C   UNL     1       7.663  -2.108  25.073  0.00  0.00    +0.000 C 
ATOM      6  C   UNL     1       6.598  -3.218  24.959  0.00  0.00    +0.000 C 
ENDROOT
BRANCH   1   8
ATOM      7  O   UNL     1       5.587  -3.030  22.237  0.00  0.00    +0.000 OA
ATOM      8  C   UNL     1       5.976  -4.047  22.779  0.00  0.00    +0.000 C 
BRANCH   8   9
ATOM      9  C   UNL     1       5.466  -5.400  22.299  0.00  0.00    +0.000 C 
ATOM     10 CL   UNL     1       6.196  -5.861  20.739  0.00  0.00    +0.000 Cl
ENDBRANCH   8   9
ENDBRANCH   1   8
BRANCH   4  11
ATOM     11  C   UNL     1       9.161  -2.018  23.154  0.00  0.00    +0.000 C 
BRANCH  11  12
ATOM     12  C   UNL     1       9.679  -0.604  23.198  0.00  0.00    +0.000 C 
ATOM     13  C   UNL     1      10.385  -0.128  24.293  0.00  0.00    +0.000 C 
ATOM     14  C   UNL     1      10.851   1.175  24.324  0.00  0.00    +0.000 C 
ATOM     15  C   UNL     1      10.612   2.005  23.243  0.00  0.00    +0.000 C 
ATOM     16 CL   UNL     1      11.189   3.635  23.273  0.00  0.00    +0.000 Cl
ATOM     17  C   UNL     1       9.916   1.546  22.135  0.00  0.00    +0.000 C 
ATOM     18  C   UNL     1       9.453   0.244  22.120  0.00  0.00    +0.000 C 
ENDBRANCH  11  12
ENDBRANCH   4  11
TORSDOF 4
ENDMDL
MODEL 6
REMARK VINA RESULT:      -5.6      3.045      6.467
REMARK  Name = 
REMARK  4 active torsions:
REMARK  status: ('A' for Active; 'I' for Inactive)
REMARK    1  A    between atoms: C_2  and  C_3
REMARK    2  A    between atoms: C_2  and  N_5
REMARK    3  A    between atoms: N_8  and  C_9
REMARK    4  A    between atoms: C_9  and  C_10
REMARK                            x       y       z     vdW  Elec       q    Type
REMARK                         _______ _______ _______ _____ _____    ______ ____
ROOT
ATOM      1  N   UNL     1       7.639  -0.240  21.315  0.00  0.00    +0.000 NA
ATOM      2  C   UNL     1       7.097  -0.113  22.652  0.00  0.00    +0.000 C 
ATOM      3  C   UNL     1       8.141  -0.634  23.666  0.00  0.00    +0.000 C 
ATOM      4  N   UNL     1       8.945  -1.711  23.136  0.00  0.00    +0.000 NA
ATOM      5  C   UNL     1       9.763  -1.236  22.028  0.00  0.00    +0.000 C 
ATOM      6  C   UNL     1       9.080  -0.099  21.242  0.00  0.00    +0.000 C 
ENDROOT
BRANCH   1   8
ATOM      7  O   UNL     1       6.025  -1.292  20.153  0.00  0.00    +0.000 OA
ATOM      8  C   UNL     1       6.944  -0.495  20.192  0.00  0.00    +0.000 C 
BRANCH   8   9
ATOM      9  C   UNL     1       7.333   0.269  18.932  0.00  0.00    +0.000 C 
ATOM     10 CL   UNL     1       5.899   0.870  18.059  0.00  0.00    +0.000 Cl
ENDBRANCH   8   9
ENDBRANCH   1   8
BRANCH   4  11
ATOM     11  C   UNL     1       8.195  -2.919  22.829  0.00  0.00    +0.000 C 
BRANCH  11  12
ATOM     12  C   UNL     1       7.859  -3.654  24.102  0.00  0.00    +0.000 C 
ATOM     13  C   UNL     1       6.571  -4.102  24.358  0.00  0.00    +0.000 C 
ATOM     14  C   UNL     1       6.273  -4.770  25.532  0.00  0.00    +0.000 C 
ATOM     15  C   UNL     1       7.280  -4.996  26.456  0.00  0.00    +0.000 C 
ATOM     16 CL   UNL     1       6.917  -5.829  27.928  0.00  0.00    +0.000 Cl
ATOM     17  C   UNL     1       8.575  -4.565  26.215  0.00  0.00    +0.000 C 
ATOM     18  C   UNL     1       8.856  -3.895  25.039  0.00  0.00    +0.000 C 
ENDBRANCH  11  12
ENDBRANCH   4  11
TORSDOF 4
ENDMDL
MODEL 7
REMARK VINA RESULT:      -5.5      3.187      6.380
REMARK  Name = 
REMARK  4 active torsions:
REMARK  status: ('A' for Active; 'I' for Inactive)
REMARK    1  A    between atoms: C_2  and  C_3
REMARK    2  A    between atoms: C_2  and  N_5
REMARK    3  A    between atoms: N_8  and  C_9
REMARK    4  A    between atoms: C_9  and  C_10
REMARK                            x       y       z     vdW  Elec       q    Type
REMARK                         _______ _______ _______ _____ _____    ______ ____
ROOT
ATOM      1  N   UNL     1       9.212   1.755  22.379  0.00  0.00    +0.000 NA
ATOM      2  C   UNL     1       9.632   0.598  21.617  0.00  0.00    +0.000 C 
ATOM      3  C   UNL     1       8.397  -0.014  20.917  0.00  0.00    +0.000 C 
ATOM      4  N   UNL     1       7.184   0.147  21.683  0.00  0.00    +0.000 NA
ATOM      5  C   UNL     1       6.839   1.558  21.797  0.00  0.00    +0.000 C 
ATOM      6  C   UNL     1       8.085   2.466  21.808  0.00  0.00    +0.000 C 
ENDROOT
BRANCH   1   8
ATOM      7  O   UNL     1      10.604   3.046  23.587  0.00  0.00    +0.000 OA
ATOM      8  C   UNL     1       9.745   2.186  23.537  0.00  0.00    +0.000 C 
BRANCH   8   9
ATOM      9  C   UNL     1       9.223   1.565  24.827  0.00  0.00    +0.000 C 
ATOM     10 CL   UNL     1      10.040   0.023  25.191  0.00  0.00    +0.000 Cl
ENDBRANCH   8   9
ENDBRANCH   1   8
BRANCH   4  11
ATOM     11  C   UNL     1       7.186  -0.556  22.957  0.00  0.00    +0.000 C 
BRANCH  11  12
ATOM     12  C   UNL     1       7.072  -2.040  22.727  0.00  0.00    +0.000 C 
ATOM     13  C   UNL     1       7.944  -2.933  23.332  0.00  0.00    +0.000 C 
ATOM     14  C   UNL     1       7.834  -4.294  23.108  0.00  0.00    +0.000 C 
ATOM     15  C   UNL     1       6.834  -4.764  22.273  0.00  0.00    +0.000 C 
ATOM     16 CL   UNL     1       6.689  -6.464  21.986  0.00  0.00    +0.000 Cl
ATOM     17  C   UNL     1       5.947  -3.889  21.666  0.00  0.00    +0.000 C 
ATOM     18  C   UNL     1       6.073  -2.533  21.896  0.00  0.00    +0.000 C 
ENDBRANCH  11  12
ENDBRANCH   4  11
TORSDOF 4
ENDMDL
MODEL 8
REMARK VINA RESULT:      -5.4      1.409      1.608
REMARK  Name = 
REMARK  4 active torsions:
REMARK  status: ('A' for Active; 'I' for Inactive)
REMARK    1  A    between atoms: C_2  and  C_3
REMARK    2  A    between atoms: C_2  and  N_5
REMARK    3  A    between atoms: N_8  and  C_9
REMARK    4  A    between atoms: C_9  and  C_10
REMARK                            x       y       z     vdW  Elec       q    Type
REMARK                         _______ _______ _______ _____ _____    ______ ____
ROOT
ATOM      1  N   UNL     1       6.785  -4.263  25.661  0.00  0.00    +0.000 NA
ATOM      2  C   UNL     1       6.402  -2.895  25.376  0.00  0.00    +0.000 C 
ATOM      3  C   UNL     1       6.807  -2.555  23.924  0.00  0.00    +0.000 C 
ATOM      4  N   UNL     1       8.005  -3.243  23.503  0.00  0.00    +0.000 NA
ATOM      5  C   UNL     1       7.775  -4.681  23.457  0.00  0.00    +0.000 C 
ATOM      6  C   UNL     1       6.747  -5.143  24.509  0.00  0.00    +0.000 C 
ENDROOT
BRANCH   1   8
ATOM      7  O   UNL     1       8.353  -4.946  27.123  0.00  0.00    +0.000 OA
ATOM      8  C   UNL     1       7.183  -4.750  26.850  0.00  0.00    +0.000 C 
BRANCH   8   9
ATOM      9  C   UNL     1       6.107  -5.047  27.887  0.00  0.00    +0.000 C 
ATOM     10 CL   UNL     1       5.257  -6.573  27.533  0.00  0.00    +0.000 Cl
ENDBRANCH   8   9
ENDBRANCH   1   8
BRANCH   4  11
ATOM     11  C   UNL     1       9.200  -2.868  24.244  0.00  0.00    +0.000 C 
BRANCH  11  12
ATOM     12  C   UNL     1       9.569  -1.440  23.937  0.00  0.00    +0.000 C 
ATOM     13  C   UNL     1       9.768  -1.011  22.633  0.00  0.00    +0.000 C 
ATOM     14  C   UNL     1      10.113   0.302  22.364  0.00  0.00    +0.000 C 
ATOM     15  C   UNL     1      10.252   1.195  23.413  0.00  0.00    +0.000 C 
ATOM     16 CL   UNL     1      10.683   2.837  23.086  0.00  0.00    +0.000 Cl
ATOM     17  C   UNL     1      10.048   0.788  24.723  0.00  0.00    +0.000 C 
ATOM     18  C   UNL     1       9.709  -0.527  24.976  0.00  0.00    +0.000 C 
ENDBRANCH  11  12
ENDBRANCH   4  11
TORSDOF 4
ENDMDL
MODEL 9
REMARK VINA RESULT:      -5.2      2.230      6.423
REMARK  Name = 
REMARK  4 active torsions:
REMARK  status: ('A' for Active; 'I' for Inactive)
REMARK    1  A    between atoms: C_2  and  C_3
REMARK    2  A    between atoms: C_2  and  N_5
REMARK    3  A    between atoms: N_8  and  C_9
REMARK    4  A    between atoms: C_9  and  C_10
REMARK                            x       y       z     vdW  Elec       q    Type
REMARK                         _______ _______ _______ _____ _____    ______ ____
ROOT
ATOM      1  N   UNL     1      10.147   0.334  22.818  0.00  0.00    +0.000 NA
ATOM      2  C   UNL     1      10.340  -1.091  22.651  0.00  0.00    +0.000 C 
ATOM      3  C   UNL     1       9.193  -1.651  21.778  0.00  0.00    +0.000 C 
ATOM      4  N   UNL     1       7.949  -0.944  21.970  0.00  0.00    +0.000 NA
ATOM      5  C   UNL     1       8.073   0.435  21.514  0.00  0.00    +0.000 C 
ATOM      6  C   UNL     1       9.503   0.984  21.693  0.00  0.00    +0.000 C 
ENDROOT
BRANCH   1   8
ATOM      7  O   UNL     1      10.820   0.562  24.953  0.00  0.00    +0.000 OA
ATOM      8  C   UNL     1      10.478   1.064  23.899  0.00  0.00    +0.000 C 
BRANCH   8   9
ATOM      9  C   UNL     1      10.428   2.582  23.769  0.00  0.00    +0.000 C 
ATOM     10 CL   UNL     1       8.995   3.264  24.579  0.00  0.00    +0.000 Cl
ENDBRANCH   8   9
ENDBRANCH   1   8
BRANCH   4  11
ATOM     11  C   UNL     1       7.394  -1.066  23.309  0.00  0.00    +0.000 C 
BRANCH  11  12
ATOM     12  C   UNL     1       6.756  -2.420  23.480  0.00  0.00    +0.000 C 
ATOM     13  C   UNL     1       5.737  -2.848  22.642  0.00  0.00    +0.000 C 
ATOM     14  C   UNL     1       5.154  -4.092  22.811  0.00  0.00    +0.000 C 
ATOM     15  C   UNL     1       5.604  -4.917  23.829  0.00  0.00    +0.000 C 
ATOM     16 CL   UNL     1       4.881  -6.472  24.050  0.00  0.00    +0.000 Cl
ATOM     17  C   UNL     1       6.628  -4.511  24.672  0.00  0.00    +0.000 C 
ATOM     18  C   UNL     1       7.196  -3.265  24.492  0.00  0.00    +0.000 C 
ENDBRANCH  11  12
ENDBRANCH   4  11
TORSDOF 4
ENDMDL
