MODEL 1
REMARK VINA RESULT:      -6.7      0.000      0.000
REMARK  Name = 
REMARK  7 active torsions:
REMARK  status: ('A' for Active; 'I' for Inactive)
REMARK    1  A    between atoms: C_1  and  O_2
REMARK    2  A    between atoms: O_2  and  C_3
REMARK    3  A    between atoms: C_6  and  S_7
REMARK    4  A    between atoms: S_7  and  N_10
REMARK    5  A    between atoms: C_14  and  C_16
REMARK    6  A    between atoms: C_21  and  O_22
REMARK    7  A    between atoms: O_22  and  C_23
REMARK                            x       y       z     vdW  Elec       q    Type
REMARK                         _______ _______ _______ _____ _____    ______ ____
ROOT
ATOM      1  S   UNL     1       8.949   0.383  24.865  0.00  0.00    +0.000 S 
ATOM      2  O   UNL     1      10.316   0.150  25.285  0.00  0.00    +0.000 OA
ATOM      3  O   UNL     1       7.992   1.038  25.726  0.00  0.00    +0.000 OA
ENDROOT
BRANCH   1   4
ATOM      4  N   UNL     1       9.029   1.211  23.398  0.00  0.00    +0.000 NA
ATOM      5  C   UNL     1       9.930   0.785  22.312  0.00  0.00    +0.000 C 
ATOM      6  C   UNL     1       9.145   0.178  21.145  0.00  0.00    +0.000 C 
ATOM      7  N   UNL     1       7.957   0.934  20.716  0.00  0.00    +0.000 N 
ATOM      8  C   UNL     1       7.339   0.449  19.550  0.00  0.00    +0.000 C 
ATOM      9  O   UNL     1       7.906  -0.367  18.817  0.00  0.00    +0.000 OA
ATOM     10  C   UNL     1       7.205   1.681  21.734  0.00  0.00    +0.000 C 
ATOM     11  C   UNL     1       7.990   2.159  22.966  0.00  0.00    +0.000 C 
BRANCH   8  12
ATOM     12  C   UNL     1       5.936   0.926  19.203  0.00  0.00    +0.000 C 
ATOM     13 CL   UNL     1       5.901   1.428  17.499  0.00  0.00    +0.000 Cl
ENDBRANCH   8  12
ENDBRANCH   1   4
BRANCH   1  17
ATOM     14  C   UNL     1       7.548  -3.473  23.054  0.00  0.00    +0.000 A 
ATOM     15  C   UNL     1       6.694  -2.378  23.041  0.00  0.00    +0.000 A 
ATOM     16  C   UNL     1       7.033  -1.248  23.779  0.00  0.00    +0.000 A 
ATOM     17  C   UNL     1       8.269  -1.198  24.427  0.00  0.00    +0.000 A 
ATOM     18  C   UNL     1       9.029  -2.359  24.592  0.00  0.00    +0.000 A 
ATOM     19  C   UNL     1       8.611  -3.527  23.967  0.00  0.00    +0.000 A 
BRANCH  14  21
ATOM     20  C   UNL     1       6.297  -5.301  22.462  0.00  0.00    +0.000 C 
ATOM     21  O   UNL     1       7.367  -4.418  22.080  0.00  0.00    +0.000 OA
ENDBRANCH  14  21
BRANCH  19  22
ATOM     22  O   UNL     1       9.310  -4.674  24.239  0.00  0.00    +0.000 OA
ATOM     23  C   UNL     1       9.153  -5.074  25.608  0.00  0.00    +0.000 C 
ENDBRANCH  19  22
ENDBRANCH   1  17
TORSDOF 5
ENDMDL
MODEL 2
REMARK VINA RESULT:      -6.7      1.866      2.741
REMARK  Name = 
REMARK  7 active torsions:
REMARK  status: ('A' for Active; 'I' for Inactive)
REMARK    1  A    between atoms: C_1  and  O_2
REMARK    2  A    between atoms: O_2  and  C_3
REMARK    3  A    between atoms: C_6  and  S_7
REMARK    4  A    between atoms: S_7  and  N_10
REMARK    5  A    between atoms: C_14  and  C_16
REMARK    6  A    between atoms: C_21  and  O_22
REMARK    7  A    between atoms: O_22  and  C_23
REMARK                            x       y       z     vdW  Elec       q    Type
REMARK                         _______ _______ _______ _____ _____    ______ ____
ROOT
ATOM      1  S   UNL     1       9.050  -2.203  24.129  0.00  0.00    +0.000 S 
ATOM      2  O   UNL     1      10.216  -2.760  23.475  0.00  0.00    +0.000 OA
ATOM      3  O   UNL     1       9.027  -1.944  25.550  0.00  0.00    +0.000 OA
ENDROOT
BRANCH   1   4
ATOM      4  N   UNL     1       8.666  -0.783  23.304  0.00  0.00    +0.000 NA
ATOM      5  C   UNL     1       9.565  -0.205  22.289  0.00  0.00    +0.000 C 
ATOM      6  C   UNL     1       8.990  -0.373  20.878  0.00  0.00    +0.000 C 
ATOM      7  N   UNL     1       7.567  -0.029  20.726  0.00  0.00    +0.000 N 
ATOM      8  C   UNL     1       7.097  -0.039  19.401  0.00  0.00    +0.000 C 
ATOM      9  O   UNL     1       7.877  -0.071  18.445  0.00  0.00    +0.000 OA
ATOM     10  C   UNL     1       6.670  -0.268  21.865  0.00  0.00    +0.000 C 
ATOM     11  C   UNL     1       7.302  -0.233  23.266  0.00  0.00    +0.000 C 
BRANCH   8  12
ATOM     12  C   UNL     1       5.597  -0.034  19.149  0.00  0.00    +0.000 C 
ATOM     13 CL   UNL     1       5.022   1.647  19.113  0.00  0.00    +0.000 Cl
ENDBRANCH   8  12
ENDBRANCH   1   4
BRANCH   1  17
ATOM     14  C   UNL     1       5.195  -4.284  23.165  0.00  0.00    +0.000 A 
ATOM     15  C   UNL     1       5.552  -4.116  24.496  0.00  0.00    +0.000 A 
ATOM     16  C   UNL     1       6.831  -3.664  24.803  0.00  0.00    +0.000 A 
ATOM     17  C   UNL     1       7.691  -3.288  23.769  0.00  0.00    +0.000 A 
ATOM     18  C   UNL     1       7.401  -3.634  22.447  0.00  0.00    +0.000 A 
ATOM     19  C   UNL     1       6.173  -4.218  22.161  0.00  0.00    +0.000 A 
BRANCH  14  21
ATOM     20  C   UNL     1       3.350  -5.605  23.488  0.00  0.00    +0.000 C 
ATOM     21  O   UNL     1       3.861  -4.402  22.884  0.00  0.00    +0.000 OA
ENDBRANCH  14  21
BRANCH  19  22
ATOM     22  O   UNL     1       5.963  -4.651  20.878  0.00  0.00    +0.000 OA
ATOM     23  C   UNL     1       6.237  -6.053  20.744  0.00  0.00    +0.000 C 
ENDBRANCH  19  22
ENDBRANCH   1  17
TORSDOF 5
ENDMDL
MODEL 3
REMARK VINA RESULT:      -6.7      2.754      4.395
REMARK  Name = 
REMARK  7 active torsions:
REMARK  status: ('A' for Active; 'I' for Inactive)
REMARK    1  A    between atoms: C_1  and  O_2
REMARK    2  A    between atoms: O_2  and  C_3
REMARK    3  A    between atoms: C_6  and  S_7
REMARK    4  A    between atoms: S_7  and  N_10
REMARK    5  A    between atoms: C_14  and  C_16
REMARK    6  A    between atoms: C_21  and  O_22
REMARK    7  A    between atoms: O_22  and  C_23
REMARK                            x       y       z     vdW  Elec       q    Type
REMARK                         _______ _______ _______ _____ _____    ______ ____
ROOT
ATOM      1  S   UNL     1       9.911  -1.948  23.311  0.00  0.00    +0.000 S 
ATOM      2  O   UNL     1      10.961  -1.709  22.341  0.00  0.00    +0.000 OA
ATOM      3  O   UNL     1       9.771  -3.220  23.979  0.00  0.00    +0.000 OA
ENDROOT
BRANCH   1   4
ATOM      4  N   UNL     1      10.037  -0.727  24.469  0.00  0.00    +0.000 NA
ATOM      5  C   UNL     1      11.034   0.352  24.356  0.00  0.00    +0.000 C 
ATOM      6  C   UNL     1      10.368   1.689  24.011  0.00  0.00    +0.000 C 
ATOM      7  N   UNL     1       9.166   2.022  24.793  0.00  0.00    +0.000 N 
ATOM      8  C   UNL     1       8.660   3.314  24.574  0.00  0.00    +0.000 C 
ATOM      9  O   UNL     1       9.324   4.171  23.983  0.00  0.00    +0.000 OA
ATOM     10  C   UNL     1       8.303   0.920  25.241  0.00  0.00    +0.000 C 
ATOM     11  C   UNL     1       8.972  -0.448  25.445  0.00  0.00    +0.000 C 
BRANCH   8  12
ATOM     12  C   UNL     1       7.256   3.650  25.056  0.00  0.00    +0.000 C 
ATOM     13 CL   UNL     1       6.116   3.439  23.710  0.00  0.00    +0.000 Cl
ENDBRANCH   8  12
ENDBRANCH   1   4
BRANCH   1  17
ATOM     14  C   UNL     1       6.359  -1.414  20.626  0.00  0.00    +0.000 A 
ATOM     15  C   UNL     1       7.269  -0.372  20.749  0.00  0.00    +0.000 A 
ATOM     16  C   UNL     1       8.252  -0.445  21.730  0.00  0.00    +0.000 A 
ATOM     17  C   UNL     1       8.371  -1.606  22.496  0.00  0.00    +0.000 A 
ATOM     18  C   UNL     1       7.350  -2.560  22.499  0.00  0.00    +0.000 A 
ATOM     19  C   UNL     1       6.291  -2.410  21.611  0.00  0.00    +0.000 A 
BRANCH  14  21
ATOM     20  C   UNL     1       6.034  -0.406  18.593  0.00  0.00    +0.000 C 
ATOM     21  O   UNL     1       5.631  -1.475  19.468  0.00  0.00    +0.000 OA
ENDBRANCH  14  21
BRANCH  19  22
ATOM     22  O   UNL     1       5.249  -3.294  21.716  0.00  0.00    +0.000 OA
ATOM     23  C   UNL     1       5.149  -3.835  23.041  0.00  0.00    +0.000 C 
ENDBRANCH  19  22
ENDBRANCH   1  17
TORSDOF 5
ENDMDL
MODEL 4
REMARK VINA RESULT:      -6.6      2.740      5.684
REMARK  Name = 
REMARK  7 active torsions:
REMARK  status: ('A' for Active; 'I' for Inactive)
REMARK    1  A    between atoms: C_1  and  O_2
REMARK    2  A    between atoms: O_2  and  C_3
REMARK    3  A    between atoms: C_6  and  S_7
REMARK    4  A    between atoms: S_7  and  N_10
REMARK    5  A    between atoms: C_14  and  C_16
REMARK    6  A    between atoms: C_21  and  O_22
REMARK    7  A    between atoms: O_22  and  C_23
REMARK                            x       y       z     vdW  Elec       q    Type
REMARK                         _______ _______ _______ _____ _____    ______ ____
ROOT
ATOM      1  S   UNL     1      10.066  -0.768  23.108  0.00  0.00    +0.000 S 
ATOM      2  O   UNL     1      10.710   0.138  24.037  0.00  0.00    +0.000 OA
ATOM      3  O   UNL     1      10.826  -1.686  22.292  0.00  0.00    +0.000 OA
ENDROOT
BRANCH   1   4
ATOM      4  N   UNL     1       8.922  -1.635  23.994  0.00  0.00    +0.000 NA
ATOM      5  C   UNL     1       7.534  -1.161  24.148  0.00  0.00    +0.000 C 
ATOM      6  C   UNL     1       6.560  -2.024  23.340  0.00  0.00    +0.000 C 
ATOM      7  N   UNL     1       6.745  -3.479  23.465  0.00  0.00    +0.000 N 
ATOM      8  C   UNL     1       5.750  -4.255  22.844  0.00  0.00    +0.000 C 
ATOM      9  O   UNL     1       4.688  -3.752  22.467  0.00  0.00    +0.000 OA
ATOM     10  C   UNL     1       8.107  -3.990  23.669  0.00  0.00    +0.000 C 
ATOM     11  C   UNL     1       9.107  -3.048  24.358  0.00  0.00    +0.000 C 
BRANCH   8  12
ATOM     12  C   UNL     1       6.005  -5.738  22.615  0.00  0.00    +0.000 C 
ATOM     13 CL   UNL     1       6.141  -6.038  20.870  0.00  0.00    +0.000 Cl
ENDBRANCH   8  12
ENDBRANCH   1   4
BRANCH   1  17
ATOM     14  C   UNL     1       6.985   1.395  20.669  0.00  0.00    +0.000 A 
ATOM     15  C   UNL     1       7.557   0.239  20.154  0.00  0.00    +0.000 A 
ATOM     16  C   UNL     1       8.654  -0.319  20.802  0.00  0.00    +0.000 A 
ATOM     17  C   UNL     1       9.089   0.230  22.010  0.00  0.00    +0.000 A 
ATOM     18  C   UNL     1       8.639   1.487  22.418  0.00  0.00    +0.000 A 
ATOM     19  C   UNL     1       7.636   2.111  21.685  0.00  0.00    +0.000 A 
BRANCH  14  21
ATOM     20  C   UNL     1       5.446   0.992  19.019  0.00  0.00    +0.000 C 
ATOM     21  O   UNL     1       5.735   1.728  20.222  0.00  0.00    +0.000 OA
ENDBRANCH  14  21
BRANCH  19  22
ATOM     22  O   UNL     1       7.296   3.389  22.040  0.00  0.00    +0.000 OA
ATOM     23  C   UNL     1       8.112   3.872  23.118  0.00  0.00    +0.000 C 
ENDBRANCH  19  22
ENDBRANCH   1  17
TORSDOF 5
ENDMDL
MODEL 5
REMARK VINA RESULT:      -6.5      2.753      3.699
REMARK  Name = 
REMARK  7 active torsions:
REMARK  status: ('A' for Active; 'I' for Inactive)
REMARK    1  A    between atoms: C_1  and  O_2
REMARK    2  A    between atoms: O_2  and  C_3
REMARK    3  A    between atoms: C_6  and  S_7
REMARK    4  A    between atoms: S_7  and  N_10
REMARK    5  A    between atoms: C_14  and  C_16
REMARK    6  A    between atoms: C_21  and  O_22
REMARK    7  A    between atoms: O_22  and  C_23
REMARK                            x       y       z     vdW  Elec       q    Type
REMARK                         _______ _______ _______ _____ _____    ______ ____
ROOT
ATOM      1  S   UNL     1       9.494  -0.986  22.242  0.00  0.00    +0.000 S 
ATOM      2  O   UNL     1       9.239  -0.162  21.078  0.00  0.00    +0.000 OA
ATOM      3  O   UNL     1      10.647  -1.851  22.321  0.00  0.00    +0.000 OA
ENDROOT
BRANCH   1   4
ATOM      4  N   UNL     1       9.485   0.046  23.576  0.00  0.00    +0.000 NA
ATOM      5  C   UNL     1      10.697   0.766  24.010  0.00  0.00    +0.000 C 
ATOM      6  C   UNL     1      10.589   2.265  23.710  0.00  0.00    +0.000 C 
ATOM      7  N   UNL     1       9.313   2.898  24.081  0.00  0.00    +0.000 N 
ATOM      8  C   UNL     1       9.288   4.297  23.944  0.00  0.00    +0.000 C 
ATOM      9  O   UNL     1      10.327   4.944  23.783  0.00  0.00    +0.000 OA
ATOM     10  C   UNL     1       8.088   2.092  23.997  0.00  0.00    +0.000 C 
ATOM     11  C   UNL     1       8.244   0.572  24.163  0.00  0.00    +0.000 C 
BRANCH   8  12
ATOM     12  C   UNL     1       7.949   5.018  23.971  0.00  0.00    +0.000 C 
ATOM     13 CL   UNL     1       7.390   5.264  22.302  0.00  0.00    +0.000 Cl
ENDBRANCH   8  12
ENDBRANCH   1   4
BRANCH   1  17
ATOM     14  C   UNL     1       6.127  -3.950  22.217  0.00  0.00    +0.000 A 
ATOM     15  C   UNL     1       5.963  -2.743  21.550  0.00  0.00    +0.000 A 
ATOM     16  C   UNL     1       6.910  -1.739  21.725  0.00  0.00    +0.000 A 
ATOM     17  C   UNL     1       8.056  -2.002  22.478  0.00  0.00    +0.000 A 
ATOM     18  C   UNL     1       8.123  -3.135  23.292  0.00  0.00    +0.000 A 
ATOM     19  C   UNL     1       7.101  -4.074  23.219  0.00  0.00    +0.000 A 
BRANCH  14  21
ATOM     20  C   UNL     1       6.175  -5.810  20.880  0.00  0.00    +0.000 C 
ATOM     21  O   UNL     1       5.385  -5.013  21.779  0.00  0.00    +0.000 OA
ENDBRANCH  14  21
BRANCH  19  22
ATOM     22  O   UNL     1       7.136  -5.115  24.109  0.00  0.00    +0.000 OA
ATOM     23  C   UNL     1       8.297  -5.051  24.950  0.00  0.00    +0.000 C 
ENDBRANCH  19  22
ENDBRANCH   1  17
TORSDOF 5
ENDMDL
MODEL 6
REMARK VINA RESULT:      -6.2      3.501      6.527
REMARK  Name = 
REMARK  7 active torsions:
REMARK  status: ('A' for Active; 'I' for Inactive)
REMARK    1  A    between atoms: C_1  and  O_2
REMARK    2  A    between atoms: O_2  and  C_3
REMARK    3  A    between atoms: C_6  and  S_7
REMARK    4  A    between atoms: S_7  and  N_10
REMARK    5  A    between atoms: C_14  and  C_16
REMARK    6  A    between atoms: C_21  and  O_22
REMARK    7  A    between atoms: O_22  and  C_23
REMARK                            x       y       z     vdW  Elec       q    Type
REMARK                         _______ _______ _______ _____ _____    ______ ____
ROOT
ATOM      1  S   UNL     1       8.831  -0.612  24.351  0.00  0.00    +0.000 S 
ATOM      2  O   UNL     1       7.866  -0.069  25.285  0.00  0.00    +0.000 OA
ATOM      3  O   UNL     1      10.252  -0.501  24.578  0.00  0.00    +0.000 OA
ENDROOT
BRANCH   1   4
ATOM      4  N   UNL     1       8.432  -2.237  24.134  0.00  0.00    +0.000 NA
ATOM      5  C   UNL     1       9.321  -3.323  24.585  0.00  0.00    +0.000 C 
ATOM      6  C   UNL     1       8.738  -4.048  25.803  0.00  0.00    +0.000 C 
ATOM      7  N   UNL     1       7.312  -4.400  25.711  0.00  0.00    +0.000 N 
ATOM      8  C   UNL     1       6.834  -5.198  26.765  0.00  0.00    +0.000 C 
ATOM      9  O   UNL     1       7.608  -5.765  27.541  0.00  0.00    +0.000 OA
ATOM     10  C   UNL     1       6.424  -3.506  24.955  0.00  0.00    +0.000 C 
ATOM     11  C   UNL     1       7.065  -2.682  23.827  0.00  0.00    +0.000 C 
BRANCH   8  12
ATOM     12  C   UNL     1       5.331  -5.342  26.959  0.00  0.00    +0.000 C 
ATOM     13 CL   UNL     1       4.805  -6.892  26.267  0.00  0.00    +0.000 Cl
ENDBRANCH   8  12
ENDBRANCH   1   4
BRANCH   1  17
ATOM     14  C   UNL     1       7.455   0.665  20.277  0.00  0.00    +0.000 A 
ATOM     15  C   UNL     1       8.579  -0.144  20.383  0.00  0.00    +0.000 A 
ATOM     16  C   UNL     1       9.133  -0.372  21.638  0.00  0.00    +0.000 A 
ATOM     17  C   UNL     1       8.489   0.126  22.772  0.00  0.00    +0.000 A 
ATOM     18  C   UNL     1       7.481   1.085  22.649  0.00  0.00    +0.000 A 
ATOM     19  C   UNL     1       7.024   1.418  21.380  0.00  0.00    +0.000 A 
BRANCH  14  21
ATOM     20  C   UNL     1       5.946  -0.591  19.096  0.00  0.00    +0.000 C 
ATOM     21  O   UNL     1       6.748   0.604  19.107  0.00  0.00    +0.000 OA
ENDBRANCH  14  21
BRANCH  19  22
ATOM     22  O   UNL     1       6.118   2.442  21.283  0.00  0.00    +0.000 OA
ATOM     23  C   UNL     1       6.329   3.429  22.302  0.00  0.00    +0.000 C 
ENDBRANCH  19  22
ENDBRANCH   1  17
TORSDOF 5
ENDMDL
MODEL 7
REMARK VINA RESULT:      -6.2      2.155      2.879
REMARK  Name = 
REMARK  7 active torsions:
REMARK  status: ('A' for Active; 'I' for Inactive)
REMARK    1  A    between atoms: C_1  and  O_2
REMARK    2  A    between atoms: O_2  and  C_3
REMARK    3  A    between atoms: C_6  and  S_7
REMARK    4  A    between atoms: S_7  and  N_10
REMARK    5  A    between atoms: C_14  and  C_16
REMARK    6  A    between atoms: C_21  and  O_22
REMARK    7  A    between atoms: O_22  and  C_23
REMARK                            x       y       z     vdW  Elec       q    Type
REMARK                         _______ _______ _______ _____ _____    ______ ____
ROOT
ATOM      1  S   UNL     1       8.885  -2.580  24.549  0.00  0.00    +0.000 S 
ATOM      2  O   UNL     1       9.952  -3.494  24.196  0.00  0.00    +0.000 OA
ATOM      3  O   UNL     1       8.582  -2.263  25.925  0.00  0.00    +0.000 OA
ENDROOT
BRANCH   1   4
ATOM      4  N   UNL     1       9.175  -1.149  23.704  0.00  0.00    +0.000 NA
ATOM      5  C   UNL     1       9.981  -1.124  22.470  0.00  0.00    +0.000 C 
ATOM      6  C   UNL     1       9.102  -0.871  21.239  0.00  0.00    +0.000 C 
ATOM      7  N   UNL     1       8.120   0.218  21.372  0.00  0.00    +0.000 N 
ATOM      8  C   UNL     1       7.433   0.539  20.188  0.00  0.00    +0.000 C 
ATOM      9  O   UNL     1       7.819   0.124  19.091  0.00  0.00    +0.000 OA
ATOM     10  C   UNL     1       7.533   0.465  22.696  0.00  0.00    +0.000 C 
ATOM     11  C   UNL     1       8.381   0.071  23.916  0.00  0.00    +0.000 C 
BRANCH   8  12
ATOM     12  C   UNL     1       6.178   1.395  20.270  0.00  0.00    +0.000 C 
ATOM     13 CL   UNL     1       5.362   1.379  18.692  0.00  0.00    +0.000 Cl
ENDBRANCH   8  12
ENDBRANCH   1   4
BRANCH   1  17
ATOM     14  C   UNL     1       5.256  -4.813  23.149  0.00  0.00    +0.000 A 
ATOM     15  C   UNL     1       6.435  -4.927  22.423  0.00  0.00    +0.000 A 
ATOM     16  C   UNL     1       7.499  -4.083  22.724  0.00  0.00    +0.000 A 
ATOM     17  C   UNL     1       7.399  -3.216  23.814  0.00  0.00    +0.000 A 
ATOM     18  C   UNL     1       6.160  -2.973  24.413  0.00  0.00    +0.000 A 
ATOM     19  C   UNL     1       5.062  -3.723  24.010  0.00  0.00    +0.000 A 
BRANCH  14  21
ATOM     20  C   UNL     1       4.600  -6.769  24.147  0.00  0.00    +0.000 C 
ATOM     21  O   UNL     1       4.367  -5.851  23.064  0.00  0.00    +0.000 OA
ENDBRANCH  14  21
BRANCH  19  22
ATOM     22  O   UNL     1       3.841  -3.385  24.530  0.00  0.00    +0.000 OA
ATOM     23  C   UNL     1       3.915  -3.162  25.946  0.00  0.00    +0.000 C 
ENDBRANCH  19  22
ENDBRANCH   1  17
TORSDOF 5
ENDMDL
MODEL 8
REMARK VINA RESULT:      -6.2      2.984      4.099
REMARK  Name = 
REMARK  7 active torsions:
REMARK  status: ('A' for Active; 'I' for Inactive)
REMARK    1  A    between atoms: C_1  and  O_2
REMARK    2  A    between atoms: O_2  and  C_3
REMARK    3  A    between atoms: C_6  and  S_7
REMARK    4  A    between atoms: S_7  and  N_10
REMARK    5  A    between atoms: C_14  and  C_16
REMARK    6  A    between atoms: C_21  and  O_22
REMARK    7  A    between atoms: O_22  and  C_23
REMARK                            x       y       z     vdW  Elec       q    Type
REMARK                         _______ _______ _______ _____ _____    ______ ____
ROOT
ATOM      1  S   UNL     1       9.125  -1.519  22.589  0.00  0.00    +0.000 S 
ATOM      2  O   UNL     1       8.007  -1.149  21.744  0.00  0.00    +0.000 OA
ATOM      3  O   UNL     1      10.460  -1.667  22.059  0.00  0.00    +0.000 OA
ENDROOT
BRANCH   1   4
ATOM      4  N   UNL     1       9.156  -0.412  23.861  0.00  0.00    +0.000 NA
ATOM      5  C   UNL     1      10.399   0.265  24.273  0.00  0.00    +0.000 C 
ATOM      6  C   UNL     1      10.379   1.747  23.885  0.00  0.00    +0.000 C 
ATOM      7  N   UNL     1       9.136   2.470  24.199  0.00  0.00    +0.000 N 
ATOM      8  C   UNL     1       9.190   3.858  23.980  0.00  0.00    +0.000 C 
ATOM      9  O   UNL     1      10.266   4.436  23.800  0.00  0.00    +0.000 OA
ATOM     10  C   UNL     1       7.869   1.729  24.141  0.00  0.00    +0.000 C 
ATOM     11  C   UNL     1       7.938   0.215  24.396  0.00  0.00    +0.000 C 
BRANCH   8  12
ATOM     12  C   UNL     1       7.893   4.652  23.943  0.00  0.00    +0.000 C 
ATOM     13 CL   UNL     1       7.350   4.795  22.257  0.00  0.00    +0.000 Cl
ENDBRANCH   8  12
ENDBRANCH   1   4
BRANCH   1  17
ATOM     14  C   UNL     1       7.503  -4.972  24.947  0.00  0.00    +0.000 A 
ATOM     15  C   UNL     1       8.611  -4.290  25.432  0.00  0.00    +0.000 A 
ATOM     16  C   UNL     1       9.245  -3.361  24.614  0.00  0.00    +0.000 A 
ATOM     17  C   UNL     1       8.693  -3.055  23.369  0.00  0.00    +0.000 A 
ATOM     18  C   UNL     1       7.702  -3.869  22.815  0.00  0.00    +0.000 A 
ATOM     19  C   UNL     1       7.166  -4.892  23.588  0.00  0.00    +0.000 A 
BRANCH  14  21
ATOM     20  C   UNL     1       7.181  -5.317  27.190  0.00  0.00    +0.000 C 
ATOM     21  O   UNL     1       6.715  -5.616  25.862  0.00  0.00    +0.000 OA
ENDBRANCH  14  21
BRANCH  19  22
ATOM     22  O   UNL     1       6.282  -5.745  22.981  0.00  0.00    +0.000 OA
ATOM     23  C   UNL     1       6.489  -5.797  21.562  0.00  0.00    +0.000 C 
ENDBRANCH  19  22
ENDBRANCH   1  17
TORSDOF 5
ENDMDL
MODEL 9
REMARK VINA RESULT:      -6.1      3.388      4.644
REMARK  Name = 
REMARK  7 active torsions:
REMARK  status: ('A' for Active; 'I' for Inactive)
REMARK    1  A    between atoms: C_1  and  O_2
REMARK    2  A    between atoms: O_2  and  C_3
REMARK    3  A    between atoms: C_6  and  S_7
REMARK    4  A    between atoms: S_7  and  N_10
REMARK    5  A    between atoms: C_14  and  C_16
REMARK    6  A    between atoms: C_21  and  O_22
REMARK    7  A    between atoms: O_22  and  C_23
REMARK                            x       y       z     vdW  Elec       q    Type
REMARK                         _______ _______ _______ _____ _____    ______ ____
ROOT
ATOM      1  S   UNL     1       7.670  -4.673  23.506  0.00  0.00    +0.000 S 
ATOM      2  O   UNL     1       7.502  -4.738  22.069  0.00  0.00    +0.000 OA
ATOM      3  O   UNL     1       8.782  -5.312  24.170  0.00  0.00    +0.000 OA
ENDROOT
BRANCH   1   4
ATOM      4  N   UNL     1       7.645  -3.038  23.922  0.00  0.00    +0.000 NA
ATOM      5  C   UNL     1       8.869  -2.316  24.313  0.00  0.00    +0.000 C 
ATOM      6  C   UNL     1       9.304  -1.330  23.223  0.00  0.00    +0.000 C 
ATOM      7  N   UNL     1       8.233  -0.493  22.658  0.00  0.00    +0.000 N 
ATOM      8  C   UNL     1       8.672   0.509  21.776  0.00  0.00    +0.000 C 
ATOM      9  O   UNL     1       9.864   0.819  21.700  0.00  0.00    +0.000 OA
ATOM     10  C   UNL     1       6.881  -1.063  22.569  0.00  0.00    +0.000 C 
ATOM     11  C   UNL     1       6.518  -2.154  23.589  0.00  0.00    +0.000 C 
BRANCH   8  12
ATOM     12  C   UNL     1       7.655   1.204  20.882  0.00  0.00    +0.000 C 
ATOM     13 CL   UNL     1       7.608   0.381  19.309  0.00  0.00    +0.000 Cl
ENDBRANCH   8  12
ENDBRANCH   1   4
BRANCH   1  17
ATOM     14  C   UNL     1       4.148  -6.995  25.028  0.00  0.00    +0.000 A 
ATOM     15  C   UNL     1       4.041  -6.335  23.811  0.00  0.00    +0.000 A 
ATOM     16  C   UNL     1       5.043  -5.449  23.431  0.00  0.00    +0.000 A 
ATOM     17  C   UNL     1       6.183  -5.321  24.228  0.00  0.00    +0.000 A 
ATOM     18  C   UNL     1       6.199  -5.834  25.527  0.00  0.00    +0.000 A 
ATOM     19  C   UNL     1       5.126  -6.607  25.955  0.00  0.00    +0.000 A 
BRANCH  14  21
ATOM     20  C   UNL     1       2.035  -7.647  25.632  0.00  0.00    +0.000 C 
ATOM     21  O   UNL     1       3.343  -8.085  25.222  0.00  0.00    +0.000 OA
ENDBRANCH  14  21
BRANCH  19  22
ATOM     22  O   UNL     1       5.115  -6.999  27.268  0.00  0.00    +0.000 OA
ATOM     23  C   UNL     1       4.932  -5.883  28.151  0.00  0.00    +0.000 C 
ENDBRANCH  19  22
ENDBRANCH   1  17
TORSDOF 5
ENDMDL
