
  xtb     06082022523D
xtb: 6.2.3 (830e466)
 39 40  0     0  0            999 V2000
    7.9643   10.1523    4.8096 C   0  0  0  0  0  0  0  0  0  0  0  0
    8.3310   11.1451    5.8793 C   0  0  0  0  0  0  0  0  0  0  0  0
    8.8912   12.1870    5.6321 O   0  0  0  0  0  0  0  0  0  0  0  0
    7.9755   10.7803    7.2833 C   0  0  0  0  0  0  0  0  0  0  0  0
    8.5182   11.5464    8.3156 C   0  0  0  0  0  0  0  0  0  0  0  0
    8.2427   11.2584    9.6407 C   0  0  0  0  0  0  0  0  0  0  0  0
    7.4049   10.2003    9.9543 C   0  0  0  0  0  0  0  0  0  0  0  0
    6.8573    9.4508    8.9298 C   0  0  0  0  0  0  0  0  0  0  0  0
    5.7544    8.1041    9.3552 S   0  0  0  0  0  0  0  0  0  0  0  0
    5.3151    7.4905    8.1286 O   0  0  0  0  0  0  0  0  0  0  0  0
    6.3699    7.2890   10.3530 O   0  0  0  0  0  0  0  0  0  0  0  0
    4.5173    8.9914   10.0782 N   0  0  0  0  0  0  0  0  0  0  0  0
    3.5209    9.4470    9.1404 C   0  0  0  0  0  0  0  0  0  0  0  0
    2.6037    8.2854    8.6873 C   0  0  0  0  0  0  0  0  0  0  0  0
    2.5917    7.2646    9.7105 N   0  0  0  0  0  0  0  0  0  0  0  0
    2.8142    5.9322    9.5444 C   0  0  0  0  0  0  0  0  0  0  0  0
    2.8875    5.1802   10.4879 O   0  0  0  0  0  0  0  0  0  0  0  0
    2.9156    5.4630    8.0994 C   0  0  0  0  0  0  0  0  0  0  0  0
    2.9056    3.6926    8.0436 Cl  0  0  0  0  0  0  0  0  0  0  0  0
    2.6020    7.8002   11.0562 C   0  0  0  0  0  0  0  0  0  0  0  0
    3.9616    8.4719   11.3145 C   0  0  0  0  0  0  0  0  0  0  0  0
    7.1314    9.7189    7.6058 C   0  0  0  0  0  0  0  0  0  0  0  0
    8.3860   10.4739    3.8608 H   0  0  0  0  0  0  0  0  0  0  0  0
    6.8817   10.0969    4.7148 H   0  0  0  0  0  0  0  0  0  0  0  0
    8.3392    9.1640    5.0633 H   0  0  0  0  0  0  0  0  0  0  0  0
    9.1662   12.3687    8.0498 H   0  0  0  0  0  0  0  0  0  0  0  0
    8.6797   11.8554   10.4262 H   0  0  0  0  0  0  0  0  0  0  0  0
    7.1714    9.9394   10.9739 H   0  0  0  0  0  0  0  0  0  0  0  0
    4.0438    9.8709    8.2828 H   0  0  0  0  0  0  0  0  0  0  0  0
    2.9441   10.2391    9.6251 H   0  0  0  0  0  0  0  0  0  0  0  0
    2.9860    7.8723    7.7577 H   0  0  0  0  0  0  0  0  0  0  0  0
    1.5829    8.6574    8.5263 H   0  0  0  0  0  0  0  0  0  0  0  0
    3.8638    5.8049    7.6788 H   0  0  0  0  0  0  0  0  0  0  0  0
    2.0725    5.8109    7.5029 H   0  0  0  0  0  0  0  0  0  0  0  0
    2.4390    6.9761   11.7508 H   0  0  0  0  0  0  0  0  0  0  0  0
    1.7850    8.5225   11.1459 H   0  0  0  0  0  0  0  0  0  0  0  0
    3.8593    9.2946   12.0302 H   0  0  0  0  0  0  0  0  0  0  0  0
    4.6837    7.7501   11.6969 H   0  0  0  0  0  0  0  0  0  0  0  0
    6.6754    9.0909    6.8576 H   0  0  0  0  0  0  0  0  0  0  0  0
  1  2  1  0  0  0  0
  1 23  1  0  0  0  0
  1 24  1  0  0  0  0
  1 25  1  0  0  0  0
  2  3  1  0  0  0  0
  2  4  1  0  0  0  0
  4  5  1  0  0  0  0
  4 22  1  0  0  0  0
  5  6  1  0  0  0  0
  5 26  1  0  0  0  0
  6  7  1  0  0  0  0
  6 27  1  0  0  0  0
  7  8  1  0  0  0  0
  7 28  1  0  0  0  0
  8  9  1  0  0  0  0
  8 22  1  0  0  0  0
  9 10  1  0  0  0  0
  9 11  1  0  0  0  0
  9 12  1  0  0  0  0
 12 13  1  0  0  0  0
 12 21  1  0  0  0  0
 13 14  1  0  0  0  0
 13 29  1  0  0  0  0
 13 30  1  0  0  0  0
 14 15  1  0  0  0  0
 14 31  1  0  0  0  0
 14 32  1  0  0  0  0
 15 16  1  0  0  0  0
 15 20  1  0  0  0  0
 16 17  1  0  0  0  0
 16 18  1  0  0  0  0
 18 19  1  0  0  0  0
 18 33  1  0  0  0  0
 18 34  1  0  0  0  0
 20 21  1  0  0  0  0
 20 35  1  0  0  0  0
 20 36  1  0  0  0  0
 21 37  1  0  0  0  0
 21 38  1  0  0  0  0
 22 39  1  0  0  0  0
M  END
>  <name>


>  <Energy>
74.6844

> <total energy / Eh>
    -68.564708279961

> <gradient norm / Eh/a0>
      0.000518236008

$$$$
