
  xtb     06082022573D
xtb: 6.2.3 (830e466)
 39 41  0     0  0            999 V2000
   10.0468    5.0807    3.8121 O   0  0  0  0  0  0  0  0  0  0  0  0
    9.3471    6.0749    3.8565 C   0  0  0  0  0  0  0  0  0  0  0  0
    9.8502    7.3893    3.2678 C   0  0  0  0  0  0  0  0  0  0  0  0
   10.2995    8.5222    4.5665 Cl  0  0  0  0  0  0  0  0  0  0  0  0
    8.1148    6.0829    4.3964 N   0  0  0  0  0  0  0  0  0  0  0  0
    7.2196    7.2233    4.4404 C   0  0  0  0  0  0  0  0  0  0  0  0
    6.1870    7.0144    5.5684 C   0  0  0  0  0  0  0  0  0  0  0  0
    6.7578    6.3762    6.7317 N   0  0  0  0  0  0  0  0  0  0  0  0
    7.7940    7.1658    7.3932 C   0  0  0  0  0  0  0  0  0  0  0  0
    7.2876    8.5354    7.7555 C   0  0  0  0  0  0  0  0  0  0  0  0
    6.1331    8.6656    8.5191 C   0  0  0  0  0  0  0  0  0  0  0  0
    5.6242    9.9072    8.8662 C   0  0  0  0  0  0  0  0  0  0  0  0
    6.3079   11.0284    8.4330 C   0  0  0  0  0  0  0  0  0  0  0  0
    7.4696   10.9137    7.6726 C   0  0  0  0  0  0  0  0  0  0  0  0
    7.9628    9.6759    7.3275 C   0  0  0  0  0  0  0  0  0  0  0  0
    7.9717   12.2948    7.3668 C   0  0  0  0  0  0  0  0  0  0  0  0
    6.9097   13.1757    8.0566 C   0  0  0  0  0  0  0  0  0  0  0  0
    5.9528   12.3158    8.6789 O   0  0  0  0  0  0  0  0  0  0  0  0
    7.1791    5.0204    6.4075 C   0  0  0  0  0  0  0  0  0  0  0  0
    7.5643    4.8505    4.9245 C   0  0  0  0  0  0  0  0  0  0  0  0
    9.1059    7.8790    2.6408 H   0  0  0  0  0  0  0  0  0  0  0  0
   10.7571    7.1832    2.6996 H   0  0  0  0  0  0  0  0  0  0  0  0
    6.7012    7.3402    3.4790 H   0  0  0  0  0  0  0  0  0  0  0  0
    7.7856    8.1321    4.6474 H   0  0  0  0  0  0  0  0  0  0  0  0
    5.3639    6.3841    5.2225 H   0  0  0  0  0  0  0  0  0  0  0  0
    5.7750    7.9820    5.8592 H   0  0  0  0  0  0  0  0  0  0  0  0
    8.7090    7.2594    6.7896 H   0  0  0  0  0  0  0  0  0  0  0  0
    8.0534    6.6294    8.3126 H   0  0  0  0  0  0  0  0  0  0  0  0
    5.6213    7.7701    8.8364 H   0  0  0  0  0  0  0  0  0  0  0  0
    4.7277   10.0042    9.4566 H   0  0  0  0  0  0  0  0  0  0  0  0
    8.8638    9.5928    6.7376 H   0  0  0  0  0  0  0  0  0  0  0  0
    8.0182   12.4787    6.2923 H   0  0  0  0  0  0  0  0  0  0  0  0
    8.9677   12.4593    7.7809 H   0  0  0  0  0  0  0  0  0  0  0  0
    6.3738   13.8110    7.3443 H   0  0  0  0  0  0  0  0  0  0  0  0
    7.3411   13.8132    8.8342 H   0  0  0  0  0  0  0  0  0  0  0  0
    6.3505    4.3386    6.6337 H   0  0  0  0  0  0  0  0  0  0  0  0
    8.0215    4.7499    7.0450 H   0  0  0  0  0  0  0  0  0  0  0  0
    8.3198    4.0735    4.8048 H   0  0  0  0  0  0  0  0  0  0  0  0
    6.6846    4.5807    4.3298 H   0  0  0  0  0  0  0  0  0  0  0  0
  1  2  1  0  0  0  0
  2  3  1  0  0  0  0
  2  5  1  0  0  0  0
  3  4  1  0  0  0  0
  3 21  1  0  0  0  0
  3 22  1  0  0  0  0
  5  6  1  0  0  0  0
  5 20  1  0  0  0  0
  6  7  1  0  0  0  0
  6 23  1  0  0  0  0
  6 24  1  0  0  0  0
  7  8  1  0  0  0  0
  7 25  1  0  0  0  0
  7 26  1  0  0  0  0
  8  9  1  0  0  0  0
  8 19  1  0  0  0  0
  9 10  1  0  0  0  0
  9 27  1  0  0  0  0
  9 28  1  0  0  0  0
 10 11  1  0  0  0  0
 10 15  1  0  0  0  0
 11 12  1  0  0  0  0
 11 29  1  0  0  0  0
 12 13  1  0  0  0  0
 12 30  1  0  0  0  0
 13 14  1  0  0  0  0
 13 18  1  0  0  0  0
 14 15  1  0  0  0  0
 14 16  1  0  0  0  0
 15 31  1  0  0  0  0
 16 17  1  0  0  0  0
 16 32  1  0  0  0  0
 16 33  1  0  0  0  0
 17 18  1  0  0  0  0
 17 34  1  0  0  0  0
 17 35  1  0  0  0  0
 19 20  1  0  0  0  0
 19 36  1  0  0  0  0
 19 37  1  0  0  0  0
 20 38  1  0  0  0  0
 20 39  1  0  0  0  0
M  END
>  <name>


>  <Energy>
114.746

> <total energy / Eh>
    -60.376527812970

> <gradient norm / Eh/a0>
      0.000229236710

$$$$
