MODEL 1
REMARK VINA RESULT:      -6.5      0.000      0.000
REMARK  Name = 
REMARK  8 active torsions:
REMARK  status: ('A' for Active; 'I' for Inactive)
REMARK    1  A    between atoms: C_1  and  O_2
REMARK    2  A    between atoms: O_2  and  C_3
REMARK    3  A    between atoms: C_6  and  O_7
REMARK    4  A    between atoms: O_7  and  C_8
REMARK    5  A    between atoms: C_9  and  S_10
REMARK    6  A    between atoms: S_10  and  N_13
REMARK    7  A    between atoms: N_16  and  C_17
REMARK    8  A    between atoms: C_17  and  C_19
REMARK                            x       y       z     vdW  Elec       q    Type
REMARK                         _______ _______ _______ _____ _____    ______ ____
ROOT
ATOM      1  S   UNL     1       8.991  -2.343  24.225  0.00  0.00    +0.000 S 
ATOM      2  O   UNL     1       8.940  -1.558  25.426  0.00  0.00    +0.000 OA
ATOM      3  O   UNL     1      10.118  -3.192  24.007  0.00  0.00    +0.000 OA
ENDROOT
BRANCH   1   8
ATOM      4  C   UNL     1       7.440  -0.494  20.994  0.00  0.00    +0.000 C 
ATOM      5  C   UNL     1       8.326   0.565  20.792  0.00  0.00    +0.000 C 
ATOM      6  C   UNL     1       9.424   0.745  21.608  0.00  0.00    +0.000 C 
ATOM      7  C   UNL     1       9.677  -0.135  22.662  0.00  0.00    +0.000 C 
ATOM      8  C   UNL     1       8.789  -1.187  22.856  0.00  0.00    +0.000 C 
ATOM      9  C   UNL     1       7.689  -1.373  22.042  0.00  0.00    +0.000 C 
BRANCH   4  11
ATOM     10  C   UNL     1       6.590  -0.187  18.797  0.00  0.00    +0.000 C 
ATOM     11  O   UNL     1       6.392  -0.581  20.137  0.00  0.00    +0.000 OA
ENDBRANCH   4  11
BRANCH   7  12
ATOM     12  O   UNL     1      10.742  -0.062  23.500  0.00  0.00    +0.000 OA
ATOM     13  C   UNL     1      10.928   1.111  24.260  0.00  0.00    +0.000 C 
ENDBRANCH   7  12
ENDBRANCH   1   8
BRANCH   1  14
ATOM     14  N   UNL     1       7.628  -3.305  24.262  0.00  0.00    +0.000 NA
ATOM     15  C   UNL     1       6.700  -3.167  25.364  0.00  0.00    +0.000 C 
ATOM     16  C   UNL     1       6.629  -4.452  26.179  0.00  0.00    +0.000 C 
ATOM     17  N   UNL     1       6.172  -5.540  25.328  0.00  0.00    +0.000 NA
ATOM     18  C   UNL     1       6.584  -5.484  23.939  0.00  0.00    +0.000 C 
ATOM     19  C   UNL     1       7.861  -4.658  23.812  0.00  0.00    +0.000 C 
BRANCH  17  20
ATOM     20  C   UNL     1       5.283  -6.425  25.843  0.00  0.00    +0.000 C 
ATOM     21  O   UNL     1       5.376  -6.850  26.972  0.00  0.00    +0.000 OA
BRANCH  20  22
ATOM     22  C   UNL     1       4.171  -6.846  24.885  0.00  0.00    +0.000 C 
ATOM     23 CL   UNL     1       3.004  -5.523  24.694  0.00  0.00    +0.000 Cl
ENDBRANCH  20  22
ENDBRANCH  17  20
ENDBRANCH   1  14
TORSDOF 6
ENDMDL
MODEL 2
REMARK VINA RESULT:      -6.1      1.936      2.383
REMARK  Name = 
REMARK  8 active torsions:
REMARK  status: ('A' for Active; 'I' for Inactive)
REMARK    1  A    between atoms: C_1  and  O_2
REMARK    2  A    between atoms: O_2  and  C_3
REMARK    3  A    between atoms: C_6  and  O_7
REMARK    4  A    between atoms: O_7  and  C_8
REMARK    5  A    between atoms: C_9  and  S_10
REMARK    6  A    between atoms: S_10  and  N_13
REMARK    7  A    between atoms: N_16  and  C_17
REMARK    8  A    between atoms: C_17  and  C_19
REMARK                            x       y       z     vdW  Elec       q    Type
REMARK                         _______ _______ _______ _____ _____    ______ ____
ROOT
ATOM      1  S   UNL     1       9.741  -0.876  22.959  0.00  0.00    +0.000 S 
ATOM      2  O   UNL     1      10.459   0.063  23.773  0.00  0.00    +0.000 OA
ATOM      3  O   UNL     1      10.482  -1.788  22.148  0.00  0.00    +0.000 OA
ENDROOT
BRANCH   1   8
ATOM      4  C   UNL     1       7.554   0.370  19.809  0.00  0.00    +0.000 C 
ATOM      5  C   UNL     1       6.824   1.433  20.344  0.00  0.00    +0.000 C 
ATOM      6  C   UNL     1       6.981   1.818  21.660  0.00  0.00    +0.000 C 
ATOM      7  C   UNL     1       7.880   1.150  22.493  0.00  0.00    +0.000 C 
ATOM      8  C   UNL     1       8.601   0.092  21.952  0.00  0.00    +0.000 C 
ATOM      9  C   UNL     1       8.450  -0.299  20.636  0.00  0.00    +0.000 C 
BRANCH   4  11
ATOM     10  C   UNL     1       5.988   0.015  18.059  0.00  0.00    +0.000 C 
ATOM     11  O   UNL     1       7.324   0.070  18.506  0.00  0.00    +0.000 OA
ENDBRANCH   4  11
BRANCH   7  12
ATOM     12  O   UNL     1       8.128   1.469  23.788  0.00  0.00    +0.000 OA
ATOM     13  C   UNL     1       7.992   2.814  24.193  0.00  0.00    +0.000 C 
ENDBRANCH   7  12
ENDBRANCH   1   8
BRANCH   1  14
ATOM     14  N   UNL     1       8.820  -1.774  24.021  0.00  0.00    +0.000 NA
ATOM     15  C   UNL     1       9.423  -2.905  24.693  0.00  0.00    +0.000 C 
ATOM     16  C   UNL     1       8.743  -4.206  24.287  0.00  0.00    +0.000 C 
ATOM     17  N   UNL     1       7.335  -4.151  24.656  0.00  0.00    +0.000 NA
ATOM     18  C   UNL     1       6.704  -2.848  24.580  0.00  0.00    +0.000 C 
ATOM     19  C   UNL     1       7.455  -1.966  23.587  0.00  0.00    +0.000 C 
BRANCH  17  20
ATOM     20  C   UNL     1       6.769  -5.264  25.182  0.00  0.00    +0.000 C 
ATOM     21  O   UNL     1       7.202  -5.801  26.177  0.00  0.00    +0.000 OA
BRANCH  20  22
ATOM     22  C   UNL     1       5.556  -5.788  24.417  0.00  0.00    +0.000 C 
ATOM     23 CL   UNL     1       5.979  -6.037  22.711  0.00  0.00    +0.000 Cl
ENDBRANCH  20  22
ENDBRANCH  17  20
ENDBRANCH   1  14
TORSDOF 6
ENDMDL
MODEL 3
REMARK VINA RESULT:      -6.1      2.701      6.837
REMARK  Name = 
REMARK  8 active torsions:
REMARK  status: ('A' for Active; 'I' for Inactive)
REMARK    1  A    between atoms: C_1  and  O_2
REMARK    2  A    between atoms: O_2  and  C_3
REMARK    3  A    between atoms: C_6  and  O_7
REMARK    4  A    between atoms: O_7  and  C_8
REMARK    5  A    between atoms: C_9  and  S_10
REMARK    6  A    between atoms: S_10  and  N_13
REMARK    7  A    between atoms: N_16  and  C_17
REMARK    8  A    between atoms: C_17  and  C_19
REMARK                            x       y       z     vdW  Elec       q    Type
REMARK                         _______ _______ _______ _____ _____    ______ ____
ROOT
ATOM      1  S   UNL     1       8.874  -2.673  24.349  0.00  0.00    +0.000 S 
ATOM      2  O   UNL     1      10.046  -3.489  24.203  0.00  0.00    +0.000 OA
ATOM      3  O   UNL     1       8.985  -1.433  25.049  0.00  0.00    +0.000 OA
ENDROOT
BRANCH   1   8
ATOM      4  C   UNL     1       6.015  -3.979  26.875  0.00  0.00    +0.000 C 
ATOM      5  C   UNL     1       5.624  -5.187  26.296  0.00  0.00    +0.000 C 
ATOM      6  C   UNL     1       6.219  -5.654  25.142  0.00  0.00    +0.000 C 
ATOM      7  C   UNL     1       7.235  -4.924  24.522  0.00  0.00    +0.000 C 
ATOM      8  C   UNL     1       7.617  -3.722  25.104  0.00  0.00    +0.000 C 
ATOM      9  C   UNL     1       7.026  -3.249  26.260  0.00  0.00    +0.000 C 
BRANCH   4  11
ATOM     10  C   UNL     1       3.958  -3.558  27.983  0.00  0.00    +0.000 C 
ATOM     11  O   UNL     1       5.366  -3.610  28.008  0.00  0.00    +0.000 OA
ENDBRANCH   4  11
BRANCH   7  12
ATOM     12  O   UNL     1       7.901  -5.310  23.405  0.00  0.00    +0.000 OA
ATOM     13  C   UNL     1       7.160  -5.798  22.307  0.00  0.00    +0.000 C 
ENDBRANCH   7  12
ENDBRANCH   1   8
BRANCH   1  14
ATOM     14  N   UNL     1       8.368  -2.337  22.796  0.00  0.00    +0.000 NA
ATOM     15  C   UNL     1       9.283  -1.685  21.884  0.00  0.00    +0.000 C 
ATOM     16  C   UNL     1       8.759  -0.315  21.474  0.00  0.00    +0.000 C 
ATOM     17  N   UNL     1       7.476  -0.469  20.803  0.00  0.00    +0.000 NA
ATOM     18  C   UNL     1       6.633  -1.552  21.274  0.00  0.00    +0.000 C 
ATOM     19  C   UNL     1       6.994  -1.898  22.715  0.00  0.00    +0.000 C 
BRANCH  17  20
ATOM     20  C   UNL     1       7.231   0.291  19.709  0.00  0.00    +0.000 C 
ATOM     21  O   UNL     1       7.765   0.081  18.643  0.00  0.00    +0.000 OA
BRANCH  20  22
ATOM     22  C   UNL     1       6.242   1.434  19.931  0.00  0.00    +0.000 C 
ATOM     23 CL   UNL     1       4.796   1.184  18.933  0.00  0.00    +0.000 Cl
ENDBRANCH  20  22
ENDBRANCH  17  20
ENDBRANCH   1  14
TORSDOF 6
ENDMDL
MODEL 4
REMARK VINA RESULT:      -6.1      3.011      7.130
REMARK  Name = 
REMARK  8 active torsions:
REMARK  status: ('A' for Active; 'I' for Inactive)
REMARK    1  A    between atoms: C_1  and  O_2
REMARK    2  A    between atoms: O_2  and  C_3
REMARK    3  A    between atoms: C_6  and  O_7
REMARK    4  A    between atoms: O_7  and  C_8
REMARK    5  A    between atoms: C_9  and  S_10
REMARK    6  A    between atoms: S_10  and  N_13
REMARK    7  A    between atoms: N_16  and  C_17
REMARK    8  A    between atoms: C_17  and  C_19
REMARK                            x       y       z     vdW  Elec       q    Type
REMARK                         _______ _______ _______ _____ _____    ______ ____
ROOT
ATOM      1  S   UNL     1       8.579  -4.275  25.247  0.00  0.00    +0.000 S 
ATOM      2  O   UNL     1       9.583  -5.036  24.559  0.00  0.00    +0.000 OA
ATOM      3  O   UNL     1       8.809  -3.907  26.607  0.00  0.00    +0.000 OA
ENDROOT
BRANCH   1   8
ATOM      4  C   UNL     1       5.265  -6.355  26.224  0.00  0.00    +0.000 C 
ATOM      5  C   UNL     1       4.653  -6.556  24.986  0.00  0.00    +0.000 C 
ATOM      6  C   UNL     1       5.225  -6.089  23.820  0.00  0.00    +0.000 C 
ATOM      7  C   UNL     1       6.440  -5.401  23.852  0.00  0.00    +0.000 C 
ATOM      8  C   UNL     1       7.042  -5.205  25.089  0.00  0.00    +0.000 C 
ATOM      9  C   UNL     1       6.475  -5.670  26.260  0.00  0.00    +0.000 C 
BRANCH   4  11
ATOM     10  C   UNL     1       5.273  -6.798  28.557  0.00  0.00    +0.000 C 
ATOM     11  O   UNL     1       4.619  -6.852  27.309  0.00  0.00    +0.000 OA
ENDBRANCH   4  11
BRANCH   7  12
ATOM     12  O   UNL     1       7.097  -4.930  22.763  0.00  0.00    +0.000 OA
ATOM     13  C   UNL     1       7.149  -5.730  21.602  0.00  0.00    +0.000 C 
ENDBRANCH   7  12
ENDBRANCH   1   8
BRANCH   1  14
ATOM     14  N   UNL     1       8.399  -2.872  24.363  0.00  0.00    +0.000 NA
ATOM     15  C   UNL     1       9.506  -2.399  23.560  0.00  0.00    +0.000 C 
ATOM     16  C   UNL     1      10.004  -1.050  24.060  0.00  0.00    +0.000 C 
ATOM     17  N   UNL     1       8.926  -0.074  23.974  0.00  0.00    +0.000 NA
ATOM     18  C   UNL     1       7.586  -0.579  24.201  0.00  0.00    +0.000 C 
ATOM     19  C   UNL     1       7.648  -1.846  25.050  0.00  0.00    +0.000 C 
BRANCH  17  20
ATOM     20  C   UNL     1       9.227   1.174  23.541  0.00  0.00    +0.000 C 
ATOM     21  O   UNL     1       9.004   2.160  24.208  0.00  0.00    +0.000 OA
BRANCH  20  22
ATOM     22  C   UNL     1       9.854   1.236  22.151  0.00  0.00    +0.000 C 
ATOM     23 CL   UNL     1       8.766   0.491  20.963  0.00  0.00    +0.000 Cl
ENDBRANCH  20  22
ENDBRANCH  17  20
ENDBRANCH   1  14
TORSDOF 6
ENDMDL
MODEL 5
REMARK VINA RESULT:      -6.0      1.842      2.160
REMARK  Name = 
REMARK  8 active torsions:
REMARK  status: ('A' for Active; 'I' for Inactive)
REMARK    1  A    between atoms: C_1  and  O_2
REMARK    2  A    between atoms: O_2  and  C_3
REMARK    3  A    between atoms: C_6  and  O_7
REMARK    4  A    between atoms: O_7  and  C_8
REMARK    5  A    between atoms: C_9  and  S_10
REMARK    6  A    between atoms: S_10  and  N_13
REMARK    7  A    between atoms: N_16  and  C_17
REMARK    8  A    between atoms: C_17  and  C_19
REMARK                            x       y       z     vdW  Elec       q    Type
REMARK                         _______ _______ _______ _____ _____    ______ ____
ROOT
ATOM      1  S   UNL     1       9.714  -1.321  23.187  0.00  0.00    +0.000 S 
ATOM      2  O   UNL     1      10.025  -0.579  24.376  0.00  0.00    +0.000 OA
ATOM      3  O   UNL     1      10.787  -1.800  22.376  0.00  0.00    +0.000 OA
ENDROOT
BRANCH   1   8
ATOM      4  C   UNL     1       7.644   0.174  20.065  0.00  0.00    +0.000 C 
ATOM      5  C   UNL     1       6.867   1.169  20.661  0.00  0.00    +0.000 C 
ATOM      6  C   UNL     1       6.955   1.433  22.012  0.00  0.00    +0.000 C 
ATOM      7  C   UNL     1       7.831   0.706  22.822  0.00  0.00    +0.000 C 
ATOM      8  C   UNL     1       8.599  -0.283  22.221  0.00  0.00    +0.000 C 
ATOM      9  C   UNL     1       8.516  -0.552  20.868  0.00  0.00    +0.000 C 
BRANCH   4  11
ATOM     10  C   UNL     1       6.171  -0.166  18.234  0.00  0.00    +0.000 C 
ATOM     11  O   UNL     1       7.481  -0.006  18.730  0.00  0.00    +0.000 OA
ENDBRANCH   4  11
BRANCH   7  12
ATOM     12  O   UNL     1       8.012   0.908  24.151  0.00  0.00    +0.000 OA
ATOM     13  C   UNL     1       6.883   1.152  24.961  0.00  0.00    +0.000 C 
ENDBRANCH   7  12
ENDBRANCH   1   8
BRANCH   1  14
ATOM     14  N   UNL     1       8.835  -2.642  23.701  0.00  0.00    +0.000 NA
ATOM     15  C   UNL     1       7.504  -2.438  24.231  0.00  0.00    +0.000 C 
ATOM     16  C   UNL     1       7.432  -2.852  25.695  0.00  0.00    +0.000 C 
ATOM     17  N   UNL     1       7.762  -4.265  25.815  0.00  0.00    +0.000 NA
ATOM     18  C   UNL     1       8.741  -4.776  24.876  0.00  0.00    +0.000 C 
ATOM     19  C   UNL     1       9.629  -3.637  24.384  0.00  0.00    +0.000 C 
BRANCH  17  20
ATOM     20  C   UNL     1       7.033  -5.021  26.672  0.00  0.00    +0.000 C 
ATOM     21  O   UNL     1       7.542  -5.651  27.572  0.00  0.00    +0.000 OA
BRANCH  20  22
ATOM     22  C   UNL     1       5.530  -5.024  26.403  0.00  0.00    +0.000 C 
ATOM     23 CL   UNL     1       5.145  -6.206  25.137  0.00  0.00    +0.000 Cl
ENDBRANCH  20  22
ENDBRANCH  17  20
ENDBRANCH   1  14
TORSDOF 6
ENDMDL
MODEL 6
REMARK VINA RESULT:      -6.0      2.902      6.975
REMARK  Name = 
REMARK  8 active torsions:
REMARK  status: ('A' for Active; 'I' for Inactive)
REMARK    1  A    between atoms: C_1  and  O_2
REMARK    2  A    between atoms: O_2  and  C_3
REMARK    3  A    between atoms: C_6  and  O_7
REMARK    4  A    between atoms: O_7  and  C_8
REMARK    5  A    between atoms: C_9  and  S_10
REMARK    6  A    between atoms: S_10  and  N_13
REMARK    7  A    between atoms: N_16  and  C_17
REMARK    8  A    between atoms: C_17  and  C_19
REMARK                            x       y       z     vdW  Elec       q    Type
REMARK                         _______ _______ _______ _____ _____    ______ ____
ROOT
ATOM      1  S   UNL     1       7.549  -4.831  23.389  0.00  0.00    +0.000 S 
ATOM      2  O   UNL     1       7.305  -5.429  22.107  0.00  0.00    +0.000 OA
ATOM      3  O   UNL     1       8.833  -5.001  23.991  0.00  0.00    +0.000 OA
ENDROOT
BRANCH   1   8
ATOM      4  C   UNL     1       4.357  -6.886  24.747  0.00  0.00    +0.000 C 
ATOM      5  C   UNL     1       4.276  -6.481  26.080  0.00  0.00    +0.000 C 
ATOM      6  C   UNL     1       5.165  -5.566  26.606  0.00  0.00    +0.000 C 
ATOM      7  C   UNL     1       6.173  -5.019  25.810  0.00  0.00    +0.000 C 
ATOM      8  C   UNL     1       6.247  -5.429  24.484  0.00  0.00    +0.000 C 
ATOM      9  C   UNL     1       5.360  -6.344  23.952  0.00  0.00    +0.000 C 
BRANCH   4  11
ATOM     10  C   UNL     1       2.311  -8.024  25.149  0.00  0.00    +0.000 C 
ATOM     11  O   UNL     1       3.435  -7.791  24.330  0.00  0.00    +0.000 OA
ENDBRANCH   4  11
BRANCH   7  12
ATOM     12  O   UNL     1       7.076  -4.094  26.222  0.00  0.00    +0.000 OA
ATOM     13  C   UNL     1       6.609  -2.832  26.647  0.00  0.00    +0.000 C 
ENDBRANCH   7  12
ENDBRANCH   1   8
BRANCH   1  14
ATOM     14  N   UNL     1       7.301  -3.196  23.175  0.00  0.00    +0.000 NA
ATOM     15  C   UNL     1       6.096  -2.749  22.510  0.00  0.00    +0.000 C 
ATOM     16  C   UNL     1       6.426  -2.037  21.205  0.00  0.00    +0.000 C 
ATOM     17  N   UNL     1       7.254  -0.872  21.486  0.00  0.00    +0.000 NA
ATOM     18  C   UNL     1       8.175  -0.995  22.598  0.00  0.00    +0.000 C 
ATOM     19  C   UNL     1       8.502  -2.465  22.840  0.00  0.00    +0.000 C 
BRANCH  17  20
ATOM     20  C   UNL     1       6.999   0.272  20.805  0.00  0.00    +0.000 C 
ATOM     21  O   UNL     1       6.601   1.275  21.353  0.00  0.00    +0.000 OA
BRANCH  20  22
ATOM     22  C   UNL     1       7.243   0.189  19.300  0.00  0.00    +0.000 C 
ATOM     23 CL   UNL     1       5.709   0.379  18.428  0.00  0.00    +0.000 Cl
ENDBRANCH  20  22
ENDBRANCH  17  20
ENDBRANCH   1  14
TORSDOF 6
ENDMDL
MODEL 7
REMARK VINA RESULT:      -5.9      2.763      6.684
REMARK  Name = 
REMARK  8 active torsions:
REMARK  status: ('A' for Active; 'I' for Inactive)
REMARK    1  A    between atoms: C_1  and  O_2
REMARK    2  A    between atoms: O_2  and  C_3
REMARK    3  A    between atoms: C_6  and  O_7
REMARK    4  A    between atoms: O_7  and  C_8
REMARK    5  A    between atoms: C_9  and  S_10
REMARK    6  A    between atoms: S_10  and  N_13
REMARK    7  A    between atoms: N_16  and  C_17
REMARK    8  A    between atoms: C_17  and  C_19
REMARK                            x       y       z     vdW  Elec       q    Type
REMARK                         _______ _______ _______ _____ _____    ______ ____
ROOT
ATOM      1  S   UNL     1       8.666  -4.396  25.445  0.00  0.00    +0.000 S 
ATOM      2  O   UNL     1       9.502  -5.267  24.668  0.00  0.00    +0.000 OA
ATOM      3  O   UNL     1       8.905  -4.288  26.849  0.00  0.00    +0.000 OA
ENDROOT
BRANCH   1   8
ATOM      4  C   UNL     1       4.750  -5.175  26.007  0.00  0.00    +0.000 C 
ATOM      5  C   UNL     1       4.330  -5.567  24.735  0.00  0.00    +0.000 C 
ATOM      6  C   UNL     1       5.213  -5.626  23.677  0.00  0.00    +0.000 C 
ATOM      7  C   UNL     1       6.558  -5.295  23.854  0.00  0.00    +0.000 C 
ATOM      8  C   UNL     1       6.967  -4.904  25.124  0.00  0.00    +0.000 C 
ATOM      9  C   UNL     1       6.089  -4.843  26.188  0.00  0.00    +0.000 C 
BRANCH   4  11
ATOM     10  C   UNL     1       2.622  -5.893  26.780  0.00  0.00    +0.000 C 
ATOM     11  O   UNL     1       3.803  -5.149  26.979  0.00  0.00    +0.000 OA
ENDBRANCH   4  11
BRANCH   7  12
ATOM     12  O   UNL     1       7.507  -5.349  22.887  0.00  0.00    +0.000 OA
ATOM     13  C   UNL     1       7.133  -5.757  21.590  0.00  0.00    +0.000 C 
ENDBRANCH   7  12
ENDBRANCH   1   8
BRANCH   1  14
ATOM     14  N   UNL     1       8.861  -2.879  24.778  0.00  0.00    +0.000 NA
ATOM     15  C   UNL     1       7.687  -2.114  24.416  0.00  0.00    +0.000 C 
ATOM     16  C   UNL     1       7.640  -1.870  22.913  0.00  0.00    +0.000 C 
ATOM     17  N   UNL     1       8.819  -1.119  22.507  0.00  0.00    +0.000 NA
ATOM     18  C   UNL     1      10.037  -1.391  23.246  0.00  0.00    +0.000 C 
ATOM     19  C   UNL     1       9.970  -2.788  23.856  0.00  0.00    +0.000 C 
BRANCH  17  20
ATOM     20  C   UNL     1       8.664  -0.128  21.596  0.00  0.00    +0.000 C 
ATOM     21  O   UNL     1       9.507   0.722  21.416  0.00  0.00    +0.000 OA
BRANCH  20  22
ATOM     22  C   UNL     1       7.344  -0.164  20.830  0.00  0.00    +0.000 C 
ATOM     23 CL   UNL     1       7.644   0.078  19.097  0.00  0.00    +0.000 Cl
ENDBRANCH  20  22
ENDBRANCH  17  20
ENDBRANCH   1  14
TORSDOF 6
ENDMDL
MODEL 8
REMARK VINA RESULT:      -5.9      3.438      6.118
REMARK  Name = 
REMARK  8 active torsions:
REMARK  status: ('A' for Active; 'I' for Inactive)
REMARK    1  A    between atoms: C_1  and  O_2
REMARK    2  A    between atoms: O_2  and  C_3
REMARK    3  A    between atoms: C_6  and  O_7
REMARK    4  A    between atoms: O_7  and  C_8
REMARK    5  A    between atoms: C_9  and  S_10
REMARK    6  A    between atoms: S_10  and  N_13
REMARK    7  A    between atoms: N_16  and  C_17
REMARK    8  A    between atoms: C_17  and  C_19
REMARK                            x       y       z     vdW  Elec       q    Type
REMARK                         _______ _______ _______ _____ _____    ______ ____
ROOT
ATOM      1  S   UNL     1       9.845  -2.004  23.202  0.00  0.00    +0.000 S 
ATOM      2  O   UNL     1      10.807  -1.747  22.168  0.00  0.00    +0.000 OA
ATOM      3  O   UNL     1      10.059  -3.112  24.077  0.00  0.00    +0.000 OA
ENDROOT
BRANCH   1   8
ATOM      4  C   UNL     1       6.742  -1.221  20.749  0.00  0.00    +0.000 C 
ATOM      5  C   UNL     1       5.873  -2.282  21.007  0.00  0.00    +0.000 C 
ATOM      6  C   UNL     1       6.183  -3.252  21.937  0.00  0.00    +0.000 C 
ATOM      7  C   UNL     1       7.383  -3.195  22.649  0.00  0.00    +0.000 C 
ATOM      8  C   UNL     1       8.244  -2.136  22.385  0.00  0.00    +0.000 C 
ATOM      9  C   UNL     1       7.939  -1.161  21.455  0.00  0.00    +0.000 C 
BRANCH   4  11
ATOM     10  C   UNL     1       7.327   0.277  19.001  0.00  0.00    +0.000 C 
ATOM     11  O   UNL     1       6.343  -0.321  19.815  0.00  0.00    +0.000 OA
ENDBRANCH   4  11
BRANCH   7  12
ATOM     12  O   UNL     1       7.767  -4.081  23.602  0.00  0.00    +0.000 OA
ATOM     13  C   UNL     1       7.528  -5.455  23.387  0.00  0.00    +0.000 C 
ENDBRANCH   7  12
ENDBRANCH   1   8
BRANCH   1  14
ATOM     14  N   UNL     1       9.811  -0.620  24.133  0.00  0.00    +0.000 NA
ATOM     15  C   UNL     1       8.648  -0.353  24.953  0.00  0.00    +0.000 C 
ATOM     16  C   UNL     1       7.944   0.919  24.500  0.00  0.00    +0.000 C 
ATOM     17  N   UNL     1       8.857   2.046  24.619  0.00  0.00    +0.000 NA
ATOM     18  C   UNL     1      10.258   1.764  24.373  0.00  0.00    +0.000 C 
ATOM     19  C   UNL     1      10.389   0.532  23.481  0.00  0.00    +0.000 C 
BRANCH  17  20
ATOM     20  C   UNL     1       8.369   3.218  25.094  0.00  0.00    +0.000 C 
ATOM     21  O   UNL     1       7.752   3.286  26.134  0.00  0.00    +0.000 OA
BRANCH  20  22
ATOM     22  C   UNL     1       8.648   4.432  24.212  0.00  0.00    +0.000 C 
ATOM     23 CL   UNL     1       7.707   4.320  22.713  0.00  0.00    +0.000 Cl
ENDBRANCH  20  22
ENDBRANCH  17  20
ENDBRANCH   1  14
TORSDOF 6
ENDMDL
MODEL 9
REMARK VINA RESULT:      -5.9      3.040      7.079
REMARK  Name = 
REMARK  8 active torsions:
REMARK  status: ('A' for Active; 'I' for Inactive)
REMARK    1  A    between atoms: C_1  and  O_2
REMARK    2  A    between atoms: O_2  and  C_3
REMARK    3  A    between atoms: C_6  and  O_7
REMARK    4  A    between atoms: O_7  and  C_8
REMARK    5  A    between atoms: C_9  and  S_10
REMARK    6  A    between atoms: S_10  and  N_13
REMARK    7  A    between atoms: N_16  and  C_17
REMARK    8  A    between atoms: C_17  and  C_19
REMARK                            x       y       z     vdW  Elec       q    Type
REMARK                         _______ _______ _______ _____ _____    ______ ____
ROOT
ATOM      1  S   UNL     1       7.509  -4.072  24.661  0.00  0.00    +0.000 S 
ATOM      2  O   UNL     1       8.543  -4.870  24.065  0.00  0.00    +0.000 OA
ATOM      3  O   UNL     1       7.771  -3.430  25.909  0.00  0.00    +0.000 OA
ENDROOT
BRANCH   1   8
ATOM      4  C   UNL     1       4.038  -5.905  23.735  0.00  0.00    +0.000 C 
ATOM      5  C   UNL     1       3.854  -6.773  24.812  0.00  0.00    +0.000 C 
ATOM      6  C   UNL     1       4.755  -6.821  25.856  0.00  0.00    +0.000 C 
ATOM      7  C   UNL     1       5.881  -5.995  25.860  0.00  0.00    +0.000 C 
ATOM      8  C   UNL     1       6.057  -5.134  24.783  0.00  0.00    +0.000 C 
ATOM      9  C   UNL     1       5.159  -5.081  23.735  0.00  0.00    +0.000 C 
BRANCH   4  11
ATOM     10  C   UNL     1       1.770  -5.596  23.102  0.00  0.00    +0.000 C 
ATOM     11  O   UNL     1       3.095  -5.937  22.760  0.00  0.00    +0.000 OA
ENDBRANCH   4  11
BRANCH   7  12
ATOM     12  O   UNL     1       6.807  -5.946  26.849  0.00  0.00    +0.000 OA
ATOM     13  C   UNL     1       6.368  -5.838  28.186  0.00  0.00    +0.000 C 
ENDBRANCH   7  12
ENDBRANCH   1   8
BRANCH   1  14
ATOM     14  N   UNL     1       7.159  -2.886  23.541  0.00  0.00    +0.000 NA
ATOM     15  C   UNL     1       7.761  -2.959  22.227  0.00  0.00    +0.000 C 
ATOM     16  C   UNL     1       8.681  -1.770  21.983  0.00  0.00    +0.000 C 
ATOM     17  N   UNL     1       7.910  -0.538  22.066  0.00  0.00    +0.000 NA
ATOM     18  C   UNL     1       6.811  -0.532  23.012  0.00  0.00    +0.000 C 
ATOM     19  C   UNL     1       7.069  -1.561  24.109  0.00  0.00    +0.000 C 
BRANCH  17  20
ATOM     20  C   UNL     1       8.166   0.439  21.162  0.00  0.00    +0.000 C 
ATOM     21  O   UNL     1       8.140   0.238  19.968  0.00  0.00    +0.000 OA
BRANCH  20  22
ATOM     22  C   UNL     1       8.502   1.800  21.768  0.00  0.00    +0.000 C 
ATOM     23 CL   UNL     1      10.247   1.914  22.069  0.00  0.00    +0.000 Cl
ENDBRANCH  20  22
ENDBRANCH  17  20
ENDBRANCH   1  14
TORSDOF 6
ENDMDL
