MODEL 1
REMARK VINA RESULT:      -6.4      0.000      0.000
REMARK  Name = 
REMARK  8 active torsions:
REMARK  status: ('A' for Active; 'I' for Inactive)
REMARK    1  A    between atoms: C_1  and  O_2
REMARK    2  A    between atoms: O_2  and  C_3
REMARK    3  A    between atoms: C_6  and  S_7
REMARK    4  A    between atoms: S_7  and  N_10
REMARK    5  A    between atoms: N_13  and  C_14
REMARK    6  A    between atoms: C_14  and  C_16
REMARK    7  A    between atoms: C_21  and  O_22
REMARK    8  A    between atoms: O_22  and  C_23
REMARK                            x       y       z     vdW  Elec       q    Type
REMARK                         _______ _______ _______ _____ _____    ______ ____
ROOT
ATOM      1  S   UNL     1       8.898  -3.524  25.067  0.00  0.00    +0.000 S 
ATOM      2  O   UNL     1       9.848  -4.422  24.489  0.00  0.00    +0.000 OA
ATOM      3  O   UNL     1       8.794  -3.417  26.491  0.00  0.00    +0.000 OA
ENDROOT
BRANCH   1   7
ATOM      4  C   UNL     1       4.751  -4.397  23.363  0.00  0.00    +0.000 C 
ATOM      5  C   UNL     1       4.927  -4.189  24.731  0.00  0.00    +0.000 C 
ATOM      6  C   UNL     1       6.182  -3.959  25.261  0.00  0.00    +0.000 C 
ATOM      7  C   UNL     1       7.273  -3.918  24.413  0.00  0.00    +0.000 C 
ATOM      8  C   UNL     1       7.134  -4.172  23.065  0.00  0.00    +0.000 C 
ATOM      9  C   UNL     1       5.881  -4.438  22.524  0.00  0.00    +0.000 C 
BRANCH   4  11
ATOM     10  C   UNL     1       2.918  -5.901  23.157  0.00  0.00    +0.000 C 
ATOM     11  O   UNL     1       3.474  -4.613  22.929  0.00  0.00    +0.000 OA
ENDBRANCH   4  11
BRANCH   9  12
ATOM     12  O   UNL     1       5.799  -4.712  21.180  0.00  0.00    +0.000 OA
ATOM     13  C   UNL     1       6.208  -6.026  20.824  0.00  0.00    +0.000 C 
ENDBRANCH   9  12
ENDBRANCH   1   7
BRANCH   1  14
ATOM     14  N   UNL     1       9.282  -2.003  24.510  0.00  0.00    +0.000 NA
ATOM     15  C   UNL     1      10.109  -1.885  23.335  0.00  0.00    +0.000 C 
ATOM     16  C   UNL     1       9.270  -1.675  22.070  0.00  0.00    +0.000 C 
ATOM     17  N   UNL     1       8.361  -0.560  22.267  0.00  0.00    +0.000 NA
ATOM     18  C   UNL     1       7.474  -0.753  23.394  0.00  0.00    +0.000 C 
ATOM     19  C   UNL     1       8.312  -0.952  24.668  0.00  0.00    +0.000 C 
BRANCH  17  20
ATOM     20  C   UNL     1       8.506   0.548  21.512  0.00  0.00    +0.000 C 
ATOM     21  O   UNL     1       9.496   1.251  21.569  0.00  0.00    +0.000 OA
BRANCH  20  22
ATOM     22  C   UNL     1       7.379   0.898  20.547  0.00  0.00    +0.000 C 
ATOM     23 CL   UNL     1       7.620   0.101  18.969  0.00  0.00    +0.000 Cl
ENDBRANCH  20  22
ENDBRANCH  17  20
ENDBRANCH   1  14
TORSDOF 6
ENDMDL
MODEL 2
REMARK VINA RESULT:      -6.4      2.409      3.674
REMARK  Name = 
REMARK  8 active torsions:
REMARK  status: ('A' for Active; 'I' for Inactive)
REMARK    1  A    between atoms: C_1  and  O_2
REMARK    2  A    between atoms: O_2  and  C_3
REMARK    3  A    between atoms: C_6  and  S_7
REMARK    4  A    between atoms: S_7  and  N_10
REMARK    5  A    between atoms: N_13  and  C_14
REMARK    6  A    between atoms: C_14  and  C_16
REMARK    7  A    between atoms: C_21  and  O_22
REMARK    8  A    between atoms: O_22  and  C_23
REMARK                            x       y       z     vdW  Elec       q    Type
REMARK                         _______ _______ _______ _____ _____    ______ ____
ROOT
ATOM      1  S   UNL     1       9.622   0.577  24.036  0.00  0.00    +0.000 S 
ATOM      2  O   UNL     1      11.019   0.354  24.248  0.00  0.00    +0.000 OA
ATOM      3  O   UNL     1       8.957   1.636  24.734  0.00  0.00    +0.000 OA
ENDROOT
BRANCH   1   7
ATOM      4  C   UNL     1       7.378  -3.337  24.749  0.00  0.00    +0.000 C 
ATOM      5  C   UNL     1       6.724  -2.110  24.872  0.00  0.00    +0.000 C 
ATOM      6  C   UNL     1       7.403  -0.920  24.693  0.00  0.00    +0.000 C 
ATOM      7  C   UNL     1       8.746  -0.954  24.369  0.00  0.00    +0.000 C 
ATOM      8  C   UNL     1       9.428  -2.149  24.294  0.00  0.00    +0.000 C 
ATOM      9  C   UNL     1       8.764  -3.353  24.504  0.00  0.00    +0.000 C 
BRANCH   4  11
ATOM     10  C   UNL     1       6.112  -5.104  23.781  0.00  0.00    +0.000 C 
ATOM     11  O   UNL     1       6.626  -4.461  24.940  0.00  0.00    +0.000 OA
ENDBRANCH   4  11
BRANCH   9  12
ATOM     12  O   UNL     1       9.495  -4.516  24.446  0.00  0.00    +0.000 OA
ATOM     13  C   UNL     1       9.889  -5.025  25.712  0.00  0.00    +0.000 C 
ENDBRANCH   9  12
ENDBRANCH   1   7
BRANCH   1  14
ATOM     14  N   UNL     1       9.433   0.894  22.413  0.00  0.00    +0.000 NA
ATOM     15  C   UNL     1       9.632  -0.180  21.471  0.00  0.00    +0.000 C 
ATOM     16  C   UNL     1       8.305  -0.831  21.066  0.00  0.00    +0.000 C 
ATOM     17  N   UNL     1       7.378   0.190  20.612  0.00  0.00    +0.000 NA
ATOM     18  C   UNL     1       7.121   1.199  21.615  0.00  0.00    +0.000 C 
ATOM     19  C   UNL     1       8.448   1.864  22.016  0.00  0.00    +0.000 C 
BRANCH  17  20
ATOM     20  C   UNL     1       6.971   0.183  19.326  0.00  0.00    +0.000 C 
ATOM     21  O   UNL     1       7.747   0.263  18.395  0.00  0.00    +0.000 OA
BRANCH  20  22
ATOM     22  C   UNL     1       5.475   0.049  19.060  0.00  0.00    +0.000 C 
ATOM     23 CL   UNL     1       4.679   1.646  19.089  0.00  0.00    +0.000 Cl
ENDBRANCH  20  22
ENDBRANCH  17  20
ENDBRANCH   1  14
TORSDOF 6
ENDMDL
MODEL 3
REMARK VINA RESULT:      -6.4      2.544      2.983
REMARK  Name = 
REMARK  8 active torsions:
REMARK  status: ('A' for Active; 'I' for Inactive)
REMARK    1  A    between atoms: C_1  and  O_2
REMARK    2  A    between atoms: O_2  and  C_3
REMARK    3  A    between atoms: C_6  and  S_7
REMARK    4  A    between atoms: S_7  and  N_10
REMARK    5  A    between atoms: N_13  and  C_14
REMARK    6  A    between atoms: C_14  and  C_16
REMARK    7  A    between atoms: C_21  and  O_22
REMARK    8  A    between atoms: O_22  and  C_23
REMARK                            x       y       z     vdW  Elec       q    Type
REMARK                         _______ _______ _______ _____ _____    ______ ____
ROOT
ATOM      1  S   UNL     1       9.536  -0.859  24.476  0.00  0.00    +0.000 S 
ATOM      2  O   UNL     1      10.650  -1.133  23.622  0.00  0.00    +0.000 OA
ATOM      3  O   UNL     1       9.717  -0.053  25.646  0.00  0.00    +0.000 OA
ENDROOT
BRANCH   1   7
ATOM      4  C   UNL     1       7.571  -4.803  25.678  0.00  0.00    +0.000 C 
ATOM      5  C   UNL     1       7.567  -3.713  26.549  0.00  0.00    +0.000 C 
ATOM      6  C   UNL     1       8.189  -2.527  26.209  0.00  0.00    +0.000 C 
ATOM      7  C   UNL     1       8.807  -2.421  24.978  0.00  0.00    +0.000 C 
ATOM      8  C   UNL     1       8.872  -3.499  24.121  0.00  0.00    +0.000 C 
ATOM      9  C   UNL     1       8.279  -4.709  24.465  0.00  0.00    +0.000 C 
BRANCH   4  11
ATOM     10  C   UNL     1       5.557  -5.808  26.452  0.00  0.00    +0.000 C 
ATOM     11  O   UNL     1       6.928  -5.933  26.098  0.00  0.00    +0.000 OA
ENDBRANCH   4  11
BRANCH   9  12
ATOM     12  O   UNL     1       8.396  -5.761  23.589  0.00  0.00    +0.000 OA
ATOM     13  C   UNL     1       7.440  -5.758  22.537  0.00  0.00    +0.000 C 
ENDBRANCH   9  12
ENDBRANCH   1   7
BRANCH   1  14
ATOM     14  N   UNL     1       8.400  -0.079  23.541  0.00  0.00    +0.000 NA
ATOM     15  C   UNL     1       8.817   1.048  22.745  0.00  0.00    +0.000 C 
ATOM     16  C   UNL     1       9.112   0.643  21.297  0.00  0.00    +0.000 C 
ATOM     17  N   UNL     1       7.977  -0.080  20.751  0.00  0.00    +0.000 NA
ATOM     18  C   UNL     1       7.646  -1.263  21.514  0.00  0.00    +0.000 C 
ATOM     19  C   UNL     1       7.337  -0.859  22.965  0.00  0.00    +0.000 C 
BRANCH  17  20
ATOM     20  C   UNL     1       7.288   0.458  19.724  0.00  0.00    +0.000 C 
ATOM     21  O   UNL     1       7.575   0.243  18.563  0.00  0.00    +0.000 OA
BRANCH  20  22
ATOM     22  C   UNL     1       6.100   1.351  20.061  0.00  0.00    +0.000 C 
ATOM     23 CL   UNL     1       4.889   1.322  18.750  0.00  0.00    +0.000 Cl
ENDBRANCH  20  22
ENDBRANCH  17  20
ENDBRANCH   1  14
TORSDOF 6
ENDMDL
MODEL 4
REMARK VINA RESULT:      -6.4      1.723      2.107
REMARK  Name = 
REMARK  8 active torsions:
REMARK  status: ('A' for Active; 'I' for Inactive)
REMARK    1  A    between atoms: C_1  and  O_2
REMARK    2  A    between atoms: O_2  and  C_3
REMARK    3  A    between atoms: C_6  and  S_7
REMARK    4  A    between atoms: S_7  and  N_10
REMARK    5  A    between atoms: N_13  and  C_14
REMARK    6  A    between atoms: C_14  and  C_16
REMARK    7  A    between atoms: C_21  and  O_22
REMARK    8  A    between atoms: O_22  and  C_23
REMARK                            x       y       z     vdW  Elec       q    Type
REMARK                         _______ _______ _______ _____ _____    ______ ____
ROOT
ATOM      1  S   UNL     1       8.653  -3.757  25.134  0.00  0.00    +0.000 S 
ATOM      2  O   UNL     1       9.801  -4.378  24.549  0.00  0.00    +0.000 OA
ATOM      3  O   UNL     1       8.658  -3.421  26.526  0.00  0.00    +0.000 OA
ENDROOT
BRANCH   1   7
ATOM      4  C   UNL     1       4.933  -6.277  24.314  0.00  0.00    +0.000 C 
ATOM      5  C   UNL     1       5.472  -6.205  25.598  0.00  0.00    +0.000 C 
ATOM      6  C   UNL     1       6.618  -5.473  25.849  0.00  0.00    +0.000 C 
ATOM      7  C   UNL     1       7.222  -4.792  24.811  0.00  0.00    +0.000 C 
ATOM      8  C   UNL     1       6.741  -4.890  23.522  0.00  0.00    +0.000 C 
ATOM      9  C   UNL     1       5.607  -5.649  23.250  0.00  0.00    +0.000 C 
BRANCH   4  11
ATOM     10  C   UNL     1       3.108  -7.406  25.342  0.00  0.00    +0.000 C 
ATOM     11  O   UNL     1       3.797  -7.020  24.161  0.00  0.00    +0.000 OA
ENDBRANCH   4  11
BRANCH   9  12
ATOM     12  O   UNL     1       5.184  -5.737  21.945  0.00  0.00    +0.000 OA
ATOM     13  C   UNL     1       6.232  -5.727  20.987  0.00  0.00    +0.000 C 
ENDBRANCH   9  12
ENDBRANCH   1   7
BRANCH   1  14
ATOM     14  N   UNL     1       8.411  -2.332  24.309  0.00  0.00    +0.000 NA
ATOM     15  C   UNL     1       8.299  -1.108  25.062  0.00  0.00    +0.000 C 
ATOM     16  C   UNL     1       9.632  -0.355  25.120  0.00  0.00    +0.000 C 
ATOM     17  N   UNL     1      10.152  -0.177  23.776  0.00  0.00    +0.000 NA
ATOM     18  C   UNL     1      10.349  -1.431  23.081  0.00  0.00    +0.000 C 
ATOM     19  C   UNL     1       9.010  -2.184  23.009  0.00  0.00    +0.000 C 
BRANCH  17  20
ATOM     20  C   UNL     1      10.269   1.070  23.275  0.00  0.00    +0.000 C 
ATOM     21  O   UNL     1      10.798   1.973  23.892  0.00  0.00    +0.000 OA
BRANCH  20  22
ATOM     22  C   UNL     1       9.723   1.323  21.875  0.00  0.00    +0.000 C 
ATOM     23 CL   UNL     1       7.951   1.113  21.834  0.00  0.00    +0.000 Cl
ENDBRANCH  20  22
ENDBRANCH  17  20
ENDBRANCH   1  14
TORSDOF 6
ENDMDL
MODEL 5
REMARK VINA RESULT:      -6.3      1.989      2.902
REMARK  Name = 
REMARK  8 active torsions:
REMARK  status: ('A' for Active; 'I' for Inactive)
REMARK    1  A    between atoms: C_1  and  O_2
REMARK    2  A    between atoms: O_2  and  C_3
REMARK    3  A    between atoms: C_6  and  S_7
REMARK    4  A    between atoms: S_7  and  N_10
REMARK    5  A    between atoms: N_13  and  C_14
REMARK    6  A    between atoms: C_14  and  C_16
REMARK    7  A    between atoms: C_21  and  O_22
REMARK    8  A    between atoms: O_22  and  C_23
REMARK                            x       y       z     vdW  Elec       q    Type
REMARK                         _______ _______ _______ _____ _____    ______ ____
ROOT
ATOM      1  S   UNL     1       8.179  -3.590  24.804  0.00  0.00    +0.000 S 
ATOM      2  O   UNL     1       9.374  -4.253  24.380  0.00  0.00    +0.000 OA
ATOM      3  O   UNL     1       8.157  -2.894  26.056  0.00  0.00    +0.000 OA
ENDROOT
BRANCH   1   7
ATOM      4  C   UNL     1       4.856  -6.724  24.787  0.00  0.00    +0.000 C 
ATOM      5  C   UNL     1       5.164  -6.009  23.629  0.00  0.00    +0.000 C 
ATOM      6  C   UNL     1       6.143  -5.035  23.633  0.00  0.00    +0.000 C 
ATOM      7  C   UNL     1       6.837  -4.783  24.801  0.00  0.00    +0.000 C 
ATOM      8  C   UNL     1       6.516  -5.437  25.972  0.00  0.00    +0.000 C 
ATOM      9  C   UNL     1       5.510  -6.397  25.989  0.00  0.00    +0.000 C 
BRANCH   4  11
ATOM     10  C   UNL     1       2.635  -7.266  24.125  0.00  0.00    +0.000 C 
ATOM     11  O   UNL     1       3.876  -7.671  24.687  0.00  0.00    +0.000 OA
ENDBRANCH   4  11
BRANCH   9  12
ATOM     12  O   UNL     1       5.210  -7.001  27.187  0.00  0.00    +0.000 OA
ATOM     13  C   UNL     1       4.259  -6.299  27.975  0.00  0.00    +0.000 C 
ENDBRANCH   9  12
ENDBRANCH   1   7
BRANCH   1  14
ATOM     14  N   UNL     1       7.820  -2.463  23.634  0.00  0.00    +0.000 NA
ATOM     15  C   UNL     1       7.422  -1.140  24.047  0.00  0.00    +0.000 C 
ATOM     16  C   UNL     1       8.601  -0.161  24.029  0.00  0.00    +0.000 C 
ATOM     17  N   UNL     1       9.251  -0.205  22.731  0.00  0.00    +0.000 NA
ATOM     18  C   UNL     1       9.730  -1.526  22.388  0.00  0.00    +0.000 C 
ATOM     19  C   UNL     1       8.547  -2.509  22.393  0.00  0.00    +0.000 C 
BRANCH  17  20
ATOM     20  C   UNL     1       9.231   0.894  21.949  0.00  0.00    +0.000 C 
ATOM     21  O   UNL     1      10.173   1.656  21.870  0.00  0.00    +0.000 OA
BRANCH  20  22
ATOM     22  C   UNL     1       7.971   1.155  21.130  0.00  0.00    +0.000 C 
ATOM     23 CL   UNL     1       7.891   0.064  19.720  0.00  0.00    +0.000 Cl
ENDBRANCH  20  22
ENDBRANCH  17  20
ENDBRANCH   1  14
TORSDOF 6
ENDMDL
MODEL 6
REMARK VINA RESULT:      -6.2      3.549      6.867
REMARK  Name = 
REMARK  8 active torsions:
REMARK  status: ('A' for Active; 'I' for Inactive)
REMARK    1  A    between atoms: C_1  and  O_2
REMARK    2  A    between atoms: O_2  and  C_3
REMARK    3  A    between atoms: C_6  and  S_7
REMARK    4  A    between atoms: S_7  and  N_10
REMARK    5  A    between atoms: N_13  and  C_14
REMARK    6  A    between atoms: C_14  and  C_16
REMARK    7  A    between atoms: C_21  and  O_22
REMARK    8  A    between atoms: O_22  and  C_23
REMARK                            x       y       z     vdW  Elec       q    Type
REMARK                         _______ _______ _______ _____ _____    ______ ____
ROOT
ATOM      1  S   UNL     1       7.570  -4.331  23.482  0.00  0.00    +0.000 S 
ATOM      2  O   UNL     1       8.623  -5.282  23.666  0.00  0.00    +0.000 OA
ATOM      3  O   UNL     1       6.518  -4.606  22.549  0.00  0.00    +0.000 OA
ENDROOT
BRANCH   1   7
ATOM      4  C   UNL     1       9.471  -0.358  22.272  0.00  0.00    +0.000 C 
ATOM      5  C   UNL     1      10.131  -1.225  23.143  0.00  0.00    +0.000 C 
ATOM      6  C   UNL     1       9.549  -2.414  23.542  0.00  0.00    +0.000 C 
ATOM      7  C   UNL     1       8.301  -2.749  23.053  0.00  0.00    +0.000 C 
ATOM      8  C   UNL     1       7.604  -1.886  22.235  0.00  0.00    +0.000 C 
ATOM      9  C   UNL     1       8.165  -0.672  21.851  0.00  0.00    +0.000 C 
BRANCH   4  11
ATOM     10  C   UNL     1      10.054   1.877  22.844  0.00  0.00    +0.000 C 
ATOM     11  O   UNL     1      10.125   0.791  21.930  0.00  0.00    +0.000 OA
ENDBRANCH   4  11
BRANCH   9  12
ATOM     12  O   UNL     1       7.418   0.165  21.057  0.00  0.00    +0.000 OA
ATOM     13  C   UNL     1       7.667   0.029  19.665  0.00  0.00    +0.000 C 
ENDBRANCH   9  12
ENDBRANCH   1   7
BRANCH   1  14
ATOM     14  N   UNL     1       6.841  -4.136  24.966  0.00  0.00    +0.000 NA
ATOM     15  C   UNL     1       5.560  -4.756  25.193  0.00  0.00    +0.000 C 
ATOM     16  C   UNL     1       5.701  -6.101  25.913  0.00  0.00    +0.000 C 
ATOM     17  N   UNL     1       6.497  -5.931  27.115  0.00  0.00    +0.000 NA
ATOM     18  C   UNL     1       7.816  -5.401  26.843  0.00  0.00    +0.000 C 
ATOM     19  C   UNL     1       7.678  -4.045  26.132  0.00  0.00    +0.000 C 
BRANCH  17  20
ATOM     20  C   UNL     1       5.925  -6.140  28.319  0.00  0.00    +0.000 C 
ATOM     21  O   UNL     1       5.920  -7.228  28.859  0.00  0.00    +0.000 OA
BRANCH  20  22
ATOM     22  C   UNL     1       5.282  -4.943  29.012  0.00  0.00    +0.000 C 
ATOM     23 CL   UNL     1       3.509  -4.969  28.814  0.00  0.00    +0.000 Cl
ENDBRANCH  20  22
ENDBRANCH  17  20
ENDBRANCH   1  14
TORSDOF 6
ENDMDL
MODEL 7
REMARK VINA RESULT:      -6.2      3.507      6.284
REMARK  Name = 
REMARK  8 active torsions:
REMARK  status: ('A' for Active; 'I' for Inactive)
REMARK    1  A    between atoms: C_1  and  O_2
REMARK    2  A    between atoms: O_2  and  C_3
REMARK    3  A    between atoms: C_6  and  S_7
REMARK    4  A    between atoms: S_7  and  N_10
REMARK    5  A    between atoms: N_13  and  C_14
REMARK    6  A    between atoms: C_14  and  C_16
REMARK    7  A    between atoms: C_21  and  O_22
REMARK    8  A    between atoms: O_22  and  C_23
REMARK                            x       y       z     vdW  Elec       q    Type
REMARK                         _______ _______ _______ _____ _____    ______ ____
ROOT
ATOM      1  S   UNL     1       9.010  -2.221  24.248  0.00  0.00    +0.000 S 
ATOM      2  O   UNL     1       9.100  -1.370  25.395  0.00  0.00    +0.000 OA
ATOM      3  O   UNL     1      10.181  -2.891  23.766  0.00  0.00    +0.000 OA
ENDROOT
BRANCH   1   7
ATOM      4  C   UNL     1       7.126   0.233  20.888  0.00  0.00    +0.000 C 
ATOM      5  C   UNL     1       6.840  -1.126  21.021  0.00  0.00    +0.000 C 
ATOM      6  C   UNL     1       7.432  -1.884  22.013  0.00  0.00    +0.000 C 
ATOM      7  C   UNL     1       8.306  -1.276  22.894  0.00  0.00    +0.000 C 
ATOM      8  C   UNL     1       8.647   0.052  22.751  0.00  0.00    +0.000 C 
ATOM      9  C   UNL     1       8.083   0.819  21.737  0.00  0.00    +0.000 C 
BRANCH   4  11
ATOM     10  C   UNL     1       5.721   0.131  18.969  0.00  0.00    +0.000 C 
ATOM     11  O   UNL     1       6.491   0.903  19.881  0.00  0.00    +0.000 OA
ENDBRANCH   4  11
BRANCH   9  12
ATOM     12  O   UNL     1       8.477   2.131  21.621  0.00  0.00    +0.000 OA
ATOM     13  C   UNL     1       7.772   3.032  22.464  0.00  0.00    +0.000 C 
ENDBRANCH   9  12
ENDBRANCH   1   7
BRANCH   1  14
ATOM     14  N   UNL     1       7.909  -3.411  24.625  0.00  0.00    +0.000 NA
ATOM     15  C   UNL     1       8.398  -4.735  24.922  0.00  0.00    +0.000 C 
ATOM     16  C   UNL     1       8.527  -4.966  26.431  0.00  0.00    +0.000 C 
ATOM     17  N   UNL     1       7.272  -4.638  27.084  0.00  0.00    +0.000 NA
ATOM     18  C   UNL     1       6.859  -3.272  26.851  0.00  0.00    +0.000 C 
ATOM     19  C   UNL     1       6.716  -3.039  25.337  0.00  0.00    +0.000 C 
BRANCH  17  20
ATOM     20  C   UNL     1       6.576  -5.616  27.700  0.00  0.00    +0.000 C 
ATOM     21  O   UNL     1       7.037  -6.268  28.616  0.00  0.00    +0.000 OA
BRANCH  20  22
ATOM     22  C   UNL     1       5.153  -5.880  27.220  0.00  0.00    +0.000 C 
ATOM     23 CL   UNL     1       5.142  -6.377  25.506  0.00  0.00    +0.000 Cl
ENDBRANCH  20  22
ENDBRANCH  17  20
ENDBRANCH   1  14
TORSDOF 6
ENDMDL
MODEL 8
REMARK VINA RESULT:      -6.1      2.367      3.134
REMARK  Name = 
REMARK  8 active torsions:
REMARK  status: ('A' for Active; 'I' for Inactive)
REMARK    1  A    between atoms: C_1  and  O_2
REMARK    2  A    between atoms: O_2  and  C_3
REMARK    3  A    between atoms: C_6  and  S_7
REMARK    4  A    between atoms: S_7  and  N_10
REMARK    5  A    between atoms: N_13  and  C_14
REMARK    6  A    between atoms: C_14  and  C_16
REMARK    7  A    between atoms: C_21  and  O_22
REMARK    8  A    between atoms: O_22  and  C_23
REMARK                            x       y       z     vdW  Elec       q    Type
REMARK                         _______ _______ _______ _____ _____    ______ ____
ROOT
ATOM      1  S   UNL     1       8.530  -4.672  24.383  0.00  0.00    +0.000 S 
ATOM      2  O   UNL     1       8.159  -5.246  23.127  0.00  0.00    +0.000 OA
ATOM      3  O   UNL     1       9.846  -4.891  24.904  0.00  0.00    +0.000 OA
ENDROOT
BRANCH   1   7
ATOM      4  C   UNL     1       5.434  -5.892  27.511  0.00  0.00    +0.000 C 
ATOM      5  C   UNL     1       6.650  -5.328  27.898  0.00  0.00    +0.000 C 
ATOM      6  C   UNL     1       7.607  -4.987  26.961  0.00  0.00    +0.000 C 
ATOM      7  C   UNL     1       7.341  -5.196  25.621  0.00  0.00    +0.000 C 
ATOM      8  C   UNL     1       6.171  -5.801  25.216  0.00  0.00    +0.000 C 
ATOM      9  C   UNL     1       5.213  -6.178  26.151  0.00  0.00    +0.000 C 
BRANCH   4  11
ATOM     10  C   UNL     1       4.998  -6.047  29.845  0.00  0.00    +0.000 C 
ATOM     11  O   UNL     1       4.547  -6.192  28.506  0.00  0.00    +0.000 OA
ENDBRANCH   4  11
BRANCH   9  12
ATOM     12  O   UNL     1       4.075  -6.803  25.698  0.00  0.00    +0.000 OA
ATOM     13  C   UNL     1       3.991  -6.914  24.284  0.00  0.00    +0.000 C 
ENDBRANCH   9  12
ENDBRANCH   1   7
BRANCH   1  14
ATOM     14  N   UNL     1       8.359  -3.024  24.221  0.00  0.00    +0.000 NA
ATOM     15  C   UNL     1       9.545  -2.207  24.173  0.00  0.00    +0.000 C 
ATOM     16  C   UNL     1       9.951  -1.880  22.732  0.00  0.00    +0.000 C 
ATOM     17  N   UNL     1       8.816  -1.317  22.022  0.00  0.00    +0.000 NA
ATOM     18  C   UNL     1       7.673  -2.204  22.000  0.00  0.00    +0.000 C 
ATOM     19  C   UNL     1       7.255  -2.525  23.445  0.00  0.00    +0.000 C 
BRANCH  17  20
ATOM     20  C   UNL     1       8.879  -0.041  21.589  0.00  0.00    +0.000 C 
ATOM     21  O   UNL     1       9.875   0.643  21.716  0.00  0.00    +0.000 OA
BRANCH  20  22
ATOM     22  C   UNL     1       7.644   0.532  20.903  0.00  0.00    +0.000 C 
ATOM     23 CL   UNL     1       7.641   0.136  19.163  0.00  0.00    +0.000 Cl
ENDBRANCH  20  22
ENDBRANCH  17  20
ENDBRANCH   1  14
TORSDOF 6
ENDMDL
MODEL 9
REMARK VINA RESULT:      -6.1      2.711      5.747
REMARK  Name = 
REMARK  8 active torsions:
REMARK  status: ('A' for Active; 'I' for Inactive)
REMARK    1  A    between atoms: C_1  and  O_2
REMARK    2  A    between atoms: O_2  and  C_3
REMARK    3  A    between atoms: C_6  and  S_7
REMARK    4  A    between atoms: S_7  and  N_10
REMARK    5  A    between atoms: N_13  and  C_14
REMARK    6  A    between atoms: C_14  and  C_16
REMARK    7  A    between atoms: C_21  and  O_22
REMARK    8  A    between atoms: O_22  and  C_23
REMARK                            x       y       z     vdW  Elec       q    Type
REMARK                         _______ _______ _______ _____ _____    ______ ____
ROOT
ATOM      1  S   UNL     1       9.040   0.066  24.448  0.00  0.00    +0.000 S 
ATOM      2  O   UNL     1       8.564   1.166  25.230  0.00  0.00    +0.000 OA
ATOM      3  O   UNL     1      10.439  -0.237  24.424  0.00  0.00    +0.000 OA
ENDROOT
BRANCH   1   7
ATOM      4  C   UNL     1       7.524   0.545  20.166  0.00  0.00    +0.000 C 
ATOM      5  C   UNL     1       8.619  -0.274  20.445  0.00  0.00    +0.000 C 
ATOM      6  C   UNL     1       9.106  -0.398  21.732  0.00  0.00    +0.000 C 
ATOM      7  C   UNL     1       8.484   0.289  22.756  0.00  0.00    +0.000 C 
ATOM      8  C   UNL     1       7.435   1.147  22.500  0.00  0.00    +0.000 C 
ATOM      9  C   UNL     1       6.955   1.306  21.205  0.00  0.00    +0.000 C 
BRANCH   4  11
ATOM     10  C   UNL     1       6.074  -0.288  18.473  0.00  0.00    +0.000 C 
ATOM     11  O   UNL     1       7.110   0.603  18.866  0.00  0.00    +0.000 OA
ENDBRANCH   4  11
BRANCH   9  12
ATOM     12  O   UNL     1       5.926   2.194  20.998  0.00  0.00    +0.000 OA
ATOM     13  C   UNL     1       5.561   2.945  22.147  0.00  0.00    +0.000 C 
ENDBRANCH   9  12
ENDBRANCH   1   7
BRANCH   1  14
ATOM     14  N   UNL     1       8.276  -1.294  25.028  0.00  0.00    +0.000 NA
ATOM     15  C   UNL     1       6.841  -1.382  24.915  0.00  0.00    +0.000 C 
ATOM     16  C   UNL     1       6.418  -2.186  23.681  0.00  0.00    +0.000 C 
ATOM     17  N   UNL     1       7.092  -3.473  23.682  0.00  0.00    +0.000 NA
ATOM     18  C   UNL     1       8.533  -3.351  23.694  0.00  0.00    +0.000 C 
ATOM     19  C   UNL     1       8.962  -2.555  24.938  0.00  0.00    +0.000 C 
BRANCH  17  20
ATOM     20  C   UNL     1       6.358  -4.599  23.803  0.00  0.00    +0.000 C 
ATOM     21  O   UNL     1       6.181  -5.150  24.871  0.00  0.00    +0.000 OA
BRANCH  20  22
ATOM     22  C   UNL     1       5.725  -5.168  22.538  0.00  0.00    +0.000 C 
ATOM     23 CL   UNL     1       6.957  -5.931  21.497  0.00  0.00    +0.000 Cl
ENDBRANCH  20  22
ENDBRANCH  17  20
ENDBRANCH   1  14
TORSDOF 6
ENDMDL
