MODEL 1
REMARK VINA RESULT:      -6.2      0.000      0.000
REMARK  Name = 
REMARK  5 active torsions:
REMARK  status: ('A' for Active; 'I' for Inactive)
REMARK    1  A    between atoms: C_1  and  C_2
REMARK    2  A    between atoms: C_5  and  C_6
REMARK    3  A    between atoms: C_6  and  N_7
REMARK    4  A    between atoms: N_11  and  C_12
REMARK    5  A    between atoms: C_12  and  C_14
REMARK                            x       y       z     vdW  Elec       q    Type
REMARK                         _______ _______ _______ _____ _____    ______ ____
ROOT
ATOM      1  N   UNL     1       9.699  -0.133  23.198  0.00  0.00    +0.000 NA
ATOM      2  C   UNL     1       9.922   0.535  24.462  0.00  0.00    +0.000 C 
ATOM      3  C   UNL     1       9.639  -0.375  25.654  0.00  0.00    +0.000 C 
ATOM      4  C   UNL     1       8.297  -1.098  25.523  0.00  0.00    +0.000 C 
ATOM      5  N   UNL     1       8.202  -1.866  24.299  0.00  0.00    +0.000 NA
ATOM      6  C   UNL     1       9.424  -2.482  23.827  0.00  0.00    +0.000 C 
ATOM      7  C   UNL     1      10.320  -1.435  23.106  0.00  0.00    +0.000 C 
ENDROOT
BRANCH   5   8
ATOM      8  C   UNL     1       7.132  -1.914  23.484  0.00  0.00    +0.000 C 
ATOM      9  O   UNL     1       6.253  -1.071  23.498  0.00  0.00    +0.000 OA
BRANCH   8  10
ATOM     10  C   UNL     1       7.037  -3.066  22.490  0.00  0.00    +0.000 C 
ATOM     11 CL   UNL     1       5.861  -2.736  21.192  0.00  0.00    +0.000 Cl
ENDBRANCH   8  10
ENDBRANCH   5   8
BRANCH   1  12
ATOM     12  C   UNL     1       9.884   0.759  22.070  0.00  0.00    +0.000 C 
BRANCH  12  17
ATOM     13  C   UNL     1       4.975   1.141  18.994  0.00  0.00    +0.000 C 
ATOM     14  C   UNL     1       6.237   1.034  19.794  0.00  0.00    +0.000 C 
ATOM     15  C   UNL     1       7.213   0.108  19.445  0.00  0.00    +0.000 C 
ATOM     16  C   UNL     1       8.384   0.003  20.173  0.00  0.00    +0.000 C 
ATOM     17  C   UNL     1       8.607   0.817  21.274  0.00  0.00    +0.000 C 
ATOM     18  C   UNL     1       7.632   1.742  21.629  0.00  0.00    +0.000 C 
ATOM     19  C   UNL     1       6.465   1.849  20.896  0.00  0.00    +0.000 C 
ENDBRANCH  12  17
ENDBRANCH   1  12
TORSDOF 4
ENDMDL
MODEL 2
REMARK VINA RESULT:      -5.9      2.681      4.296
REMARK  Name = 
REMARK  5 active torsions:
REMARK  status: ('A' for Active; 'I' for Inactive)
REMARK    1  A    between atoms: C_1  and  C_2
REMARK    2  A    between atoms: C_5  and  C_6
REMARK    3  A    between atoms: C_6  and  N_7
REMARK    4  A    between atoms: N_11  and  C_12
REMARK    5  A    between atoms: C_12  and  C_14
REMARK                            x       y       z     vdW  Elec       q    Type
REMARK                         _______ _______ _______ _____ _____    ______ ____
ROOT
ATOM      1  N   UNL     1       6.597  -3.027  22.496  0.00  0.00    +0.000 NA
ATOM      2  C   UNL     1       6.563  -4.361  21.936  0.00  0.00    +0.000 C 
ATOM      3  C   UNL     1       6.842  -5.434  22.985  0.00  0.00    +0.000 C 
ATOM      4  C   UNL     1       8.077  -5.109  23.829  0.00  0.00    +0.000 C 
ATOM      5  N   UNL     1       7.976  -3.818  24.478  0.00  0.00    +0.000 NA
ATOM      6  C   UNL     1       6.655  -3.414  24.911  0.00  0.00    +0.000 C 
ATOM      7  C   UNL     1       5.825  -2.880  23.708  0.00  0.00    +0.000 C 
ENDROOT
BRANCH   5   8
ATOM      8  C   UNL     1       8.959  -2.902  24.557  0.00  0.00    +0.000 C 
ATOM      9  O   UNL     1      10.017  -3.016  23.967  0.00  0.00    +0.000 OA
BRANCH   8  10
ATOM     10  C   UNL     1       8.716  -1.660  25.410  0.00  0.00    +0.000 C 
ATOM     11 CL   UNL     1       9.943  -0.400  25.122  0.00  0.00    +0.000 Cl
ENDBRANCH   8  10
ENDBRANCH   5   8
BRANCH   1  12
ATOM     12  C   UNL     1       6.418  -2.006  21.482  0.00  0.00    +0.000 C 
BRANCH  12  17
ATOM     13  C   UNL     1      10.315   2.232  22.229  0.00  0.00    +0.000 C 
ATOM     14  C   UNL     1       9.311   1.135  22.047  0.00  0.00    +0.000 C 
ATOM     15  C   UNL     1       7.984   1.332  22.408  0.00  0.00    +0.000 C 
ATOM     16  C   UNL     1       7.046   0.329  22.241  0.00  0.00    +0.000 C 
ATOM     17  C   UNL     1       7.415  -0.901  21.714  0.00  0.00    +0.000 C 
ATOM     18  C   UNL     1       8.742  -1.104  21.355  0.00  0.00    +0.000 C 
ATOM     19  C   UNL     1       9.676  -0.097  21.518  0.00  0.00    +0.000 C 
ENDBRANCH  12  17
ENDBRANCH   1  12
TORSDOF 4
ENDMDL
MODEL 3
REMARK VINA RESULT:      -5.9      2.155      3.181
REMARK  Name = 
REMARK  5 active torsions:
REMARK  status: ('A' for Active; 'I' for Inactive)
REMARK    1  A    between atoms: C_1  and  C_2
REMARK    2  A    between atoms: C_5  and  C_6
REMARK    3  A    between atoms: C_6  and  N_7
REMARK    4  A    between atoms: N_11  and  C_12
REMARK    5  A    between atoms: C_12  and  C_14
REMARK                            x       y       z     vdW  Elec       q    Type
REMARK                         _______ _______ _______ _____ _____    ______ ____
ROOT
ATOM      1  N   UNL     1       9.005  -0.644  23.503  0.00  0.00    +0.000 NA
ATOM      2  C   UNL     1      10.419  -0.565  23.799  0.00  0.00    +0.000 C 
ATOM      3  C   UNL     1      10.758   0.632  24.683  0.00  0.00    +0.000 C 
ATOM      4  C   UNL     1      10.124   1.927  24.170  0.00  0.00    +0.000 C 
ATOM      5  N   UNL     1       8.685   1.820  24.036  0.00  0.00    +0.000 NA
ATOM      6  C   UNL     1       8.005   0.999  25.016  0.00  0.00    +0.000 C 
ATOM      7  C   UNL     1       8.155  -0.509  24.664  0.00  0.00    +0.000 C 
ENDROOT
BRANCH   5   8
ATOM      8  C   UNL     1       7.959   2.271  22.997  0.00  0.00    +0.000 C 
ATOM      9  O   UNL     1       8.456   2.835  22.040  0.00  0.00    +0.000 OA
BRANCH   8  10
ATOM     10  C   UNL     1       6.452   2.039  23.021  0.00  0.00    +0.000 C 
ATOM     11 CL   UNL     1       5.679   2.502  21.483  0.00  0.00    +0.000 Cl
ENDBRANCH   8  10
ENDBRANCH   5   8
BRANCH   1  12
ATOM     12  C   UNL     1       8.699  -1.731  22.594  0.00  0.00    +0.000 C 
BRANCH  12  17
ATOM     13  C   UNL     1       5.728   0.310  18.041  0.00  0.00    +0.000 C 
ATOM     14  C   UNL     1       6.490  -0.209  19.222  0.00  0.00    +0.000 C 
ATOM     15  C   UNL     1       5.895  -1.104  20.104  0.00  0.00    +0.000 C 
ATOM     16  C   UNL     1       6.589  -1.593  21.195  0.00  0.00    +0.000 C 
ATOM     17  C   UNL     1       7.896  -1.193  21.438  0.00  0.00    +0.000 C 
ATOM     18  C   UNL     1       8.494  -0.295  20.561  0.00  0.00    +0.000 C 
ATOM     19  C   UNL     1       7.799   0.188  19.468  0.00  0.00    +0.000 C 
ENDBRANCH  12  17
ENDBRANCH   1  12
TORSDOF 4
ENDMDL
MODEL 4
REMARK VINA RESULT:      -5.7      2.475      4.426
REMARK  Name = 
REMARK  5 active torsions:
REMARK  status: ('A' for Active; 'I' for Inactive)
REMARK    1  A    between atoms: C_1  and  C_2
REMARK    2  A    between atoms: C_5  and  C_6
REMARK    3  A    between atoms: C_6  and  N_7
REMARK    4  A    between atoms: N_11  and  C_12
REMARK    5  A    between atoms: C_12  and  C_14
REMARK                            x       y       z     vdW  Elec       q    Type
REMARK                         _______ _______ _______ _____ _____    ______ ____
ROOT
ATOM      1  N   UNL     1       7.530  -2.052  25.062  0.00  0.00    +0.000 NA
ATOM      2  C   UNL     1       6.087  -2.144  25.131  0.00  0.00    +0.000 C 
ATOM      3  C   UNL     1       5.514  -3.039  24.035  0.00  0.00    +0.000 C 
ATOM      4  C   UNL     1       6.083  -2.701  22.656  0.00  0.00    +0.000 C 
ATOM      5  N   UNL     1       7.530  -2.770  22.625  0.00  0.00    +0.000 NA
ATOM      6  C   UNL     1       8.145  -3.787  23.451  0.00  0.00    +0.000 C 
ATOM      7  C   UNL     1       8.194  -3.328  24.937  0.00  0.00    +0.000 C 
ENDROOT
BRANCH   5   8
ATOM      8  C   UNL     1       8.346  -1.876  22.038  0.00  0.00    +0.000 C 
ATOM      9  O   UNL     1       9.542  -2.059  21.908  0.00  0.00    +0.000 OA
BRANCH   8  10
ATOM     10  C   UNL     1       7.731  -0.589  21.497  0.00  0.00    +0.000 C 
ATOM     11 CL   UNL     1       8.964   0.650  21.153  0.00  0.00    +0.000 Cl
ENDBRANCH   8  10
ENDBRANCH   5   8
BRANCH   1  12
ATOM     12  C   UNL     1       8.064  -1.133  26.049  0.00  0.00    +0.000 C 
BRANCH  12  17
ATOM     13  C   UNL     1      10.941   3.184  23.442  0.00  0.00    +0.000 C 
ATOM     14  C   UNL     1      10.196   2.066  24.104  0.00  0.00    +0.000 C 
ATOM     15  C   UNL     1      10.817   0.842  24.326  0.00  0.00    +0.000 C 
ATOM     16  C   UNL     1      10.141  -0.196  24.940  0.00  0.00    +0.000 C 
ATOM     17  C   UNL     1       8.823  -0.040  25.343  0.00  0.00    +0.000 C 
ATOM     18  C   UNL     1       8.196   1.181  25.120  0.00  0.00    +0.000 C 
ATOM     19  C   UNL     1       8.876   2.219  24.511  0.00  0.00    +0.000 C 
ENDBRANCH  12  17
ENDBRANCH   1  12
TORSDOF 4
ENDMDL
MODEL 5
REMARK VINA RESULT:      -5.7      2.845      4.907
REMARK  Name = 
REMARK  5 active torsions:
REMARK  status: ('A' for Active; 'I' for Inactive)
REMARK    1  A    between atoms: C_1  and  C_2
REMARK    2  A    between atoms: C_5  and  C_6
REMARK    3  A    between atoms: C_6  and  N_7
REMARK    4  A    between atoms: N_11  and  C_12
REMARK    5  A    between atoms: C_12  and  C_14
REMARK                            x       y       z     vdW  Elec       q    Type
REMARK                         _______ _______ _______ _____ _____    ______ ____
ROOT
ATOM      1  N   UNL     1       7.815  -1.587  22.526  0.00  0.00    +0.000 NA
ATOM      2  C   UNL     1       7.503  -0.289  23.085  0.00  0.00    +0.000 C 
ATOM      3  C   UNL     1       8.617   0.233  23.989  0.00  0.00    +0.000 C 
ATOM      4  C   UNL     1       9.083  -0.820  24.998  0.00  0.00    +0.000 C 
ATOM      5  N   UNL     1       9.519  -2.043  24.356  0.00  0.00    +0.000 NA
ATOM      6  C   UNL     1      10.179  -1.900  23.075  0.00  0.00    +0.000 C 
ATOM      7  C   UNL     1       9.134  -1.673  21.944  0.00  0.00    +0.000 C 
ENDROOT
BRANCH   5   8
ATOM      8  C   UNL     1       9.215  -3.291  24.758  0.00  0.00    +0.000 C 
ATOM      9  O   UNL     1       9.881  -4.263  24.451  0.00  0.00    +0.000 OA
BRANCH   8  10
ATOM     10  C   UNL     1       7.995  -3.480  25.653  0.00  0.00    +0.000 C 
ATOM     11 CL   UNL     1       7.722  -5.193  26.059  0.00  0.00    +0.000 Cl
ENDBRANCH   8  10
ENDBRANCH   5   8
BRANCH   1  12
ATOM     12  C   UNL     1       6.719  -2.118  21.739  0.00  0.00    +0.000 C 
BRANCH  12  17
ATOM     13  C   UNL     1       4.548  -6.875  24.263  0.00  0.00    +0.000 C 
ATOM     14  C   UNL     1       5.116  -5.647  23.620  0.00  0.00    +0.000 C 
ATOM     15  C   UNL     1       6.184  -5.747  22.736  0.00  0.00    +0.000 C 
ATOM     16  C   UNL     1       6.714  -4.621  22.132  0.00  0.00    +0.000 C 
ATOM     17  C   UNL     1       6.195  -3.364  22.404  0.00  0.00    +0.000 C 
ATOM     18  C   UNL     1       5.129  -3.258  23.290  0.00  0.00    +0.000 C 
ATOM     19  C   UNL     1       4.597  -4.386  23.888  0.00  0.00    +0.000 C 
ENDBRANCH  12  17
ENDBRANCH   1  12
TORSDOF 4
ENDMDL
MODEL 6
REMARK VINA RESULT:      -5.5      1.934      4.359
REMARK  Name = 
REMARK  5 active torsions:
REMARK  status: ('A' for Active; 'I' for Inactive)
REMARK    1  A    between atoms: C_1  and  C_2
REMARK    2  A    between atoms: C_5  and  C_6
REMARK    3  A    between atoms: C_6  and  N_7
REMARK    4  A    between atoms: N_11  and  C_12
REMARK    5  A    between atoms: C_12  and  C_14
REMARK                            x       y       z     vdW  Elec       q    Type
REMARK                         _______ _______ _______ _____ _____    ______ ____
ROOT
ATOM      1  N   UNL     1       8.027  -0.637  24.645  0.00  0.00    +0.000 NA
ATOM      2  C   UNL     1       9.194  -0.588  25.499  0.00  0.00    +0.000 C 
ATOM      3  C   UNL     1      10.275   0.338  24.946  0.00  0.00    +0.000 C 
ATOM      4  C   UNL     1      10.557   0.077  23.465  0.00  0.00    +0.000 C 
ATOM      5  N   UNL     1       9.365   0.188  22.649  0.00  0.00    +0.000 NA
ATOM      6  C   UNL     1       8.397   1.185  23.054  0.00  0.00    +0.000 C 
ATOM      7  C   UNL     1       7.540   0.662  24.243  0.00  0.00    +0.000 C 
ENDROOT
BRANCH   5   8
ATOM      8  C   UNL     1       9.007  -0.656  21.665  0.00  0.00    +0.000 C 
ATOM      9  O   UNL     1       9.171  -1.861  21.736  0.00  0.00    +0.000 OA
BRANCH   8  10
ATOM     10  C   UNL     1       8.349  -0.071  20.420  0.00  0.00    +0.000 C 
ATOM     11 CL   UNL     1       6.612  -0.459  20.335  0.00  0.00    +0.000 Cl
ENDBRANCH   8  10
ENDBRANCH   5   8
BRANCH   1  12
ATOM     12  C   UNL     1       7.039  -1.583  25.127  0.00  0.00    +0.000 C 
BRANCH  12  17
ATOM     13  C   UNL     1       6.439  -5.738  21.116  0.00  0.00    +0.000 C 
ATOM     14  C   UNL     1       6.587  -4.671  22.158  0.00  0.00    +0.000 C 
ATOM     15  C   UNL     1       7.535  -4.801  23.166  0.00  0.00    +0.000 C 
ATOM     16  C   UNL     1       7.684  -3.822  24.131  0.00  0.00    +0.000 C 
ATOM     17  C   UNL     1       6.883  -2.689  24.117  0.00  0.00    +0.000 C 
ATOM     18  C   UNL     1       5.931  -2.556  23.112  0.00  0.00    +0.000 C 
ATOM     19  C   UNL     1       5.788  -3.534  22.146  0.00  0.00    +0.000 C 
ENDBRANCH  12  17
ENDBRANCH   1  12
TORSDOF 4
ENDMDL
MODEL 7
REMARK VINA RESULT:      -5.5      2.536      4.964
REMARK  Name = 
REMARK  5 active torsions:
REMARK  status: ('A' for Active; 'I' for Inactive)
REMARK    1  A    between atoms: C_1  and  C_2
REMARK    2  A    between atoms: C_5  and  C_6
REMARK    3  A    between atoms: C_6  and  N_7
REMARK    4  A    between atoms: N_11  and  C_12
REMARK    5  A    between atoms: C_12  and  C_14
REMARK                            x       y       z     vdW  Elec       q    Type
REMARK                         _______ _______ _______ _____ _____    ______ ____
ROOT
ATOM      1  N   UNL     1       8.819   0.653  21.864  0.00  0.00    +0.000 NA
ATOM      2  C   UNL     1       7.567   1.305  21.545  0.00  0.00    +0.000 C 
ATOM      3  C   UNL     1       7.393   2.621  22.299  0.00  0.00    +0.000 C 
ATOM      4  C   UNL     1       7.693   2.475  23.792  0.00  0.00    +0.000 C 
ATOM      5  N   UNL     1       9.021   1.952  24.039  0.00  0.00    +0.000 NA
ATOM      6  C   UNL     1      10.056   2.356  23.111  0.00  0.00    +0.000 C 
ATOM      7  C   UNL     1       9.968   1.526  21.798  0.00  0.00    +0.000 C 
ENDROOT
BRANCH   5   8
ATOM      8  C   UNL     1       9.336   1.002  24.939  0.00  0.00    +0.000 C 
ATOM      9  O   UNL     1      10.484   0.688  25.193  0.00  0.00    +0.000 OA
BRANCH   8  10
ATOM     10  C   UNL     1       8.197   0.313  25.683  0.00  0.00    +0.000 C 
ATOM     11 CL   UNL     1       8.790  -0.939  26.803  0.00  0.00    +0.000 Cl
ENDBRANCH   8  10
ENDBRANCH   5   8
BRANCH   1  12
ATOM     12  C   UNL     1       8.942  -0.637  21.214  0.00  0.00    +0.000 C 
BRANCH  12  17
ATOM     13  C   UNL     1       8.564  -4.923  25.113  0.00  0.00    +0.000 C 
ATOM     14  C   UNL     1       8.658  -3.810  24.115  0.00  0.00    +0.000 C 
ATOM     15  C   UNL     1       9.801  -3.022  24.047  0.00  0.00    +0.000 C 
ATOM     16  C   UNL     1       9.902  -1.994  23.127  0.00  0.00    +0.000 C 
ATOM     17  C   UNL     1       8.858  -1.723  22.255  0.00  0.00    +0.000 C 
ATOM     18  C   UNL     1       7.711  -2.506  22.321  0.00  0.00    +0.000 C 
ATOM     19  C   UNL     1       7.615  -3.536  23.238  0.00  0.00    +0.000 C 
ENDBRANCH  12  17
ENDBRANCH   1  12
TORSDOF 4
ENDMDL
MODEL 8
REMARK VINA RESULT:      -5.5      2.849      4.024
REMARK  Name = 
REMARK  5 active torsions:
REMARK  status: ('A' for Active; 'I' for Inactive)
REMARK    1  A    between atoms: C_1  and  C_2
REMARK    2  A    between atoms: C_5  and  C_6
REMARK    3  A    between atoms: C_6  and  N_7
REMARK    4  A    between atoms: N_11  and  C_12
REMARK    5  A    between atoms: C_12  and  C_14
REMARK                            x       y       z     vdW  Elec       q    Type
REMARK                         _______ _______ _______ _____ _____    ______ ____
ROOT
ATOM      1  N   UNL     1       8.954  -2.448  23.476  0.00  0.00    +0.000 NA
ATOM      2  C   UNL     1       9.353  -3.413  24.477  0.00  0.00    +0.000 C 
ATOM      3  C   UNL     1       8.177  -3.880  25.332  0.00  0.00    +0.000 C 
ATOM      4  C   UNL     1       7.340  -2.709  25.850  0.00  0.00    +0.000 C 
ATOM      5  N   UNL     1       6.851  -1.865  24.779  0.00  0.00    +0.000 NA
ATOM      6  C   UNL     1       6.509  -2.529  23.539  0.00  0.00    +0.000 C 
ATOM      7  C   UNL     1       7.791  -2.841  22.714  0.00  0.00    +0.000 C 
ENDROOT
BRANCH   5   8
ATOM      8  C   UNL     1       6.849  -0.519  24.779  0.00  0.00    +0.000 C 
ATOM      9  O   UNL     1       6.374   0.140  23.873  0.00  0.00    +0.000 OA
BRANCH   8  10
ATOM     10  C   UNL     1       7.451   0.199  25.982  0.00  0.00    +0.000 C 
ATOM     11 CL   UNL     1       7.591   1.955  25.712  0.00  0.00    +0.000 Cl
ENDBRANCH   8  10
ENDBRANCH   5   8
BRANCH   1  12
ATOM     12  C   UNL     1      10.085  -1.942  22.725  0.00  0.00    +0.000 C 
BRANCH  12  17
ATOM     13  C   UNL     1      10.549   3.797  23.472  0.00  0.00    +0.000 C 
ATOM     14  C   UNL     1      10.418   2.317  23.283  0.00  0.00    +0.000 C 
ATOM     15  C   UNL     1       9.943   1.802  22.083  0.00  0.00    +0.000 C 
ATOM     16  C   UNL     1       9.822   0.438  21.893  0.00  0.00    +0.000 C 
ATOM     17  C   UNL     1      10.167  -0.448  22.904  0.00  0.00    +0.000 C 
ATOM     18  C   UNL     1      10.640   0.062  24.108  0.00  0.00    +0.000 C 
ATOM     19  C   UNL     1      10.765   1.426  24.292  0.00  0.00    +0.000 C 
ENDBRANCH  12  17
ENDBRANCH   1  12
TORSDOF 4
ENDMDL
MODEL 9
REMARK VINA RESULT:      -5.4      2.513      4.182
REMARK  Name = 
REMARK  5 active torsions:
REMARK  status: ('A' for Active; 'I' for Inactive)
REMARK    1  A    between atoms: C_1  and  C_2
REMARK    2  A    between atoms: C_5  and  C_6
REMARK    3  A    between atoms: C_6  and  N_7
REMARK    4  A    between atoms: N_11  and  C_12
REMARK    5  A    between atoms: C_12  and  C_14
REMARK                            x       y       z     vdW  Elec       q    Type
REMARK                         _______ _______ _______ _____ _____    ______ ____
ROOT
ATOM      1  N   UNL     1       9.015  -1.082  24.232  0.00  0.00    +0.000 NA
ATOM      2  C   UNL     1       8.003  -1.911  24.851  0.00  0.00    +0.000 C 
ATOM      3  C   UNL     1       7.223  -2.731  23.827  0.00  0.00    +0.000 C 
ATOM      4  C   UNL     1       6.742  -1.879  22.651  0.00  0.00    +0.000 C 
ATOM      5  N   UNL     1       7.830  -1.191  21.987  0.00  0.00    +0.000 NA
ATOM      6  C   UNL     1       9.095  -1.892  21.925  0.00  0.00    +0.000 C 
ATOM      7  C   UNL     1       9.847  -1.783  23.283  0.00  0.00    +0.000 C 
ENDROOT
BRANCH   5   8
ATOM      8  C   UNL     1       7.815   0.092  21.581  0.00  0.00    +0.000 C 
ATOM      9  O   UNL     1       8.555   0.518  20.713  0.00  0.00    +0.000 OA
BRANCH   8  10
ATOM     10  C   UNL     1       6.810   1.039  22.229  0.00  0.00    +0.000 C 
ATOM     11 CL   UNL     1       6.996   2.712  21.647  0.00  0.00    +0.000 Cl
ENDBRANCH   8  10
ENDBRANCH   5   8
BRANCH   1  12
ATOM     12  C   UNL     1       9.695  -0.240  25.198  0.00  0.00    +0.000 C 
BRANCH  12  17
ATOM     13  C   UNL     1       9.277   5.340  23.649  0.00  0.00    +0.000 C 
ATOM     14  C   UNL     1       9.379   3.897  24.039  0.00  0.00    +0.000 C 
ATOM     15  C   UNL     1      10.415   3.110  23.551  0.00  0.00    +0.000 C 
ATOM     16  C   UNL     1      10.523   1.778  23.907  0.00  0.00    +0.000 C 
ATOM     17  C   UNL     1       9.592   1.197  24.756  0.00  0.00    +0.000 C 
ATOM     18  C   UNL     1       8.552   1.980  25.244  0.00  0.00    +0.000 C 
ATOM     19  C   UNL     1       8.450   3.312  24.891  0.00  0.00    +0.000 C 
ENDBRANCH  12  17
ENDBRANCH   1  12
TORSDOF 4
ENDMDL
