MODEL 1
REMARK VINA RESULT:      -7.0      0.000      0.000
REMARK  Name = 
REMARK  4 active torsions:
REMARK  status: ('A' for Active; 'I' for Inactive)
REMARK    1  A    between atoms: C_2  and  C_3
REMARK    2  A    between atoms: C_2  and  N_5
REMARK    3  A    between atoms: N_8  and  S_9
REMARK    4  A    between atoms: S_9  and  C_12
REMARK                            x       y       z     vdW  Elec       q    Type
REMARK                         _______ _______ _______ _____ _____    ______ ____
ROOT
ATOM      1  S   UNL     1       9.187  -2.104  24.093  0.00  0.00    +0.000 S 
ATOM      2  O   UNL     1      10.326  -2.896  23.733  0.00  0.00    +0.000 OA
ATOM      3  O   UNL     1       9.284  -1.181  25.181  0.00  0.00    +0.000 OA
ENDROOT
BRANCH   1   4
ATOM      4  C   UNL     1       8.569  -1.246  22.652  0.00  0.00    +0.000 C 
ATOM      5  C   UNL     1       9.259  -0.148  22.176  0.00  0.00    +0.000 C 
ATOM      6  C   UNL     1       8.828   0.487  21.018  0.00  0.00    +0.000 C 
ATOM      7  C   UNL     1       7.717  -0.007  20.362  0.00  0.00    +0.000 C 
ATOM      8  C   UNL     1       7.028  -1.117  20.853  0.00  0.00    +0.000 C 
ATOM      9  C   UNL     1       7.450  -1.748  22.007  0.00  0.00    +0.000 C 
ATOM     10  C   UNL     1       5.853  -1.436  19.978  0.00  0.00    +0.000 C 
ATOM     11  C   UNL     1       6.153  -0.659  18.686  0.00  0.00    +0.000 C 
ATOM     12  C   UNL     1       7.057   0.508  19.119  0.00  0.00    +0.000 C 
ENDBRANCH   1   4
BRANCH   1  16
ATOM     13  N   UNL     1       5.966  -4.878  24.534  0.00  0.00    +0.000 NA
ATOM     14  C   UNL     1       5.594  -3.489  24.729  0.00  0.00    +0.000 C 
ATOM     15  C   UNL     1       6.820  -2.689  25.193  0.00  0.00    +0.000 C 
ATOM     16  N   UNL     1       7.970  -3.174  24.479  0.00  0.00    +0.000 NA
ATOM     17  C   UNL     1       8.368  -4.525  24.811  0.00  0.00    +0.000 C 
ATOM     18  C   UNL     1       7.133  -5.312  25.270  0.00  0.00    +0.000 C 
BRANCH  13  20
ATOM     19  O   UNL     1       4.788  -6.723  24.011  0.00  0.00    +0.000 OA
ATOM     20  C   UNL     1       5.399  -5.734  23.658  0.00  0.00    +0.000 C 
BRANCH  20  21
ATOM     21  C   UNL     1       5.531  -5.409  22.176  0.00  0.00    +0.000 C 
ATOM     22 CL   UNL     1       7.173  -5.750  21.578  0.00  0.00    +0.000 Cl
ENDBRANCH  20  21
ENDBRANCH  13  20
ENDBRANCH   1  16
TORSDOF 4
ENDMDL
MODEL 2
REMARK VINA RESULT:      -6.9      2.398      3.074
REMARK  Name = 
REMARK  4 active torsions:
REMARK  status: ('A' for Active; 'I' for Inactive)
REMARK    1  A    between atoms: C_2  and  C_3
REMARK    2  A    between atoms: C_2  and  N_5
REMARK    3  A    between atoms: N_8  and  S_9
REMARK    4  A    between atoms: S_9  and  C_12
REMARK                            x       y       z     vdW  Elec       q    Type
REMARK                         _______ _______ _______ _____ _____    ______ ____
ROOT
ATOM      1  S   UNL     1       9.294   1.149  23.330  0.00  0.00    +0.000 S 
ATOM      2  O   UNL     1      10.565   1.272  22.680  0.00  0.00    +0.000 OA
ATOM      3  O   UNL     1       8.981   1.999  24.436  0.00  0.00    +0.000 OA
ENDROOT
BRANCH   1   4
ATOM      4  C   UNL     1       7.983   1.258  22.119  0.00  0.00    +0.000 C 
ATOM      5  C   UNL     1       6.935   2.130  22.341  0.00  0.00    +0.000 C 
ATOM      6  C   UNL     1       5.945   2.275  21.378  0.00  0.00    +0.000 C 
ATOM      7  C   UNL     1       6.041   1.544  20.209  0.00  0.00    +0.000 C 
ATOM      8  C   UNL     1       7.105   0.666  19.997  0.00  0.00    +0.000 C 
ATOM      9  C   UNL     1       8.088   0.515  20.955  0.00  0.00    +0.000 C 
ATOM     10  C   UNL     1       6.965  -0.020  18.671  0.00  0.00    +0.000 C 
ATOM     11  C   UNL     1       5.931   0.846  17.933  0.00  0.00    +0.000 C 
ATOM     12  C   UNL     1       5.101   1.516  19.041  0.00  0.00    +0.000 C 
ENDBRANCH   1   4
BRANCH   1  16
ATOM     13  N   UNL     1       8.576  -2.907  24.468  0.00  0.00    +0.000 NA
ATOM     14  C   UNL     1       8.131  -1.924  25.437  0.00  0.00    +0.000 C 
ATOM     15  C   UNL     1       8.966  -0.642  25.289  0.00  0.00    +0.000 C 
ATOM     16  N   UNL     1       9.199  -0.418  23.888  0.00  0.00    +0.000 NA
ATOM     17  C   UNL     1      10.057  -1.393  23.250  0.00  0.00    +0.000 C 
ATOM     18  C   UNL     1       9.930  -2.732  23.989  0.00  0.00    +0.000 C 
BRANCH  13  20
ATOM     19  O   UNL     1       7.453  -4.858  24.519  0.00  0.00    +0.000 OA
ATOM     20  C   UNL     1       7.812  -3.870  23.909  0.00  0.00    +0.000 C 
BRANCH  20  21
ATOM     21  C   UNL     1       7.384  -3.671  22.462  0.00  0.00    +0.000 C 
ATOM     22 CL   UNL     1       6.311  -2.260  22.287  0.00  0.00    +0.000 Cl
ENDBRANCH  20  21
ENDBRANCH  13  20
ENDBRANCH   1  16
TORSDOF 4
ENDMDL
MODEL 3
REMARK VINA RESULT:      -6.9      1.396      2.056
REMARK  Name = 
REMARK  4 active torsions:
REMARK  status: ('A' for Active; 'I' for Inactive)
REMARK    1  A    between atoms: C_2  and  C_3
REMARK    2  A    between atoms: C_2  and  N_5
REMARK    3  A    between atoms: N_8  and  S_9
REMARK    4  A    between atoms: S_9  and  C_12
REMARK                            x       y       z     vdW  Elec       q    Type
REMARK                         _______ _______ _______ _____ _____    ______ ____
ROOT
ATOM      1  S   UNL     1       9.754  -1.690  23.591  0.00  0.00    +0.000 S 
ATOM      2  O   UNL     1      10.888  -2.390  23.064  0.00  0.00    +0.000 OA
ATOM      3  O   UNL     1       9.938  -0.421  24.224  0.00  0.00    +0.000 OA
ENDROOT
BRANCH   1   4
ATOM      4  C   UNL     1       8.499  -1.537  22.327  0.00  0.00    +0.000 C 
ATOM      5  C   UNL     1       7.327  -2.256  22.454  0.00  0.00    +0.000 C 
ATOM      6  C   UNL     1       6.316  -2.095  21.515  0.00  0.00    +0.000 C 
ATOM      7  C   UNL     1       6.507  -1.204  20.477  0.00  0.00    +0.000 C 
ATOM      8  C   UNL     1       7.696  -0.483  20.359  0.00  0.00    +0.000 C 
ATOM      9  C   UNL     1       8.706  -0.645  21.288  0.00  0.00    +0.000 C 
ATOM     10  C   UNL     1       7.664   0.391  19.142  0.00  0.00    +0.000 C 
ATOM     11  C   UNL     1       6.171   0.430  18.775  0.00  0.00    +0.000 C 
ATOM     12  C   UNL     1       5.582  -0.871  19.345  0.00  0.00    +0.000 C 
ENDBRANCH   1   4
BRANCH   1  16
ATOM     13  N   UNL     1       7.572  -4.347  26.130  0.00  0.00    +0.000 NA
ATOM     14  C   UNL     1       7.341  -2.939  26.393  0.00  0.00    +0.000 C 
ATOM     15  C   UNL     1       8.566  -2.125  25.947  0.00  0.00    +0.000 C 
ATOM     16  N   UNL     1       9.064  -2.697  24.725  0.00  0.00    +0.000 NA
ATOM     17  C   UNL     1       9.634  -4.019  24.860  0.00  0.00    +0.000 C 
ATOM     18  C   UNL     1       8.963  -4.736  26.039  0.00  0.00    +0.000 C 
BRANCH  13  20
ATOM     19  O   UNL     1       6.366  -6.187  26.606  0.00  0.00    +0.000 OA
ATOM     20  C   UNL     1       6.624  -5.267  25.855  0.00  0.00    +0.000 C 
BRANCH  20  21
ATOM     21  C   UNL     1       5.851  -5.108  24.553  0.00  0.00    +0.000 C 
ATOM     22 CL   UNL     1       6.796  -5.685  23.159  0.00  0.00    +0.000 Cl
ENDBRANCH  20  21
ENDBRANCH  13  20
ENDBRANCH   1  16
TORSDOF 4
ENDMDL
MODEL 4
REMARK VINA RESULT:      -6.7      2.541      6.059
REMARK  Name = 
REMARK  4 active torsions:
REMARK  status: ('A' for Active; 'I' for Inactive)
REMARK    1  A    between atoms: C_2  and  C_3
REMARK    2  A    between atoms: C_2  and  N_5
REMARK    3  A    between atoms: N_8  and  S_9
REMARK    4  A    between atoms: S_9  and  C_12
REMARK                            x       y       z     vdW  Elec       q    Type
REMARK                         _______ _______ _______ _____ _____    ______ ____
ROOT
ATOM      1  S   UNL     1       8.803  -4.228  25.183  0.00  0.00    +0.000 S 
ATOM      2  O   UNL     1       8.803  -3.821  26.557  0.00  0.00    +0.000 OA
ATOM      3  O   UNL     1       9.868  -5.044  24.687  0.00  0.00    +0.000 OA
ENDROOT
BRANCH   1   4
ATOM      4  C   UNL     1       7.240  -4.997  24.781  0.00  0.00    +0.000 C 
ATOM      5  C   UNL     1       6.916  -5.207  23.455  0.00  0.00    +0.000 C 
ATOM      6  C   UNL     1       5.737  -5.864  23.130  0.00  0.00    +0.000 C 
ATOM      7  C   UNL     1       4.917  -6.304  24.151  0.00  0.00    +0.000 C 
ATOM      8  C   UNL     1       5.255  -6.086  25.487  0.00  0.00    +0.000 C 
ATOM      9  C   UNL     1       6.424  -5.428  25.814  0.00  0.00    +0.000 C 
ATOM     10  C   UNL     1       4.195  -6.634  26.395  0.00  0.00    +0.000 C 
ATOM     11  C   UNL     1       3.393  -7.570  25.476  0.00  0.00    +0.000 C 
ATOM     12  C   UNL     1       3.601  -7.016  24.056  0.00  0.00    +0.000 C 
ENDBRANCH   1   4
BRANCH   1  16
ATOM     13  N   UNL     1       8.532  -0.931  22.477  0.00  0.00    +0.000 NA
ATOM     14  C   UNL     1       9.773  -1.677  22.392  0.00  0.00    +0.000 C 
ATOM     15  C   UNL     1      10.057  -2.357  23.740  0.00  0.00    +0.000 C 
ATOM     16  N   UNL     1       8.810  -2.829  24.277  0.00  0.00    +0.000 NA
ATOM     17  C   UNL     1       7.883  -1.790  24.671  0.00  0.00    +0.000 C 
ATOM     18  C   UNL     1       8.137  -0.543  23.813  0.00  0.00    +0.000 C 
BRANCH  13  20
ATOM     19  O   UNL     1       6.698  -1.356  21.243  0.00  0.00    +0.000 OA
ATOM     20  C   UNL     1       7.687  -0.682  21.455  0.00  0.00    +0.000 C 
BRANCH  20  21
ATOM     21  C   UNL     1       8.000   0.509  20.560  0.00  0.00    +0.000 C 
ATOM     22 CL   UNL     1       7.491   0.215  18.879  0.00  0.00    +0.000 Cl
ENDBRANCH  20  21
ENDBRANCH  13  20
ENDBRANCH   1  16
TORSDOF 4
ENDMDL
MODEL 5
REMARK VINA RESULT:      -6.7      2.192      2.950
REMARK  Name = 
REMARK  4 active torsions:
REMARK  status: ('A' for Active; 'I' for Inactive)
REMARK    1  A    between atoms: C_2  and  C_3
REMARK    2  A    between atoms: C_2  and  N_5
REMARK    3  A    between atoms: N_8  and  S_9
REMARK    4  A    between atoms: S_9  and  C_12
REMARK                            x       y       z     vdW  Elec       q    Type
REMARK                         _______ _______ _______ _____ _____    ______ ____
ROOT
ATOM      1  S   UNL     1       8.957  -3.440  25.116  0.00  0.00    +0.000 S 
ATOM      2  O   UNL     1       9.765  -4.550  24.704  0.00  0.00    +0.000 OA
ATOM      3  O   UNL     1       8.927  -3.061  26.495  0.00  0.00    +0.000 OA
ENDROOT
BRANCH   1   4
ATOM      4  C   UNL     1       9.351  -2.006  24.124  0.00  0.00    +0.000 C 
ATOM      5  C   UNL     1       9.385  -2.130  22.748  0.00  0.00    +0.000 C 
ATOM      6  C   UNL     1       9.623  -1.010  21.962  0.00  0.00    +0.000 C 
ATOM      7  C   UNL     1       9.810   0.211  22.583  0.00  0.00    +0.000 C 
ATOM      8  C   UNL     1       9.773   0.324  23.973  0.00  0.00    +0.000 C 
ATOM      9  C   UNL     1       9.542  -0.789  24.758  0.00  0.00    +0.000 C 
ATOM     10  C   UNL     1      10.027   1.739  24.394  0.00  0.00    +0.000 C 
ATOM     11  C   UNL     1       9.807   2.538  23.098  0.00  0.00    +0.000 C 
ATOM     12  C   UNL     1      10.094   1.545  21.959  0.00  0.00    +0.000 C 
ENDBRANCH   1   4
BRANCH   1  16
ATOM     13  N   UNL     1       5.156  -4.589  23.536  0.00  0.00    +0.000 NA
ATOM     14  C   UNL     1       5.491  -3.191  23.339  0.00  0.00    +0.000 C 
ATOM     15  C   UNL     1       6.468  -2.737  24.435  0.00  0.00    +0.000 C 
ATOM     16  N   UNL     1       7.391  -3.811  24.686  0.00  0.00    +0.000 NA
ATOM     17  C   UNL     1       6.807  -4.987  25.293  0.00  0.00    +0.000 C 
ATOM     18  C   UNL     1       5.330  -5.080  24.885  0.00  0.00    +0.000 C 
BRANCH  13  20
ATOM     19  O   UNL     1       3.765  -6.071  22.567  0.00  0.00    +0.000 OA
ATOM     20  C   UNL     1       4.820  -5.466  22.567  0.00  0.00    +0.000 C 
BRANCH  20  21
ATOM     21  C   UNL     1       5.814  -5.671  21.432  0.00  0.00    +0.000 C 
ATOM     22 CL   UNL     1       7.431  -6.091  22.050  0.00  0.00    +0.000 Cl
ENDBRANCH  20  21
ENDBRANCH  13  20
ENDBRANCH   1  16
TORSDOF 4
ENDMDL
MODEL 6
REMARK VINA RESULT:      -6.6      2.716      6.003
REMARK  Name = 
REMARK  4 active torsions:
REMARK  status: ('A' for Active; 'I' for Inactive)
REMARK    1  A    between atoms: C_2  and  C_3
REMARK    2  A    between atoms: C_2  and  N_5
REMARK    3  A    between atoms: N_8  and  S_9
REMARK    4  A    between atoms: S_9  and  C_12
REMARK                            x       y       z     vdW  Elec       q    Type
REMARK                         _______ _______ _______ _____ _____    ______ ____
ROOT
ATOM      1  S   UNL     1       9.023  -2.299  24.074  0.00  0.00    +0.000 S 
ATOM      2  O   UNL     1       8.969  -1.678  25.364  0.00  0.00    +0.000 OA
ATOM      3  O   UNL     1      10.258  -2.842  23.601  0.00  0.00    +0.000 OA
ENDROOT
BRANCH   1   4
ATOM      4  C   UNL     1       7.750  -3.548  23.951  0.00  0.00    +0.000 C 
ATOM      5  C   UNL     1       7.595  -4.235  22.763  0.00  0.00    +0.000 C 
ATOM      6  C   UNL     1       6.656  -5.254  22.674  0.00  0.00    +0.000 C 
ATOM      7  C   UNL     1       5.902  -5.563  23.790  0.00  0.00    +0.000 C 
ATOM      8  C   UNL     1       6.067  -4.862  24.985  0.00  0.00    +0.000 C 
ATOM      9  C   UNL     1       6.996  -3.843  25.075  0.00  0.00    +0.000 C 
ATOM     10  C   UNL     1       5.119  -5.369  26.029  0.00  0.00    +0.000 C 
ATOM     11  C   UNL     1       4.661  -6.723  25.462  0.00  0.00    +0.000 C 
ATOM     12  C   UNL     1       4.827  -6.598  23.938  0.00  0.00    +0.000 C 
ENDBRANCH   1   4
BRANCH   1  16
ATOM     13  N   UNL     1       7.851   0.272  20.867  0.00  0.00    +0.000 NA
ATOM     14  C   UNL     1       9.266   0.316  21.186  0.00  0.00    +0.000 C 
ATOM     15  C   UNL     1       9.473  -0.075  22.657  0.00  0.00    +0.000 C 
ATOM     16  N   UNL     1       8.557  -1.138  22.973  0.00  0.00    +0.000 NA
ATOM     17  C   UNL     1       7.161  -0.759  22.973  0.00  0.00    +0.000 C 
ATOM     18  C   UNL     1       6.960   0.410  21.999  0.00  0.00    +0.000 C 
BRANCH  13  20
ATOM     19  O   UNL     1       8.000  -0.122  18.656  0.00  0.00    +0.000 OA
ATOM     20  C   UNL     1       7.320   0.003  19.655  0.00  0.00    +0.000 C 
BRANCH  20  21
ATOM     21  C   UNL     1       5.809  -0.163  19.574  0.00  0.00    +0.000 C 
ATOM     22 CL   UNL     1       5.023   1.315  18.968  0.00  0.00    +0.000 Cl
ENDBRANCH  20  21
ENDBRANCH  13  20
ENDBRANCH   1  16
TORSDOF 4
ENDMDL
MODEL 7
REMARK VINA RESULT:      -6.4      2.436      5.771
REMARK  Name = 
REMARK  4 active torsions:
REMARK  status: ('A' for Active; 'I' for Inactive)
REMARK    1  A    between atoms: C_2  and  C_3
REMARK    2  A    between atoms: C_2  and  N_5
REMARK    3  A    between atoms: N_8  and  S_9
REMARK    4  A    between atoms: S_9  and  C_12
REMARK                            x       y       z     vdW  Elec       q    Type
REMARK                         _______ _______ _______ _____ _____    ______ ____
ROOT
ATOM      1  S   UNL     1       8.923  -2.487  24.432  0.00  0.00    +0.000 S 
ATOM      2  O   UNL     1       8.791  -1.973  25.763  0.00  0.00    +0.000 OA
ATOM      3  O   UNL     1      10.081  -3.249  24.080  0.00  0.00    +0.000 OA
ENDROOT
BRANCH   1   4
ATOM      4  C   UNL     1       7.458  -3.414  23.996  0.00  0.00    +0.000 C 
ATOM      5  C   UNL     1       6.891  -3.228  22.750  0.00  0.00    +0.000 C 
ATOM      6  C   UNL     1       5.793  -3.990  22.372  0.00  0.00    +0.000 C 
ATOM      7  C   UNL     1       5.300  -4.930  23.257  0.00  0.00    +0.000 C 
ATOM      8  C   UNL     1       5.880  -5.109  24.513  0.00  0.00    +0.000 C 
ATOM      9  C   UNL     1       6.969  -4.348  24.894  0.00  0.00    +0.000 C 
ATOM     10  C   UNL     1       5.148  -6.164  25.286  0.00  0.00    +0.000 C 
ATOM     11  C   UNL     1       4.329  -6.889  24.206  0.00  0.00    +0.000 C 
ATOM     12  C   UNL     1       4.129  -5.851  23.088  0.00  0.00    +0.000 C 
ENDBRANCH   1   4
BRANCH   1  16
ATOM     13  N   UNL     1       8.388   0.645  21.574  0.00  0.00    +0.000 NA
ATOM     14  C   UNL     1       9.384  -0.343  21.204  0.00  0.00    +0.000 C 
ATOM     15  C   UNL     1       9.960  -0.992  22.472  0.00  0.00    +0.000 C 
ATOM     16  N   UNL     1       8.886  -1.171  23.412  0.00  0.00    +0.000 NA
ATOM     17  C   UNL     1       8.334   0.056  23.945  0.00  0.00    +0.000 C 
ATOM     18  C   UNL     1       8.516   1.177  22.914  0.00  0.00    +0.000 C 
BRANCH  13  20
ATOM     19  O   UNL     1       6.512   1.836  21.210  0.00  0.00    +0.000 OA
ATOM     20  C   UNL     1       7.318   1.006  20.835  0.00  0.00    +0.000 C 
BRANCH  20  21
ATOM     21  C   UNL     1       7.151   0.344  19.475  0.00  0.00    +0.000 C 
ATOM     22 CL   UNL     1       5.955  -0.974  19.534  0.00  0.00    +0.000 Cl
ENDBRANCH  20  21
ENDBRANCH  13  20
ENDBRANCH   1  16
TORSDOF 4
ENDMDL
MODEL 8
REMARK VINA RESULT:      -6.4      3.461      6.505
REMARK  Name = 
REMARK  4 active torsions:
REMARK  status: ('A' for Active; 'I' for Inactive)
REMARK    1  A    between atoms: C_2  and  C_3
REMARK    2  A    between atoms: C_2  and  N_5
REMARK    3  A    between atoms: N_8  and  S_9
REMARK    4  A    between atoms: S_9  and  C_12
REMARK                            x       y       z     vdW  Elec       q    Type
REMARK                         _______ _______ _______ _____ _____    ______ ____
ROOT
ATOM      1  S   UNL     1       8.981  -4.315  25.496  0.00  0.00    +0.000 S 
ATOM      2  O   UNL     1       9.147  -4.460  26.912  0.00  0.00    +0.000 OA
ATOM      3  O   UNL     1      10.002  -4.784  24.612  0.00  0.00    +0.000 OA
ENDROOT
BRANCH   1   4
ATOM      4  C   UNL     1       7.411  -5.011  24.998  0.00  0.00    +0.000 C 
ATOM      5  C   UNL     1       7.133  -5.146  23.652  0.00  0.00    +0.000 C 
ATOM      6  C   UNL     1       5.947  -5.747  23.251  0.00  0.00    +0.000 C 
ATOM      7  C   UNL     1       5.074  -6.207  24.219  0.00  0.00    +0.000 C 
ATOM      8  C   UNL     1       5.366  -6.065  25.575  0.00  0.00    +0.000 C 
ATOM      9  C   UNL     1       6.542  -5.462  25.978  0.00  0.00    +0.000 C 
ATOM     10  C   UNL     1       4.254  -6.619  26.414  0.00  0.00    +0.000 C 
ATOM     11  C   UNL     1       3.459  -7.483  25.421  0.00  0.00    +0.000 C 
ATOM     12  C   UNL     1       3.741  -6.868  24.039  0.00  0.00    +0.000 C 
ENDBRANCH   1   4
BRANCH   1  16
ATOM     13  N   UNL     1       9.086  -0.089  24.865  0.00  0.00    +0.000 NA
ATOM     14  C   UNL     1       8.647  -0.488  26.190  0.00  0.00    +0.000 C 
ATOM     15  C   UNL     1       8.031  -1.894  26.124  0.00  0.00    +0.000 C 
ATOM     16  N   UNL     1       8.809  -2.683  25.207  0.00  0.00    +0.000 NA
ATOM     17  C   UNL     1       8.722  -2.269  23.823  0.00  0.00    +0.000 C 
ATOM     18  C   UNL     1       8.427  -0.764  23.768  0.00  0.00    +0.000 C 
BRANCH  13  20
ATOM     19  O   UNL     1      11.256   0.508  24.911  0.00  0.00    +0.000 OA
ATOM     20  C   UNL     1      10.109   0.747  24.589  0.00  0.00    +0.000 C 
BRANCH  20  21
ATOM     21  C   UNL     1       9.783   2.024  23.826  0.00  0.00    +0.000 C 
ATOM     22 CL   UNL     1      10.149   1.859  22.091  0.00  0.00    +0.000 Cl
ENDBRANCH  20  21
ENDBRANCH  13  20
ENDBRANCH   1  16
TORSDOF 4
ENDMDL
MODEL 9
REMARK VINA RESULT:      -6.3      2.603      5.530
REMARK  Name = 
REMARK  4 active torsions:
REMARK  status: ('A' for Active; 'I' for Inactive)
REMARK    1  A    between atoms: C_2  and  C_3
REMARK    2  A    between atoms: C_2  and  N_5
REMARK    3  A    between atoms: N_8  and  S_9
REMARK    4  A    between atoms: S_9  and  C_12
REMARK                            x       y       z     vdW  Elec       q    Type
REMARK                         _______ _______ _______ _____ _____    ______ ____
ROOT
ATOM      1  S   UNL     1       9.618  -1.592  23.586  0.00  0.00    +0.000 S 
ATOM      2  O   UNL     1      10.011  -1.095  24.871  0.00  0.00    +0.000 OA
ATOM      3  O   UNL     1      10.617  -2.017  22.655  0.00  0.00    +0.000 OA
ENDROOT
BRANCH   1   4
ATOM      4  C   UNL     1       8.413  -2.898  23.786  0.00  0.00    +0.000 C 
ATOM      5  C   UNL     1       7.985  -3.227  25.057  0.00  0.00    +0.000 C 
ATOM      6  C   UNL     1       7.000  -4.192  25.224  0.00  0.00    +0.000 C 
ATOM      7  C   UNL     1       6.463  -4.795  24.102  0.00  0.00    +0.000 C 
ATOM      8  C   UNL     1       6.903  -4.453  22.823  0.00  0.00    +0.000 C 
ATOM      9  C   UNL     1       7.887  -3.498  22.654  0.00  0.00    +0.000 C 
ATOM     10  C   UNL     1       6.185  -5.262  21.785  0.00  0.00    +0.000 C 
ATOM     11  C   UNL     1       4.975  -5.823  22.550  0.00  0.00    +0.000 C 
ATOM     12  C   UNL     1       5.413  -5.862  24.024  0.00  0.00    +0.000 C 
ENDBRANCH   1   4
BRANCH   1  16
ATOM     13  N   UNL     1       7.338   1.189  21.276  0.00  0.00    +0.000 NA
ATOM     14  C   UNL     1       8.774   1.305  21.109  0.00  0.00    +0.000 C 
ATOM     15  C   UNL     1       9.481   0.788  22.371  0.00  0.00    +0.000 C 
ATOM     16  N   UNL     1       8.765  -0.366  22.847  0.00  0.00    +0.000 NA
ATOM     17  C   UNL     1       7.439  -0.092  23.355  0.00  0.00    +0.000 C 
ATOM     18  C   UNL     1       6.878   1.149  22.647  0.00  0.00    +0.000 C 
BRANCH  13  20
ATOM     19  O   UNL     1       5.560   1.805  20.040  0.00  0.00    +0.000 OA
ATOM     20  C   UNL     1       6.438   1.002  20.287  0.00  0.00    +0.000 C 
BRANCH  20  21
ATOM     21  C   UNL     1       6.568  -0.265  19.453  0.00  0.00    +0.000 C 
ATOM     22 CL   UNL     1       5.927  -1.683  20.318  0.00  0.00    +0.000 Cl
ENDBRANCH  20  21
ENDBRANCH  13  20
ENDBRANCH   1  16
TORSDOF 4
ENDMDL
