
 OpenBabel06082022513D

 34 35  0  0  0  0  0  0  0  0999 V2000
    9.0581    7.7243   10.2937 O   0  0  0  0  0  0  0  0  0  0  0  0
    8.6631    6.6774    9.7370 C   0  0  0  0  0  0  0  0  0  0  0  0
    7.1809    6.3605    9.7224 C   0  0  0  0  0  0  0  0  0  0  0  0
    6.5699    6.1153   11.3601 Cl  0  0  0  0  0  0  0  0  0  0  0  0
    9.5611    5.9003    9.0014 N   0  0  0  0  0  0  0  0  0  0  0  0
    9.3063    4.5880    8.3815 C   0  0  0  0  0  0  0  0  0  0  0  0
    9.5615    4.6031    6.8393 C   0  0  0  0  0  0  0  0  0  0  0  0
    9.6140    5.9652    6.2207 N   0  0  0  0  0  0  0  0  0  0  0  0
    8.2655    6.5275    6.3633 C   0  0  0  0  0  0  0  0  0  0  0  0
    7.8218    7.8738    5.8270 C   0  0  0  0  0  0  0  0  0  0  0  0
    7.8312    8.9744    6.6971 C   0  0  0  0  0  0  0  0  0  0  0  0
    6.7698    9.8825    6.6607 C   0  0  0  0  0  0  0  0  0  0  0  0
    5.7560    9.7210    5.7185 C   0  0  0  0  0  0  0  0  0  0  0  0
    4.3104   10.6456    5.8522 Cl  0  0  0  0  0  0  0  0  0  0  0  0
    5.8606    8.7495    4.7244 C   0  0  0  0  0  0  0  0  0  0  0  0
    6.9206    7.8478    4.7490 C   0  0  0  0  0  0  0  0  0  0  0  0
   10.6794    6.7199    6.9276 C   0  0  0  0  0  0  0  0  0  0  0  0
   10.7615    6.5536    8.4769 C   0  0  0  0  0  0  0  0  0  0  0  0
    6.9072    5.4989    9.1176 H   0  0  0  0  0  0  0  0  0  0  0  0
    6.6644    7.2239    9.2852 H   0  0  0  0  0  0  0  0  0  0  0  0
    8.2998    4.2299    8.5959 H   0  0  0  0  0  0  0  0  0  0  0  0
   10.0012    3.8813    8.8484 H   0  0  0  0  0  0  0  0  0  0  0  0
    8.8007    3.9839    6.3432 H   0  0  0  0  0  0  0  0  0  0  0  0
   10.5117    4.0937    6.6311 H   0  0  0  0  0  0  0  0  0  0  0  0
    7.9585    6.5706    7.3968 H   0  0  0  0  0  0  0  0  0  0  0  0
    7.5721    5.7999    5.9356 H   0  0  0  0  0  0  0  0  0  0  0  0
    8.5400    9.0314    7.5212 H   0  0  0  0  0  0  0  0  0  0  0  0
    6.6883   10.6436    7.4331 H   0  0  0  0  0  0  0  0  0  0  0  0
    5.0681    8.6218    3.9922 H   0  0  0  0  0  0  0  0  0  0  0  0
    6.9281    7.0149    4.0489 H   0  0  0  0  0  0  0  0  0  0  0  0
   10.6529    7.7763    6.6531 H   0  0  0  0  0  0  0  0  0  0  0  0
   11.6390    6.3609    6.5245 H   0  0  0  0  0  0  0  0  0  0  0  0
   11.6135    5.9159    8.7441 H   0  0  0  0  0  0  0  0  0  0  0  0
   10.9272    7.5345    8.9324 H   0  0  0  0  0  0  0  0  0  0  0  0
  1  2  2  0  0  0  0
  2  3  1  0  0  0  0
  2  5  1  0  0  0  0
  3  4  1  0  0  0  0
  3 19  1  0  0  0  0
  3 20  1  0  0  0  0
  5  6  1  0  0  0  0
  5 18  1  0  0  0  0
  6  7  1  0  0  0  0
  6 21  1  0  0  0  0
  6 22  1  0  0  0  0
  7  8  1  0  0  0  0
  7 23  1  0  0  0  0
  7 24  1  0  0  0  0
  8  9  1  0  0  0  0
  8 17  1  0  0  0  0
  9 10  1  0  0  0  0
  9 25  1  0  0  0  0
  9 26  1  0  0  0  0
 10 11  1  0  0  0  0
 10 16  2  0  0  0  0
 11 12  2  0  0  0  0
 11 27  1  0  0  0  0
 12 13  1  0  0  0  0
 12 28  1  0  0  0  0
 13 14  1  0  0  0  0
 13 15  2  0  0  0  0
 15 16  1  0  0  0  0
 15 29  1  0  0  0  0
 16 30  1  0  0  0  0
 17 18  1  0  0  0  0
 17 31  1  0  0  0  0
 17 32  1  0  0  0  0
 18 33  1  0  0  0  0
 18 34  1  0  0  0  0
M  END
>  <name>


>  <Energy>
129.654

$$$$
