
  xtb     06082023233D
xtb: 6.2.3 (830e466)
 40 42  0     0  0            999 V2000
    6.9678   11.7564   11.1897 O   0  0  0  0  0  0  0  0  0  0  0  0
    6.4884   10.6407   11.1499 C   0  0  0  0  0  0  0  0  0  0  0  0
    6.5071    9.7559   12.3826 C   0  0  0  0  0  0  0  0  0  0  0  0
    4.8777    9.2276   12.8505 Cl  0  0  0  0  0  0  0  0  0  0  0  0
    5.8852   10.1575   10.0392 N   0  0  0  0  0  0  0  0  0  0  0  0
    5.4529    8.7904    9.8228 C   0  0  0  0  0  0  0  0  0  0  0  0
    5.8316    8.3513    8.3956 C   0  0  0  0  0  0  0  0  0  0  0  0
    7.0961    8.9326    7.9968 N   0  0  0  0  0  0  0  0  0  0  0  0
    8.3951    8.3029    8.8819 S   0  0  0  0  0  0  0  0  0  0  0  0
    8.2413    6.8789    8.8401 O   0  0  0  0  0  0  0  0  0  0  0  0
    8.5237    8.9135   10.1785 O   0  0  0  0  0  0  0  0  0  0  0  0
    9.7562    8.8157    7.8479 C   0  0  0  0  0  0  0  0  0  0  0  0
   10.6665    9.7648    8.3281 C   0  0  0  0  0  0  0  0  0  0  0  0
   11.6891   10.1794    7.5209 C   0  0  0  0  0  0  0  0  0  0  0  0
   11.8321    9.6610    6.2149 C   0  0  0  0  0  0  0  0  0  0  0  0
   10.9032    8.6923    5.7431 C   0  0  0  0  0  0  0  0  0  0  0  0
    9.8577    8.2830    6.5969 C   0  0  0  0  0  0  0  0  0  0  0  0
   11.0530    8.1761    4.4384 C   0  0  0  0  0  0  0  0  0  0  0  0
   12.0743    8.6002    3.6352 C   0  0  0  0  0  0  0  0  0  0  0  0
   12.9915    9.5573    4.0991 C   0  0  0  0  0  0  0  0  0  0  0  0
   12.8745   10.0751    5.3587 C   0  0  0  0  0  0  0  0  0  0  0  0
    7.0693   10.3845    7.9356 C   0  0  0  0  0  0  0  0  0  0  0  0
    5.9608   10.9529    8.8330 C   0  0  0  0  0  0  0  0  0  0  0  0
    6.9132   10.3381   13.2099 H   0  0  0  0  0  0  0  0  0  0  0  0
    7.1276    8.8762   12.2064 H   0  0  0  0  0  0  0  0  0  0  0  0
    4.3686    8.7111    9.9717 H   0  0  0  0  0  0  0  0  0  0  0  0
    5.9537    8.1291   10.5292 H   0  0  0  0  0  0  0  0  0  0  0  0
    5.0752    8.6475    7.6646 H   0  0  0  0  0  0  0  0  0  0  0  0
    5.9552    7.2689    8.3607 H   0  0  0  0  0  0  0  0  0  0  0  0
   10.5336   10.1389    9.3312 H   0  0  0  0  0  0  0  0  0  0  0  0
   12.4021   10.9110    7.8713 H   0  0  0  0  0  0  0  0  0  0  0  0
    9.1378    7.5474    6.2738 H   0  0  0  0  0  0  0  0  0  0  0  0
   10.3444    7.4394    4.0900 H   0  0  0  0  0  0  0  0  0  0  0  0
   12.1844    8.2026    2.6373 H   0  0  0  0  0  0  0  0  0  0  0  0
   13.7920    9.8803    3.4502 H   0  0  0  0  0  0  0  0  0  0  0  0
   13.5792   10.8105    5.7188 H   0  0  0  0  0  0  0  0  0  0  0  0
    6.9211   10.6933    6.8943 H   0  0  0  0  0  0  0  0  0  0  0  0
    8.0415   10.7475    8.2741 H   0  0  0  0  0  0  0  0  0  0  0  0
    6.1897   11.9801    9.1195 H   0  0  0  0  0  0  0  0  0  0  0  0
    4.9914   10.9210    8.3281 H   0  0  0  0  0  0  0  0  0  0  0  0
  1  2  1  0  0  0  0
  2  3  1  0  0  0  0
  2  5  1  0  0  0  0
  3  4  1  0  0  0  0
  3 24  1  0  0  0  0
  3 25  1  0  0  0  0
  5  6  1  0  0  0  0
  5 23  1  0  0  0  0
  6  7  1  0  0  0  0
  6 26  1  0  0  0  0
  6 27  1  0  0  0  0
  7  8  1  0  0  0  0
  7 28  1  0  0  0  0
  7 29  1  0  0  0  0
  8  9  1  0  0  0  0
  8 22  1  0  0  0  0
  9 10  1  0  0  0  0
  9 11  1  0  0  0  0
  9 12  1  0  0  0  0
 12 13  1  0  0  0  0
 12 17  1  0  0  0  0
 13 14  1  0  0  0  0
 13 30  1  0  0  0  0
 14 15  1  0  0  0  0
 14 31  1  0  0  0  0
 15 16  1  0  0  0  0
 15 21  1  0  0  0  0
 16 17  1  0  0  0  0
 16 18  1  0  0  0  0
 17 32  1  0  0  0  0
 18 19  1  0  0  0  0
 18 33  1  0  0  0  0
 19 20  1  0  0  0  0
 19 34  1  0  0  0  0
 20 21  1  0  0  0  0
 20 35  1  0  0  0  0
 21 36  1  0  0  0  0
 22 23  1  0  0  0  0
 22 37  1  0  0  0  0
 22 38  1  0  0  0  0
 23 39  1  0  0  0  0
 23 40  1  0  0  0  0
M  END
>  <name>


>  <Energy>
78.2349

> <total energy / Eh>
    -68.799691232408

> <gradient norm / Eh/a0>
      0.000635058707

$$$$
