MODEL 1
REMARK VINA RESULT:      -6.5      0.000      0.000
REMARK  Name = 
REMARK  3 active torsions:
REMARK  status: ('A' for Active; 'I' for Inactive)
REMARK    1  A    between atoms: C_2  and  C_3
REMARK    2  A    between atoms: N_8  and  S_9
REMARK    3  A    between atoms: S_9  and  C_12
REMARK                            x       y       z     vdW  Elec       q    Type
REMARK                         _______ _______ _______ _____ _____    ______ ____
ROOT
ATOM      1  O   UNL     1       9.165   0.865  21.223  0.00  0.00    +0.000 OA
ATOM      2  C   UNL     1       8.314   0.039  21.562  0.00  0.00    +0.000 C 
ATOM      3  N   UNL     1       8.433  -0.682  22.741  0.00  0.00    +0.000 N 
ATOM      4  C   UNL     1       9.780  -0.909  23.269  0.00  0.00    +0.000 C 
ATOM      5  C   UNL     1       9.940  -2.381  23.681  0.00  0.00    +0.000 C 
ATOM      6  N   UNL     1       8.971  -2.723  24.748  0.00  0.00    +0.000 NA
ATOM      7  C   UNL     1       7.745  -1.890  24.829  0.00  0.00    +0.000 C 
ATOM      8  C   UNL     1       7.338  -1.384  23.428  0.00  0.00    +0.000 C 
ENDROOT
BRANCH   6   9
ATOM      9  S   UNL     1       9.005  -4.258  25.434  0.00  0.00    +0.000 S 
ATOM     10  O   UNL     1       8.722  -4.080  26.846  0.00  0.00    +0.000 OA
ATOM     11  O   UNL     1      10.186  -4.953  24.979  0.00  0.00    +0.000 OA
BRANCH   9  12
ATOM     12  C   UNL     1       7.594  -5.065  24.716  0.00  0.00    +0.000 A 
ATOM     13  C   UNL     1       7.531  -5.269  23.335  0.00  0.00    +0.000 A 
ATOM     14  C   UNL     1       6.350  -5.753  22.770  0.00  0.00    +0.000 A 
ATOM     15  C   UNL     1       5.252  -6.044  23.583  0.00  0.00    +0.000 A 
ATOM     16  C   UNL     1       5.334  -5.874  24.966  0.00  0.00    +0.000 A 
ATOM     17  C   UNL     1       6.504  -5.381  25.537  0.00  0.00    +0.000 A 
ENDBRANCH   9  12
ENDBRANCH   6   9
BRANCH   2  18
ATOM     18  C   UNL     1       7.145  -0.275  20.652  0.00  0.00    +0.000 C 
ATOM     19 CL   UNL     1       7.585   0.195  18.987  0.00  0.00    +0.000 Cl
ENDBRANCH   2  18
TORSDOF 3
ENDMDL
MODEL 2
REMARK VINA RESULT:      -6.2      2.033      2.635
REMARK  Name = 
REMARK  3 active torsions:
REMARK  status: ('A' for Active; 'I' for Inactive)
REMARK    1  A    between atoms: C_2  and  C_3
REMARK    2  A    between atoms: N_8  and  S_9
REMARK    3  A    between atoms: S_9  and  C_12
REMARK                            x       y       z     vdW  Elec       q    Type
REMARK                         _______ _______ _______ _____ _____    ______ ____
ROOT
ATOM      1  O   UNL     1       7.737   1.190  21.065  0.00  0.00    +0.000 OA
ATOM      2  C   UNL     1       7.280   0.152  20.579  0.00  0.00    +0.000 C 
ATOM      3  N   UNL     1       7.007  -0.957  21.365  0.00  0.00    +0.000 N 
ATOM      4  C   UNL     1       7.774  -1.123  22.602  0.00  0.00    +0.000 C 
ATOM      5  C   UNL     1       8.271  -2.572  22.720  0.00  0.00    +0.000 C 
ATOM      6  N   UNL     1       7.122  -3.505  22.770  0.00  0.00    +0.000 NA
ATOM      7  C   UNL     1       5.850  -3.032  22.169  0.00  0.00    +0.000 C 
ATOM      8  C   UNL     1       6.129  -2.076  20.989  0.00  0.00    +0.000 C 
ENDROOT
BRANCH   6   9
ATOM      9  S   UNL     1       7.401  -5.149  22.988  0.00  0.00    +0.000 S 
ATOM     10  O   UNL     1       8.637  -5.256  23.742  0.00  0.00    +0.000 OA
ATOM     11  O   UNL     1       7.220  -5.830  21.728  0.00  0.00    +0.000 OA
BRANCH   9  12
ATOM     12  C   UNL     1       6.085  -5.655  24.069  0.00  0.00    +0.000 A 
ATOM     13  C   UNL     1       6.172  -5.410  25.442  0.00  0.00    +0.000 A 
ATOM     14  C   UNL     1       5.212  -5.956  26.295  0.00  0.00    +0.000 A 
ATOM     15  C   UNL     1       4.168  -6.724  25.774  0.00  0.00    +0.000 A 
ATOM     16  C   UNL     1       4.064  -6.933  24.399  0.00  0.00    +0.000 A 
ATOM     17  C   UNL     1       5.024  -6.402  23.542  0.00  0.00    +0.000 A 
ENDBRANCH   9  12
ENDBRANCH   6   9
BRANCH   2  18
ATOM     18  C   UNL     1       7.079   0.031  19.082  0.00  0.00    +0.000 C 
ATOM     19 CL   UNL     1       5.502   0.757  18.666  0.00  0.00    +0.000 Cl
ENDBRANCH   2  18
TORSDOF 3
ENDMDL
MODEL 3
REMARK VINA RESULT:      -6.1      2.627      6.158
REMARK  Name = 
REMARK  3 active torsions:
REMARK  status: ('A' for Active; 'I' for Inactive)
REMARK    1  A    between atoms: C_2  and  C_3
REMARK    2  A    between atoms: N_8  and  S_9
REMARK    3  A    between atoms: S_9  and  C_12
REMARK                            x       y       z     vdW  Elec       q    Type
REMARK                         _______ _______ _______ _____ _____    ______ ____
ROOT
ATOM      1  O   UNL     1       6.558  -4.262  25.020  0.00  0.00    +0.000 OA
ATOM      2  C   UNL     1       7.237  -3.956  24.037  0.00  0.00    +0.000 C 
ATOM      3  N   UNL     1       7.773  -2.685  23.894  0.00  0.00    +0.000 N 
ATOM      4  C   UNL     1       7.083  -1.575  24.555  0.00  0.00    +0.000 C 
ATOM      5  C   UNL     1       6.940  -0.393  23.584  0.00  0.00    +0.000 C 
ATOM      6  N   UNL     1       8.275   0.089  23.163  0.00  0.00    +0.000 NA
ATOM      7  C   UNL     1       9.393  -0.884  23.244  0.00  0.00    +0.000 C 
ATOM      8  C   UNL     1       8.882  -2.320  22.999  0.00  0.00    +0.000 C 
ENDROOT
BRANCH   6   9
ATOM      9  S   UNL     1       8.390   1.438  22.164  0.00  0.00    +0.000 S 
ATOM     10  O   UNL     1       9.759   1.474  21.685  0.00  0.00    +0.000 OA
ATOM     11  O   UNL     1       7.790   2.570  22.829  0.00  0.00    +0.000 OA
BRANCH   9  12
ATOM     12  C   UNL     1       7.361   1.017  20.778  0.00  0.00    +0.000 A 
ATOM     13  C   UNL     1       7.810   0.099  19.826  0.00  0.00    +0.000 A 
ATOM     14  C   UNL     1       7.065  -0.097  18.662  0.00  0.00    +0.000 A 
ATOM     15  C   UNL     1       5.875   0.609  18.465  0.00  0.00    +0.000 A 
ATOM     16  C   UNL     1       5.412   1.496  19.437  0.00  0.00    +0.000 A 
ATOM     17  C   UNL     1       6.155   1.706  20.595  0.00  0.00    +0.000 A 
ENDBRANCH   9  12
ENDBRANCH   6   9
BRANCH   2  18
ATOM     18  C   UNL     1       7.440  -4.945  22.908  0.00  0.00    +0.000 C 
ATOM     19 CL   UNL     1       6.267  -4.572  21.615  0.00  0.00    +0.000 Cl
ENDBRANCH   2  18
TORSDOF 3
ENDMDL
MODEL 4
REMARK VINA RESULT:      -6.0      1.874      2.331
REMARK  Name = 
REMARK  3 active torsions:
REMARK  status: ('A' for Active; 'I' for Inactive)
REMARK    1  A    between atoms: C_2  and  C_3
REMARK    2  A    between atoms: N_8  and  S_9
REMARK    3  A    between atoms: S_9  and  C_12
REMARK                            x       y       z     vdW  Elec       q    Type
REMARK                         _______ _______ _______ _____ _____    ______ ____
ROOT
ATOM      1  O   UNL     1       8.069   2.028  21.448  0.00  0.00    +0.000 OA
ATOM      2  C   UNL     1       8.892   1.599  22.261  0.00  0.00    +0.000 C 
ATOM      3  N   UNL     1       9.049   0.240  22.485  0.00  0.00    +0.000 N 
ATOM      4  C   UNL     1       7.899  -0.632  22.230  0.00  0.00    +0.000 C 
ATOM      5  C   UNL     1       7.716  -1.612  23.399  0.00  0.00    +0.000 C 
ATOM      6  N   UNL     1       8.913  -2.471  23.541  0.00  0.00    +0.000 NA
ATOM      7  C   UNL     1      10.188  -1.934  23.004  0.00  0.00    +0.000 C 
ATOM      8  C   UNL     1      10.218  -0.395  23.114  0.00  0.00    +0.000 C 
ENDROOT
BRANCH   6   9
ATOM      9  S   UNL     1       8.923  -3.691  24.698  0.00  0.00    +0.000 S 
ATOM     10  O   UNL     1       8.538  -3.067  25.951  0.00  0.00    +0.000 OA
ATOM     11  O   UNL     1      10.145  -4.450  24.574  0.00  0.00    +0.000 OA
BRANCH   9  12
ATOM     12  C   UNL     1       7.580  -4.744  24.204  0.00  0.00    +0.000 A 
ATOM     13  C   UNL     1       7.505  -5.214  22.890  0.00  0.00    +0.000 A 
ATOM     14  C   UNL     1       6.364  -5.902  22.475  0.00  0.00    +0.000 A 
ATOM     15  C   UNL     1       5.318  -6.129  23.373  0.00  0.00    +0.000 A 
ATOM     16  C   UNL     1       5.414  -5.691  24.694  0.00  0.00    +0.000 A 
ATOM     17  C   UNL     1       6.544  -4.994  25.113  0.00  0.00    +0.000 A 
ENDBRANCH   9  12
ENDBRANCH   6   9
BRANCH   2  18
ATOM     18  C   UNL     1       9.705   2.558  23.107  0.00  0.00    +0.000 C 
ATOM     19 CL   UNL     1       8.876   2.769  24.673  0.00  0.00    +0.000 Cl
ENDBRANCH   2  18
TORSDOF 3
ENDMDL
MODEL 5
REMARK VINA RESULT:      -5.9      1.457      2.164
REMARK  Name = 
REMARK  3 active torsions:
REMARK  status: ('A' for Active; 'I' for Inactive)
REMARK    1  A    between atoms: C_2  and  C_3
REMARK    2  A    between atoms: N_8  and  S_9
REMARK    3  A    between atoms: S_9  and  C_12
REMARK                            x       y       z     vdW  Elec       q    Type
REMARK                         _______ _______ _______ _____ _____    ______ ____
ROOT
ATOM      1  O   UNL     1       9.462   1.511  22.832  0.00  0.00    +0.000 OA
ATOM      2  C   UNL     1       8.558   0.713  22.570  0.00  0.00    +0.000 C 
ATOM      3  N   UNL     1       8.376  -0.445  23.312  0.00  0.00    +0.000 N 
ATOM      4  C   UNL     1       9.545  -1.013  23.988  0.00  0.00    +0.000 C 
ATOM      5  C   UNL     1       9.604  -2.530  23.746  0.00  0.00    +0.000 C 
ATOM      6  N   UNL     1       8.398  -3.185  24.299  0.00  0.00    +0.000 NA
ATOM      7  C   UNL     1       7.186  -2.340  24.445  0.00  0.00    +0.000 C 
ATOM      8  C   UNL     1       7.147  -1.252  23.350  0.00  0.00    +0.000 C 
ENDROOT
BRANCH   6   9
ATOM      9  S   UNL     1       8.265  -4.860  24.238  0.00  0.00    +0.000 S 
ATOM     10  O   UNL     1       9.556  -5.386  24.642  0.00  0.00    +0.000 OA
ATOM     11  O   UNL     1       7.649  -5.240  22.989  0.00  0.00    +0.000 OA
BRANCH   9  12
ATOM     12  C   UNL     1       7.117  -5.234  25.542  0.00  0.00    +0.000 A 
ATOM     13  C   UNL     1       7.526  -5.164  26.876  0.00  0.00    +0.000 A 
ATOM     14  C   UNL     1       6.666  -5.617  27.878  0.00  0.00    +0.000 A 
ATOM     15  C   UNL     1       5.405  -6.118  27.545  0.00  0.00    +0.000 A 
ATOM     16  C   UNL     1       4.988  -6.150  26.214  0.00  0.00    +0.000 A 
ATOM     17  C   UNL     1       5.844  -5.711  25.208  0.00  0.00    +0.000 A 
ENDBRANCH   9  12
ENDBRANCH   6   9
BRANCH   2  18
ATOM     18  C   UNL     1       7.663   0.936  21.369  0.00  0.00    +0.000 C 
ATOM     19 CL   UNL     1       8.262  -0.073  20.024  0.00  0.00    +0.000 Cl
ENDBRANCH   2  18
TORSDOF 3
ENDMDL
MODEL 6
REMARK VINA RESULT:      -5.9      3.087      5.891
REMARK  Name = 
REMARK  3 active torsions:
REMARK  status: ('A' for Active; 'I' for Inactive)
REMARK    1  A    between atoms: C_2  and  C_3
REMARK    2  A    between atoms: N_8  and  S_9
REMARK    3  A    between atoms: S_9  and  C_12
REMARK                            x       y       z     vdW  Elec       q    Type
REMARK                         _______ _______ _______ _____ _____    ______ ____
ROOT
ATOM      1  O   UNL     1       6.276  -6.231  26.269  0.00  0.00    +0.000 OA
ATOM      2  C   UNL     1       6.009  -5.156  25.726  0.00  0.00    +0.000 C 
ATOM      3  N   UNL     1       6.888  -4.555  24.838  0.00  0.00    +0.000 N 
ATOM      4  C   UNL     1       8.316  -4.850  24.985  0.00  0.00    +0.000 C 
ATOM      5  C   UNL     1       9.131  -3.549  24.912  0.00  0.00    +0.000 C 
ATOM      6  N   UNL     1       8.936  -2.896  23.597  0.00  0.00    +0.000 NA
ATOM      7  C   UNL     1       7.684  -3.221  22.868  0.00  0.00    +0.000 C 
ATOM      8  C   UNL     1       6.538  -3.512  23.861  0.00  0.00    +0.000 C 
ENDROOT
BRANCH   6   9
ATOM      9  S   UNL     1       9.794  -1.496  23.235  0.00  0.00    +0.000 S 
ATOM     10  O   UNL     1      10.824  -1.882  22.289  0.00  0.00    +0.000 OA
ATOM     11  O   UNL     1      10.112  -0.807  24.462  0.00  0.00    +0.000 OA
BRANCH   9  12
ATOM     12  C   UNL     1       8.615  -0.505  22.348  0.00  0.00    +0.000 A 
ATOM     13  C   UNL     1       8.666  -0.435  20.954  0.00  0.00    +0.000 A 
ATOM     14  C   UNL     1       7.843   0.472  20.285  0.00  0.00    +0.000 A 
ATOM     15  C   UNL     1       6.967   1.287  21.006  0.00  0.00    +0.000 A 
ATOM     16  C   UNL     1       6.893   1.186  22.396  0.00  0.00    +0.000 A 
ATOM     17  C   UNL     1       7.719   0.292  23.072  0.00  0.00    +0.000 A 
ENDBRANCH   9  12
ENDBRANCH   6   9
BRANCH   2  18
ATOM     18  C   UNL     1       4.735  -4.416  26.077  0.00  0.00    +0.000 C 
ATOM     19 CL   UNL     1       5.114  -3.212  27.339  0.00  0.00    +0.000 Cl
ENDBRANCH   2  18
TORSDOF 3
ENDMDL
MODEL 7
REMARK VINA RESULT:      -5.8      3.474      6.512
REMARK  Name = 
REMARK  3 active torsions:
REMARK  status: ('A' for Active; 'I' for Inactive)
REMARK    1  A    between atoms: C_2  and  C_3
REMARK    2  A    between atoms: N_8  and  S_9
REMARK    3  A    between atoms: S_9  and  C_12
REMARK                            x       y       z     vdW  Elec       q    Type
REMARK                         _______ _______ _______ _____ _____    ______ ____
ROOT
ATOM      1  O   UNL     1       7.558  -2.979  26.853  0.00  0.00    +0.000 OA
ATOM      2  C   UNL     1       8.217  -2.736  25.839  0.00  0.00    +0.000 C 
ATOM      3  N   UNL     1       8.739  -1.474  25.600  0.00  0.00    +0.000 N 
ATOM      4  C   UNL     1       8.051  -0.326  26.196  0.00  0.00    +0.000 C 
ATOM      5  C   UNL     1       7.880   0.786  25.149  0.00  0.00    +0.000 C 
ATOM      6  N   UNL     1       9.203   1.248  24.672  0.00  0.00    +0.000 NA
ATOM      7  C   UNL     1      10.331   0.291  24.799  0.00  0.00    +0.000 C 
ATOM      8  C   UNL     1       9.828  -1.162  24.662  0.00  0.00    +0.000 C 
ENDROOT
BRANCH   6   9
ATOM      9  S   UNL     1       9.289   2.526  23.582  0.00  0.00    +0.000 S 
ATOM     10  O   UNL     1      10.683   2.641  23.198  0.00  0.00    +0.000 OA
ATOM     11  O   UNL     1       8.553   3.649  24.113  0.00  0.00    +0.000 OA
BRANCH   9  12
ATOM     12  C   UNL     1       8.404   1.922  22.164  0.00  0.00    +0.000 A 
ATOM     13  C   UNL     1       7.141   2.434  21.856  0.00  0.00    +0.000 A 
ATOM     14  C   UNL     1       6.392   1.837  20.841  0.00  0.00    +0.000 A 
ATOM     15  C   UNL     1       6.912   0.751  20.133  0.00  0.00    +0.000 A 
ATOM     16  C   UNL     1       8.189   0.268  20.419  0.00  0.00    +0.000 A 
ATOM     17  C   UNL     1       8.939   0.850  21.438  0.00  0.00    +0.000 A 
ENDBRANCH   9  12
ENDBRANCH   6   9
BRANCH   2  18
ATOM     18  C   UNL     1       8.409  -3.799  24.777  0.00  0.00    +0.000 C 
ATOM     19 CL   UNL     1       9.727  -4.884  25.297  0.00  0.00    +0.000 Cl
ENDBRANCH   2  18
TORSDOF 3
ENDMDL
MODEL 8
REMARK VINA RESULT:      -5.7      2.688      3.305
REMARK  Name = 
REMARK  3 active torsions:
REMARK  status: ('A' for Active; 'I' for Inactive)
REMARK    1  A    between atoms: C_2  and  C_3
REMARK    2  A    between atoms: N_8  and  S_9
REMARK    3  A    between atoms: S_9  and  C_12
REMARK                            x       y       z     vdW  Elec       q    Type
REMARK                         _______ _______ _______ _____ _____    ______ ____
ROOT
ATOM      1  O   UNL     1       5.662   1.926  20.041  0.00  0.00    +0.000 OA
ATOM      2  C   UNL     1       6.269   0.858  19.932  0.00  0.00    +0.000 C 
ATOM      3  N   UNL     1       6.732   0.170  21.043  0.00  0.00    +0.000 N 
ATOM      4  C   UNL     1       7.031   0.946  22.250  0.00  0.00    +0.000 C 
ATOM      5  C   UNL     1       8.389   0.517  22.826  0.00  0.00    +0.000 C 
ATOM      6  N   UNL     1       8.357  -0.915  23.203  0.00  0.00    +0.000 NA
ATOM      7  C   UNL     1       7.361  -1.767  22.507  0.00  0.00    +0.000 C 
ATOM      8  C   UNL     1       7.111  -1.251  21.073  0.00  0.00    +0.000 C 
ENDROOT
BRANCH   6   9
ATOM      9  S   UNL     1       9.701  -1.605  23.942  0.00  0.00    +0.000 S 
ATOM     10  O   UNL     1      10.201  -0.619  24.882  0.00  0.00    +0.000 OA
ATOM     11  O   UNL     1      10.550  -2.185  22.928  0.00  0.00    +0.000 OA
BRANCH   9  12
ATOM     12  C   UNL     1       9.013  -2.936  24.896  0.00  0.00    +0.000 A 
ATOM     13  C   UNL     1       8.150  -2.662  25.960  0.00  0.00    +0.000 A 
ATOM     14  C   UNL     1       7.749  -3.702  26.800  0.00  0.00    +0.000 A 
ATOM     15  C   UNL     1       8.196  -5.005  26.563  0.00  0.00    +0.000 A 
ATOM     16  C   UNL     1       9.026  -5.279  25.476  0.00  0.00    +0.000 A 
ATOM     17  C   UNL     1       9.440  -4.245  24.641  0.00  0.00    +0.000 A 
ENDBRANCH   9  12
ENDBRANCH   6   9
BRANCH   2  18
ATOM     18  C   UNL     1       6.599   0.301  18.562  0.00  0.00    +0.000 C 
ATOM     19 CL   UNL     1       6.152   1.520  17.336  0.00  0.00    +0.000 Cl
ENDBRANCH   2  18
TORSDOF 3
ENDMDL
MODEL 9
REMARK VINA RESULT:      -5.7      2.479      3.003
REMARK  Name = 
REMARK  3 active torsions:
REMARK  status: ('A' for Active; 'I' for Inactive)
REMARK    1  A    between atoms: C_2  and  C_3
REMARK    2  A    between atoms: N_8  and  S_9
REMARK    3  A    between atoms: S_9  and  C_12
REMARK                            x       y       z     vdW  Elec       q    Type
REMARK                         _______ _______ _______ _____ _____    ______ ____
ROOT
ATOM      1  O   UNL     1      10.627   0.031  23.874  0.00  0.00    +0.000 OA
ATOM      2  C   UNL     1       9.712  -0.160  23.069  0.00  0.00    +0.000 C 
ATOM      3  N   UNL     1       8.725  -1.105  23.304  0.00  0.00    +0.000 N 
ATOM      4  C   UNL     1       9.061  -2.245  24.160  0.00  0.00    +0.000 C 
ATOM      5  C   UNL     1       8.570  -3.549  23.512  0.00  0.00    +0.000 C 
ATOM      6  N   UNL     1       7.098  -3.520  23.353  0.00  0.00    +0.000 NA
ATOM      7  C   UNL     1       6.459  -2.182  23.287  0.00  0.00    +0.000 C 
ATOM      8  C   UNL     1       7.414  -1.156  22.638  0.00  0.00    +0.000 C 
ENDROOT
BRANCH   6   9
ATOM      9  S   UNL     1       6.305  -4.873  22.746  0.00  0.00    +0.000 S 
ATOM     10  O   UNL     1       7.329  -5.715  22.155  0.00  0.00    +0.000 OA
ATOM     11  O   UNL     1       5.149  -4.445  21.995  0.00  0.00    +0.000 OA
BRANCH   9  12
ATOM     12  C   UNL     1       5.723  -5.704  24.205  0.00  0.00    +0.000 A 
ATOM     13  C   UNL     1       4.652  -6.597  24.123  0.00  0.00    +0.000 A 
ATOM     14  C   UNL     1       4.103  -7.114  25.296  0.00  0.00    +0.000 A 
ATOM     15  C   UNL     1       4.633  -6.752  26.537  0.00  0.00    +0.000 A 
ATOM     16  C   UNL     1       5.727  -5.889  26.611  0.00  0.00    +0.000 A 
ATOM     17  C   UNL     1       6.274  -5.359  25.446  0.00  0.00    +0.000 A 
ENDBRANCH   9  12
ENDBRANCH   6   9
BRANCH   2  18
ATOM     18  C   UNL     1       9.686   0.583  21.749  0.00  0.00    +0.000 C 
ATOM     19 CL   UNL     1       8.815   2.123  21.987  0.00  0.00    +0.000 Cl
ENDBRANCH   2  18
TORSDOF 3
ENDMDL
