MODEL 1
REMARK VINA RESULT:      -6.5      0.000      0.000
REMARK  Name = 
REMARK  3 active torsions:
REMARK  status: ('A' for Active; 'I' for Inactive)
REMARK    1  A    between atoms: C_2  and  C_3
REMARK    2  A    between atoms: C_2  and  N_5
REMARK    3  A    between atoms: C_8  and  C_9
REMARK                            x       y       z     vdW  Elec       q    Type
REMARK                         _______ _______ _______ _____ _____    ______ ____
ROOT
ATOM      1  N   UNL     1       7.788  -4.540  26.344  0.00  0.00    +0.000 NA
ATOM      2  C   UNL     1       8.047  -3.128  26.505  0.00  0.00    +0.000 C 
ATOM      3  C   UNL     1       7.472  -2.345  25.322  0.00  0.00    +0.000 C 
ATOM      4  C   UNL     1       7.947  -2.869  23.962  0.00  0.00    +0.000 C 
ATOM      5  C   UNL     1       7.805  -4.395  23.909  0.00  0.00    +0.000 C 
ATOM      6  C   UNL     1       8.392  -5.080  25.142  0.00  0.00    +0.000 C 
ENDROOT
BRANCH   4   7
ATOM      7  C   UNL     1       9.360  -2.396  23.564  0.00  0.00    +0.000 C 
ATOM      8  N   UNL     1       9.937  -1.414  24.443  0.00  0.00    +0.000 NA
ATOM      9  C   UNL     1      10.092  -0.154  23.876  0.00  0.00    +0.000 C 
ATOM     10  C   UNL     1      10.527   0.974  24.548  0.00  0.00    +0.000 C 
ATOM     11  C   UNL     1      10.596   2.181  23.867  0.00  0.00    +0.000 C 
ATOM     12  C   UNL     1      10.232   2.264  22.535  0.00  0.00    +0.000 C 
ATOM     13  C   UNL     1       9.799   1.137  21.850  0.00  0.00    +0.000 C 
ATOM     14  C   UNL     1       9.735  -0.061  22.529  0.00  0.00    +0.000 C 
ATOM     15  S   UNL     1       9.272  -1.628  21.873  0.00  0.00    +0.000 S 
ATOM     16  H   UNL     1      10.701  -1.733  25.021  0.00  0.00    +0.000 HD
ENDBRANCH   4   7
BRANCH   1  18
ATOM     17  O   UNL     1       7.399  -6.036  27.977  0.00  0.00    +0.000 OA
ATOM     18  C   UNL     1       6.983  -5.325  27.081  0.00  0.00    +0.000 C 
BRANCH  18  19
ATOM     19  C   UNL     1       5.486  -5.273  26.794  0.00  0.00    +0.000 C 
ATOM     20 CL   UNL     1       5.037  -6.449  25.530  0.00  0.00    +0.000 Cl
ENDBRANCH  18  19
ENDBRANCH   1  18
TORSDOF 3
ENDMDL
MODEL 2
REMARK VINA RESULT:      -6.2      4.026      6.697
REMARK  Name = 
REMARK  3 active torsions:
REMARK  status: ('A' for Active; 'I' for Inactive)
REMARK    1  A    between atoms: C_2  and  C_3
REMARK    2  A    between atoms: C_2  and  N_5
REMARK    3  A    between atoms: C_8  and  C_9
REMARK                            x       y       z     vdW  Elec       q    Type
REMARK                         _______ _______ _______ _____ _____    ______ ____
ROOT
ATOM      1  N   UNL     1       8.230  -0.967  21.874  0.00  0.00    +0.000 NA
ATOM      2  C   UNL     1       7.138  -1.314  22.752  0.00  0.00    +0.000 C 
ATOM      3  C   UNL     1       7.531  -1.073  24.211  0.00  0.00    +0.000 C 
ATOM      4  C   UNL     1       8.836  -1.770  24.609  0.00  0.00    +0.000 C 
ATOM      5  C   UNL     1       9.916  -1.502  23.554  0.00  0.00    +0.000 C 
ATOM      6  C   UNL     1       9.420  -1.754  22.131  0.00  0.00    +0.000 C 
ENDROOT
BRANCH   4   7
ATOM      7  C   UNL     1       8.678  -3.272  24.921  0.00  0.00    +0.000 C 
ATOM      8  N   UNL     1       8.776  -4.138  23.776  0.00  0.00    +0.000 NA
ATOM      9  C   UNL     1       7.589  -4.777  23.436  0.00  0.00    +0.000 C 
ATOM     10  C   UNL     1       7.405  -5.576  22.321  0.00  0.00    +0.000 C 
ATOM     11  C   UNL     1       6.151  -6.120  22.079  0.00  0.00    +0.000 C 
ATOM     12  C   UNL     1       5.093  -5.868  22.935  0.00  0.00    +0.000 C 
ATOM     13  C   UNL     1       5.269  -5.073  24.060  0.00  0.00    +0.000 C 
ATOM     14  C   UNL     1       6.516  -4.537  24.299  0.00  0.00    +0.000 C 
ATOM     15  S   UNL     1       7.000  -3.548  25.671  0.00  0.00    +0.000 S 
ATOM     16  H   UNL     1       9.611  -4.702  23.718  0.00  0.00    +0.000 HD
ENDBRANCH   4   7
BRANCH   1  18
ATOM     17  O   UNL     1       8.216  -0.132  19.787  0.00  0.00    +0.000 OA
ATOM     18  C   UNL     1       8.293   0.043  20.988  0.00  0.00    +0.000 C 
BRANCH  18  19
ATOM     19  C   UNL     1       8.424   1.460  21.537  0.00  0.00    +0.000 C 
ATOM     20 CL   UNL     1      10.113   1.822  21.978  0.00  0.00    +0.000 Cl
ENDBRANCH  18  19
ENDBRANCH   1  18
TORSDOF 3
ENDMDL
MODEL 3
REMARK VINA RESULT:      -6.0      4.183      6.372
REMARK  Name = 
REMARK  3 active torsions:
REMARK  status: ('A' for Active; 'I' for Inactive)
REMARK    1  A    between atoms: C_2  and  C_3
REMARK    2  A    between atoms: C_2  and  N_5
REMARK    3  A    between atoms: C_8  and  C_9
REMARK                            x       y       z     vdW  Elec       q    Type
REMARK                         _______ _______ _______ _____ _____    ______ ____
ROOT
ATOM      1  N   UNL     1       7.732  -0.118  20.847  0.00  0.00    +0.000 NA
ATOM      2  C   UNL     1       7.015  -0.113  22.101  0.00  0.00    +0.000 C 
ATOM      3  C   UNL     1       7.234   1.213  22.833  0.00  0.00    +0.000 C 
ATOM      4  C   UNL     1       8.714   1.567  23.013  0.00  0.00    +0.000 C 
ATOM      5  C   UNL     1       9.462   1.384  21.686  0.00  0.00    +0.000 C 
ATOM      6  C   UNL     1       9.162   0.039  21.027  0.00  0.00    +0.000 C 
ENDROOT
BRANCH   4   7
ATOM      7  C   UNL     1       9.401   0.831  24.181  0.00  0.00    +0.000 C 
ATOM      8  N   UNL     1      10.043  -0.405  23.820  0.00  0.00    +0.000 NA
ATOM      9  C   UNL     1       9.441  -1.541  24.348  0.00  0.00    +0.000 C 
ATOM     10  C   UNL     1       9.811  -2.844  24.065  0.00  0.00    +0.000 C 
ATOM     11  C   UNL     1       9.094  -3.888  24.632  0.00  0.00    +0.000 C 
ATOM     12  C   UNL     1       8.020  -3.638  25.468  0.00  0.00    +0.000 C 
ATOM     13  C   UNL     1       7.645  -2.334  25.764  0.00  0.00    +0.000 C 
ATOM     14  C   UNL     1       8.361  -1.300  25.202  0.00  0.00    +0.000 C 
ATOM     15  S   UNL     1       8.116   0.423  25.461  0.00  0.00    +0.000 S 
ATOM     16  H   UNL     1      11.052  -0.398  23.828  0.00  0.00    +0.000 HD
ENDBRANCH   4   7
BRANCH   1  18
ATOM     17  O   UNL     1       7.923  -0.037  18.608  0.00  0.00    +0.000 OA
ATOM     18  C   UNL     1       7.225  -0.119  19.602  0.00  0.00    +0.000 C 
BRANCH  18  19
ATOM     19  C   UNL     1       5.714  -0.270  19.453  0.00  0.00    +0.000 C 
ATOM     20 CL   UNL     1       4.953   1.288  19.041  0.00  0.00    +0.000 Cl
ENDBRANCH  18  19
ENDBRANCH   1  18
TORSDOF 3
ENDMDL
MODEL 4
REMARK VINA RESULT:      -6.0      3.773      7.019
REMARK  Name = 
REMARK  3 active torsions:
REMARK  status: ('A' for Active; 'I' for Inactive)
REMARK    1  A    between atoms: C_2  and  C_3
REMARK    2  A    between atoms: C_2  and  N_5
REMARK    3  A    between atoms: C_8  and  C_9
REMARK                            x       y       z     vdW  Elec       q    Type
REMARK                         _______ _______ _______ _____ _____    ______ ____
ROOT
ATOM      1  N   UNL     1       8.726  -0.948  21.852  0.00  0.00    +0.000 NA
ATOM      2  C   UNL     1       7.534  -1.635  22.292  0.00  0.00    +0.000 C 
ATOM      3  C   UNL     1       7.470  -1.660  23.821  0.00  0.00    +0.000 C 
ATOM      4  C   UNL     1       8.737  -2.228  24.470  0.00  0.00    +0.000 C 
ATOM      5  C   UNL     1       9.980  -1.581  23.846  0.00  0.00    +0.000 C 
ATOM      6  C   UNL     1       9.939  -1.589  22.319  0.00  0.00    +0.000 C 
ENDROOT
BRANCH   4   7
ATOM      7  C   UNL     1       8.811  -3.768  24.467  0.00  0.00    +0.000 C 
ATOM      8  N   UNL     1       7.860  -4.415  23.603  0.00  0.00    +0.000 NA
ATOM      9  C   UNL     1       6.878  -5.139  24.269  0.00  0.00    +0.000 C 
ATOM     10  C   UNL     1       5.800  -5.762  23.666  0.00  0.00    +0.000 C 
ATOM     11  C   UNL     1       4.868  -6.418  24.458  0.00  0.00    +0.000 C 
ATOM     12  C   UNL     1       5.007  -6.450  25.835  0.00  0.00    +0.000 C 
ATOM     13  C   UNL     1       6.088  -5.833  26.449  0.00  0.00    +0.000 C 
ATOM     14  C   UNL     1       7.013  -5.185  25.659  0.00  0.00    +0.000 C 
ATOM     15  S   UNL     1       8.484  -4.379  26.192  0.00  0.00    +0.000 S 
ATOM     16  H   UNL     1       8.239  -4.849  22.774  0.00  0.00    +0.000 HD
ENDBRANCH   4   7
BRANCH   1  18
ATOM     17  O   UNL     1       8.226   0.450  20.163  0.00  0.00    +0.000 OA
ATOM     18  C   UNL     1       8.814   0.227  21.205  0.00  0.00    +0.000 C 
BRANCH  18  19
ATOM     19  C   UNL     1       9.659   1.326  21.844  0.00  0.00    +0.000 C 
ATOM     20 CL   UNL     1       8.961   1.846  23.400  0.00  0.00    +0.000 Cl
ENDBRANCH  18  19
ENDBRANCH   1  18
TORSDOF 3
ENDMDL
MODEL 5
REMARK VINA RESULT:      -6.0      4.200      7.186
REMARK  Name = 
REMARK  3 active torsions:
REMARK  status: ('A' for Active; 'I' for Inactive)
REMARK    1  A    between atoms: C_2  and  C_3
REMARK    2  A    between atoms: C_2  and  N_5
REMARK    3  A    between atoms: C_8  and  C_9
REMARK                            x       y       z     vdW  Elec       q    Type
REMARK                         _______ _______ _______ _____ _____    ______ ____
ROOT
ATOM      1  N   UNL     1      10.409   2.164  23.122  0.00  0.00    +0.000 NA
ATOM      2  C   UNL     1       9.613   1.700  22.010  0.00  0.00    +0.000 C 
ATOM      3  C   UNL     1       8.325   1.045  22.515  0.00  0.00    +0.000 C 
ATOM      4  C   UNL     1       8.573  -0.059  23.548  0.00  0.00    +0.000 C 
ATOM      5  C   UNL     1       9.557   0.434  24.616  0.00  0.00    +0.000 C 
ATOM      6  C   UNL     1      10.798   1.088  24.012  0.00  0.00    +0.000 C 
ENDROOT
BRANCH   4   7
ATOM      7  C   UNL     1       8.997  -1.409  22.938  0.00  0.00    +0.000 C 
ATOM      8  N   UNL     1       8.032  -1.998  22.048  0.00  0.00    +0.000 NA
ATOM      9  C   UNL     1       7.448  -3.166  22.524  0.00  0.00    +0.000 C 
ATOM     10  C   UNL     1       6.424  -3.857  21.900  0.00  0.00    +0.000 C 
ATOM     11  C   UNL     1       5.905  -4.991  22.509  0.00  0.00    +0.000 C 
ATOM     12  C   UNL     1       6.396  -5.428  23.727  0.00  0.00    +0.000 C 
ATOM     13  C   UNL     1       7.427  -4.745  24.358  0.00  0.00    +0.000 C 
ATOM     14  C   UNL     1       7.943  -3.622  23.748  0.00  0.00    +0.000 C 
ATOM     15  S   UNL     1       9.274  -2.623  24.319  0.00  0.00    +0.000 S 
ATOM     16  H   UNL     1       8.274  -1.996  21.068  0.00  0.00    +0.000 HD
ENDBRANCH   4   7
BRANCH   1  18
ATOM     17  O   UNL     1      11.832   3.861  23.508  0.00  0.00    +0.000 OA
ATOM     18  C   UNL     1      10.694   3.432  23.465  0.00  0.00    +0.000 C 
BRANCH  18  19
ATOM     19  C   UNL     1       9.525   4.364  23.770  0.00  0.00    +0.000 C 
ATOM     20 CL   UNL     1       8.502   3.702  25.072  0.00  0.00    +0.000 Cl
ENDBRANCH  18  19
ENDBRANCH   1  18
TORSDOF 3
ENDMDL
MODEL 6
REMARK VINA RESULT:      -5.8      4.003      6.495
REMARK  Name = 
REMARK  3 active torsions:
REMARK  status: ('A' for Active; 'I' for Inactive)
REMARK    1  A    between atoms: C_2  and  C_3
REMARK    2  A    between atoms: C_2  and  N_5
REMARK    3  A    between atoms: C_8  and  C_9
REMARK                            x       y       z     vdW  Elec       q    Type
REMARK                         _______ _______ _______ _____ _____    ______ ____
ROOT
ATOM      1  N   UNL     1       7.531   0.260  21.342  0.00  0.00    +0.000 NA
ATOM      2  C   UNL     1       7.121   0.201  22.726  0.00  0.00    +0.000 C 
ATOM      3  C   UNL     1       8.040   1.066  23.590  0.00  0.00    +0.000 C 
ATOM      4  C   UNL     1       9.525   0.733  23.414  0.00  0.00    +0.000 C 
ATOM      5  C   UNL     1       9.869   0.645  21.922  0.00  0.00    +0.000 C 
ATOM      6  C   UNL     1       8.883  -0.225  21.145  0.00  0.00    +0.000 C 
ENDROOT
BRANCH   4   7
ATOM      7  C   UNL     1       9.990  -0.510  24.198  0.00  0.00    +0.000 C 
ATOM      8  N   UNL     1       9.754  -1.764  23.535  0.00  0.00    +0.000 NA
ATOM      9  C   UNL     1       8.802  -2.569  24.149  0.00  0.00    +0.000 C 
ATOM     10  C   UNL     1       8.331  -3.770  23.649  0.00  0.00    +0.000 C 
ATOM     11  C   UNL     1       7.345  -4.453  24.347  0.00  0.00    +0.000 C 
ATOM     12  C   UNL     1       6.833  -3.945  25.527  0.00  0.00    +0.000 C 
ATOM     13  C   UNL     1       7.303  -2.743  26.041  0.00  0.00    +0.000 C 
ATOM     14  C   UNL     1       8.284  -2.070  25.347  0.00  0.00    +0.000 C 
ATOM     15  S   UNL     1       9.073  -0.567  25.814  0.00  0.00    +0.000 S 
ATOM     16  H   UNL     1      10.572  -2.240  23.185  0.00  0.00    +0.000 HD
ENDBRANCH   4   7
BRANCH   1  18
ATOM     17  O   UNL     1       6.058   1.701  20.443  0.00  0.00    +0.000 OA
ATOM     18  C   UNL     1       6.875   0.809  20.306  0.00  0.00    +0.000 C 
BRANCH  18  19
ATOM     19  C   UNL     1       7.215   0.308  18.905  0.00  0.00    +0.000 C 
ATOM     20 CL   UNL     1       5.736   0.037  17.947  0.00  0.00    +0.000 Cl
ENDBRANCH  18  19
ENDBRANCH   1  18
TORSDOF 3
ENDMDL
MODEL 7
REMARK VINA RESULT:      -5.8      1.714      2.136
REMARK  Name = 
REMARK  3 active torsions:
REMARK  status: ('A' for Active; 'I' for Inactive)
REMARK    1  A    between atoms: C_2  and  C_3
REMARK    2  A    between atoms: C_2  and  N_5
REMARK    3  A    between atoms: C_8  and  C_9
REMARK                            x       y       z     vdW  Elec       q    Type
REMARK                         _______ _______ _______ _____ _____    ______ ____
ROOT
ATOM      1  N   UNL     1       5.938  -5.247  26.522  0.00  0.00    +0.000 NA
ATOM      2  C   UNL     1       5.372  -3.975  26.137  0.00  0.00    +0.000 C 
ATOM      3  C   UNL     1       5.707  -3.665  24.677  0.00  0.00    +0.000 C 
ATOM      4  C   UNL     1       7.206  -3.747  24.370  0.00  0.00    +0.000 C 
ATOM      5  C   UNL     1       7.789  -5.042  24.947  0.00  0.00    +0.000 C 
ATOM      6  C   UNL     1       7.382  -5.270  26.402  0.00  0.00    +0.000 C 
ENDROOT
BRANCH   4   7
ATOM      7  C   UNL     1       8.006  -2.500  24.797  0.00  0.00    +0.000 C 
ATOM      8  N   UNL     1       7.363  -1.245  24.514  0.00  0.00    +0.000 NA
ATOM      9  C   UNL     1       7.995  -0.482  23.538  0.00  0.00    +0.000 C 
ATOM     10  C   UNL     1       7.516   0.709  23.023  0.00  0.00    +0.000 C 
ATOM     11  C   UNL     1       8.231   1.347  22.019  0.00  0.00    +0.000 C 
ATOM     12  C   UNL     1       9.407   0.804  21.533  0.00  0.00    +0.000 C 
ATOM     13  C   UNL     1       9.900  -0.388  22.048  0.00  0.00    +0.000 C 
ATOM     14  C   UNL     1       9.189  -1.017  23.047  0.00  0.00    +0.000 C 
ATOM     15  S   UNL     1       9.628  -2.498  23.890  0.00  0.00    +0.000 S 
ATOM     16  H   UNL     1       7.014  -0.736  25.312  0.00  0.00    +0.000 HD
ENDBRANCH   4   7
BRANCH   1  18
ATOM     17  O   UNL     1       5.615  -7.091  27.768  0.00  0.00    +0.000 OA
ATOM     18  C   UNL     1       5.289  -6.383  26.833  0.00  0.00    +0.000 C 
BRANCH  18  19
ATOM     19  C   UNL     1       4.073  -6.758  25.992  0.00  0.00    +0.000 C 
ATOM     20 CL   UNL     1       4.535  -7.046  24.294  0.00  0.00    +0.000 Cl
ENDBRANCH  18  19
ENDBRANCH   1  18
TORSDOF 3
ENDMDL
MODEL 8
REMARK VINA RESULT:      -5.7      2.698      3.114
REMARK  Name = 
REMARK  3 active torsions:
REMARK  status: ('A' for Active; 'I' for Inactive)
REMARK    1  A    between atoms: C_2  and  C_3
REMARK    2  A    between atoms: C_2  and  N_5
REMARK    3  A    between atoms: C_8  and  C_9
REMARK                            x       y       z     vdW  Elec       q    Type
REMARK                         _______ _______ _______ _____ _____    ______ ____
ROOT
ATOM      1  N   UNL     1       4.918  -5.180  24.016  0.00  0.00    +0.000 NA
ATOM      2  C   UNL     1       4.558  -3.849  23.588  0.00  0.00    +0.000 C 
ATOM      3  C   UNL     1       5.482  -3.384  22.460  0.00  0.00    +0.000 C 
ATOM      4  C   UNL     1       6.969  -3.495  22.814  0.00  0.00    +0.000 C 
ATOM      5  C   UNL     1       7.263  -4.873  23.419  0.00  0.00    +0.000 C 
ATOM      6  C   UNL     1       6.275  -5.251  24.520  0.00  0.00    +0.000 C 
ENDROOT
BRANCH   4   7
ATOM      7  C   UNL     1       7.495  -2.343  23.693  0.00  0.00    +0.000 C 
ATOM      8  N   UNL     1       6.888  -1.064  23.438  0.00  0.00    +0.000 NA
ATOM      9  C   UNL     1       7.744  -0.123  22.876  0.00  0.00    +0.000 C 
ATOM     10  C   UNL     1       7.371   1.139  22.448  0.00  0.00    +0.000 C 
ATOM     11  C   UNL     1       8.323   1.964  21.866  0.00  0.00    +0.000 C 
ATOM     12  C   UNL     1       9.630   1.536  21.708  0.00  0.00    +0.000 C 
ATOM     13  C   UNL     1      10.015   0.273  22.140  0.00  0.00    +0.000 C 
ATOM     14  C   UNL     1       9.068  -0.542  22.721  0.00  0.00    +0.000 C 
ATOM     15  S   UNL     1       9.319  -2.151  23.389  0.00  0.00    +0.000 S 
ATOM     16  H   UNL     1       6.265  -0.719  24.152  0.00  0.00    +0.000 HD
ENDBRANCH   4   7
BRANCH   1  18
ATOM     17  O   UNL     1       4.549  -7.367  24.387  0.00  0.00    +0.000 OA
ATOM     18  C   UNL     1       4.211  -6.315  23.876  0.00  0.00    +0.000 C 
BRANCH  18  19
ATOM     19  C   UNL     1       2.915  -6.249  23.076  0.00  0.00    +0.000 C 
ATOM     20 CL   UNL     1       1.498  -6.482  24.133  0.00  0.00    +0.000 Cl
ENDBRANCH  18  19
ENDBRANCH   1  18
TORSDOF 3
ENDMDL
MODEL 9
REMARK VINA RESULT:      -5.6      4.079      7.206
REMARK  Name = 
REMARK  3 active torsions:
REMARK  status: ('A' for Active; 'I' for Inactive)
REMARK    1  A    between atoms: C_2  and  C_3
REMARK    2  A    between atoms: C_2  and  N_5
REMARK    3  A    between atoms: C_8  and  C_9
REMARK                            x       y       z     vdW  Elec       q    Type
REMARK                         _______ _______ _______ _____ _____    ______ ____
ROOT
ATOM      1  N   UNL     1       7.571  -1.168  21.269  0.00  0.00    +0.000 NA
ATOM      2  C   UNL     1       6.493  -2.008  21.736  0.00  0.00    +0.000 C 
ATOM      3  C   UNL     1       6.331  -1.871  23.251  0.00  0.00    +0.000 C 
ATOM      4  C   UNL     1       7.631  -2.118  24.023  0.00  0.00    +0.000 C 
ATOM      5  C   UNL     1       8.779  -1.329  23.382  0.00  0.00    +0.000 C 
ATOM      6  C   UNL     1       8.844  -1.517  21.868  0.00  0.00    +0.000 C 
ENDROOT
BRANCH   4   7
ATOM      7  C   UNL     1       7.978  -3.608  24.215  0.00  0.00    +0.000 C 
ATOM      8  N   UNL     1       6.885  -4.515  23.985  0.00  0.00    +0.000 NA
ATOM      9  C   UNL     1       6.433  -5.172  25.124  0.00  0.00    +0.000 C 
ATOM     10  C   UNL     1       5.334  -6.011  25.177  0.00  0.00    +0.000 C 
ATOM     11  C   UNL     1       4.969  -6.570  26.394  0.00  0.00    +0.000 C 
ATOM     12  C   UNL     1       5.687  -6.293  27.544  0.00  0.00    +0.000 C 
ATOM     13  C   UNL     1       6.795  -5.456  27.500  0.00  0.00    +0.000 C 
ATOM     14  C   UNL     1       7.156  -4.906  26.289  0.00  0.00    +0.000 C 
ATOM     15  S   UNL     1       8.539  -3.865  25.968  0.00  0.00    +0.000 S 
ATOM     16  H   UNL     1       6.944  -5.077  23.148  0.00  0.00    +0.000 HD
ENDBRANCH   4   7
BRANCH   1  18
ATOM     17  O   UNL     1       8.093   0.953  20.732  0.00  0.00    +0.000 OA
ATOM     18  C   UNL     1       7.493  -0.077  20.487  0.00  0.00    +0.000 C 
BRANCH  18  19
ATOM     19  C   UNL     1       6.644  -0.172  19.223  0.00  0.00    +0.000 C 
ATOM     20 CL   UNL     1       5.540   1.222  19.088  0.00  0.00    +0.000 Cl
ENDBRANCH  18  19
ENDBRANCH   1  18
TORSDOF 3
ENDMDL
