MODEL 1
REMARK VINA RESULT:      -6.7      0.000      0.000
REMARK  Name = 
REMARK  4 active torsions:
REMARK  status: ('A' for Active; 'I' for Inactive)
REMARK    1  A    between atoms: C_2  and  C_3
REMARK    2  A    between atoms: C_2  and  N_5
REMARK    3  A    between atoms: N_8  and  S_9
REMARK    4  A    between atoms: S_9  and  C_12
REMARK                            x       y       z     vdW  Elec       q    Type
REMARK                         _______ _______ _______ _____ _____    ______ ____
ROOT
ATOM      1  S   UNL     1       8.206  -1.947  22.691  0.00  0.00    +0.000 S 
ATOM      2  O   UNL     1       9.559  -2.181  22.279  0.00  0.00    +0.000 OA
ATOM      3  O   UNL     1       7.178  -2.110  21.699  0.00  0.00    +0.000 OA
ENDROOT
BRANCH   1   4
ATOM      4  C   UNL     1       7.809  -2.934  24.124  0.00  0.00    +0.000 C 
ATOM      5  C   UNL     1       8.568  -2.790  25.291  0.00  0.00    +0.000 C 
ATOM      6  C   UNL     1       8.280  -3.570  26.377  0.00  0.00    +0.000 C 
ATOM      7  C   UNL     1       7.232  -4.516  26.327  0.00  0.00    +0.000 C 
ATOM      8  C   UNL     1       6.466  -4.647  25.136  0.00  0.00    +0.000 C 
ATOM      9  C   UNL     1       6.784  -3.828  24.032  0.00  0.00    +0.000 C 
ATOM     10  C   UNL     1       5.418  -5.591  25.094  0.00  0.00    +0.000 C 
ATOM     11  C   UNL     1       5.142  -6.373  26.180  0.00  0.00    +0.000 C 
ATOM     12  C   UNL     1       5.898  -6.245  27.358  0.00  0.00    +0.000 C 
ATOM     13  C   UNL     1       6.919  -5.338  27.430  0.00  0.00    +0.000 C 
ENDBRANCH   1   4
BRANCH   1  17
ATOM     14  N   UNL     1       8.077   0.971  21.095  0.00  0.00    +0.000 NA
ATOM     15  C   UNL     1       9.425   0.701  21.559  0.00  0.00    +0.000 C 
ATOM     16  C   UNL     1       9.391   0.349  23.058  0.00  0.00    +0.000 C 
ATOM     17  N   UNL     1       8.197  -0.401  23.384  0.00  0.00    +0.000 NA
ATOM     18  C   UNL     1       6.969   0.342  23.157  0.00  0.00    +0.000 C 
ATOM     19  C   UNL     1       7.183   1.456  22.123  0.00  0.00    +0.000 C 
BRANCH  14  21
ATOM     20  O   UNL     1       8.123  -0.197  19.175  0.00  0.00    +0.000 OA
ATOM     21  C   UNL     1       7.528   0.541  19.935  0.00  0.00    +0.000 C 
BRANCH  21  22
ATOM     22  C   UNL     1       6.107   0.973  19.625  0.00  0.00    +0.000 C 
ATOM     23 CL   UNL     1       5.554   0.369  18.050  0.00  0.00    +0.000 Cl
ENDBRANCH  21  22
ENDBRANCH  14  21
ENDBRANCH   1  17
TORSDOF 4
ENDMDL
MODEL 2
REMARK VINA RESULT:      -6.6      3.684      7.170
REMARK  Name = 
REMARK  4 active torsions:
REMARK  status: ('A' for Active; 'I' for Inactive)
REMARK    1  A    between atoms: C_2  and  C_3
REMARK    2  A    between atoms: C_2  and  N_5
REMARK    3  A    between atoms: N_8  and  S_9
REMARK    4  A    between atoms: S_9  and  C_12
REMARK                            x       y       z     vdW  Elec       q    Type
REMARK                         _______ _______ _______ _____ _____    ______ ____
ROOT
ATOM      1  S   UNL     1       8.885  -2.377  24.695  0.00  0.00    +0.000 S 
ATOM      2  O   UNL     1       9.891  -3.229  24.133  0.00  0.00    +0.000 OA
ATOM      3  O   UNL     1       8.609  -2.521  26.100  0.00  0.00    +0.000 OA
ENDROOT
BRANCH   1   4
ATOM      4  C   UNL     1       9.240  -0.666  24.334  0.00  0.00    +0.000 C 
ATOM      5  C   UNL     1      10.266  -0.350  23.436  0.00  0.00    +0.000 C 
ATOM      6  C   UNL     1      10.556   0.962  23.186  0.00  0.00    +0.000 C 
ATOM      7  C   UNL     1       9.834   1.994  23.825  0.00  0.00    +0.000 C 
ATOM      8  C   UNL     1       8.790   1.658  24.730  0.00  0.00    +0.000 C 
ATOM      9  C   UNL     1       8.512   0.296  24.969  0.00  0.00    +0.000 C 
ATOM     10  C   UNL     1       8.070   2.694  25.363  0.00  0.00    +0.000 C 
ATOM     11  C   UNL     1       8.371   4.004  25.114  0.00  0.00    +0.000 C 
ATOM     12  C   UNL     1       9.402   4.338  24.220  0.00  0.00    +0.000 C 
ATOM     13  C   UNL     1      10.117   3.357  23.590  0.00  0.00    +0.000 C 
ENDBRANCH   1   4
BRANCH   1  17
ATOM     14  N   UNL     1       6.805  -4.976  24.746  0.00  0.00    +0.000 NA
ATOM     15  C   UNL     1       7.691  -5.051  23.599  0.00  0.00    +0.000 C 
ATOM     16  C   UNL     1       7.649  -3.718  22.829  0.00  0.00    +0.000 C 
ATOM     17  N   UNL     1       7.505  -2.602  23.740  0.00  0.00    +0.000 NA
ATOM     18  C   UNL     1       6.262  -2.627  24.491  0.00  0.00    +0.000 C 
ATOM     19  C   UNL     1       5.703  -4.054  24.584  0.00  0.00    +0.000 C 
BRANCH  14  21
ATOM     20  O   UNL     1       8.189  -5.764  26.332  0.00  0.00    +0.000 OA
ATOM     21  C   UNL     1       7.073  -5.423  25.995  0.00  0.00    +0.000 C 
BRANCH  21  22
ATOM     22  C   UNL     1       5.933  -5.442  26.996  0.00  0.00    +0.000 C 
ATOM     23 CL   UNL     1       4.894  -6.867  26.798  0.00  0.00    +0.000 Cl
ENDBRANCH  21  22
ENDBRANCH  14  21
ENDBRANCH   1  17
TORSDOF 4
ENDMDL
MODEL 3
REMARK VINA RESULT:      -6.5      1.668      2.573
REMARK  Name = 
REMARK  4 active torsions:
REMARK  status: ('A' for Active; 'I' for Inactive)
REMARK    1  A    between atoms: C_2  and  C_3
REMARK    2  A    between atoms: C_2  and  N_5
REMARK    3  A    between atoms: N_8  and  S_9
REMARK    4  A    between atoms: S_9  and  C_12
REMARK                            x       y       z     vdW  Elec       q    Type
REMARK                         _______ _______ _______ _____ _____    ______ ____
ROOT
ATOM      1  S   UNL     1       8.566  -2.607  23.462  0.00  0.00    +0.000 S 
ATOM      2  O   UNL     1       9.868  -3.052  23.861  0.00  0.00    +0.000 OA
ATOM      3  O   UNL     1       8.436  -2.044  22.145  0.00  0.00    +0.000 OA
ENDROOT
BRANCH   1   4
ATOM      4  C   UNL     1       7.368  -3.915  23.667  0.00  0.00    +0.000 C 
ATOM      5  C   UNL     1       6.785  -4.497  22.536  0.00  0.00    +0.000 C 
ATOM      6  C   UNL     1       5.845  -5.477  22.697  0.00  0.00    +0.000 C 
ATOM      7  C   UNL     1       5.459  -5.900  23.988  0.00  0.00    +0.000 C 
ATOM      8  C   UNL     1       6.066  -5.304  25.128  0.00  0.00    +0.000 C 
ATOM      9  C   UNL     1       7.033  -4.296  24.932  0.00  0.00    +0.000 C 
ATOM     10  C   UNL     1       5.678  -5.733  26.415  0.00  0.00    +0.000 C 
ATOM     11  C   UNL     1       4.733  -6.708  26.568  0.00  0.00    +0.000 C 
ATOM     12  C   UNL     1       4.133  -7.298  25.444  0.00  0.00    +0.000 C 
ATOM     13  C   UNL     1       4.488  -6.904  24.183  0.00  0.00    +0.000 C 
ENDBRANCH   1   4
BRANCH   1  17
ATOM     14  N   UNL     1       8.983   0.694  23.548  0.00  0.00    +0.000 NA
ATOM     15  C   UNL     1       9.924   0.036  24.434  0.00  0.00    +0.000 C 
ATOM     16  C   UNL     1       9.164  -0.927  25.366  0.00  0.00    +0.000 C 
ATOM     17  N   UNL     1       8.052  -1.542  24.674  0.00  0.00    +0.000 NA
ATOM     18  C   UNL     1       7.046  -0.589  24.238  0.00  0.00    +0.000 C 
ATOM     19  C   UNL     1       7.646   0.815  24.087  0.00  0.00    +0.000 C 
BRANCH  14  21
ATOM     20  O   UNL     1      10.183   0.634  21.648  0.00  0.00    +0.000 OA
ATOM     21  C   UNL     1       9.148   0.910  22.222  0.00  0.00    +0.000 C 
BRANCH  21  22
ATOM     22  C   UNL     1       7.970   1.470  21.446  0.00  0.00    +0.000 C 
ATOM     23 CL   UNL     1       7.655   0.555  19.958  0.00  0.00    +0.000 Cl
ENDBRANCH  21  22
ENDBRANCH  14  21
ENDBRANCH   1  17
TORSDOF 4
ENDMDL
MODEL 4
REMARK VINA RESULT:      -6.5      3.670      7.491
REMARK  Name = 
REMARK  4 active torsions:
REMARK  status: ('A' for Active; 'I' for Inactive)
REMARK    1  A    between atoms: C_2  and  C_3
REMARK    2  A    between atoms: C_2  and  N_5
REMARK    3  A    between atoms: N_8  and  S_9
REMARK    4  A    between atoms: S_9  and  C_12
REMARK                            x       y       z     vdW  Elec       q    Type
REMARK                         _______ _______ _______ _____ _____    ______ ____
ROOT
ATOM      1  S   UNL     1       8.980  -0.686  24.049  0.00  0.00    +0.000 S 
ATOM      2  O   UNL     1       9.815  -1.223  23.015  0.00  0.00    +0.000 OA
ATOM      3  O   UNL     1       9.149  -1.217  25.375  0.00  0.00    +0.000 OA
ENDROOT
BRANCH   1   4
ATOM      4  C   UNL     1       9.117   1.093  24.102  0.00  0.00    +0.000 C 
ATOM      5  C   UNL     1       8.013   1.857  24.497  0.00  0.00    +0.000 C 
ATOM      6  C   UNL     1       8.111   3.220  24.507  0.00  0.00    +0.000 C 
ATOM      7  C   UNL     1       9.310   3.859  24.121  0.00  0.00    +0.000 C 
ATOM      8  C   UNL     1      10.426   3.069  23.727  0.00  0.00    +0.000 C 
ATOM      9  C   UNL     1      10.297   1.665  23.728  0.00  0.00    +0.000 C 
ATOM     10  C   UNL     1      11.623   3.714  23.346  0.00  0.00    +0.000 C 
ATOM     11  C   UNL     1      11.711   5.077  23.351  0.00  0.00    +0.000 C 
ATOM     12  C   UNL     1      10.610   5.859  23.738  0.00  0.00    +0.000 C 
ATOM     13  C   UNL     1       9.437   5.264  24.115  0.00  0.00    +0.000 C 
ENDBRANCH   1   4
BRANCH   1  17
ATOM     14  N   UNL     1       7.313  -3.515  23.506  0.00  0.00    +0.000 NA
ATOM     15  C   UNL     1       7.768  -2.941  22.254  0.00  0.00    +0.000 C 
ATOM     16  C   UNL     1       7.336  -1.464  22.179  0.00  0.00    +0.000 C 
ATOM     17  N   UNL     1       7.391  -0.845  23.486  0.00  0.00    +0.000 NA
ATOM     18  C   UNL     1       6.480  -1.442  24.446  0.00  0.00    +0.000 C 
ATOM     19  C   UNL     1       6.132  -2.884  24.053  0.00  0.00    +0.000 C 
BRANCH  14  21
ATOM     20  O   UNL     1       9.240  -4.353  24.303  0.00  0.00    +0.000 OA
ATOM     21  C   UNL     1       8.026  -4.327  24.320  0.00  0.00    +0.000 C 
BRANCH  21  22
ATOM     22  C   UNL     1       7.258  -5.187  25.307  0.00  0.00    +0.000 C 
ATOM     23 CL   UNL     1       7.997  -5.174  26.921  0.00  0.00    +0.000 Cl
ENDBRANCH  21  22
ENDBRANCH  14  21
ENDBRANCH   1  17
TORSDOF 4
ENDMDL
MODEL 5
REMARK VINA RESULT:      -6.3      3.074      6.938
REMARK  Name = 
REMARK  4 active torsions:
REMARK  status: ('A' for Active; 'I' for Inactive)
REMARK    1  A    between atoms: C_2  and  C_3
REMARK    2  A    between atoms: C_2  and  N_5
REMARK    3  A    between atoms: N_8  and  S_9
REMARK    4  A    between atoms: S_9  and  C_12
REMARK                            x       y       z     vdW  Elec       q    Type
REMARK                         _______ _______ _______ _____ _____    ______ ____
ROOT
ATOM      1  S   UNL     1       8.227  -1.006  22.986  0.00  0.00    +0.000 S 
ATOM      2  O   UNL     1       7.123  -1.041  22.073  0.00  0.00    +0.000 OA
ATOM      3  O   UNL     1       9.330  -1.890  22.721  0.00  0.00    +0.000 OA
ENDROOT
BRANCH   1   4
ATOM      4  C   UNL     1       8.835   0.661  23.168  0.00  0.00    +0.000 C 
ATOM      5  C   UNL     1       9.942   1.076  22.419  0.00  0.00    +0.000 C 
ATOM      6  C   UNL     1      10.425   2.345  22.585  0.00  0.00    +0.000 C 
ATOM      7  C   UNL     1       9.820   3.232  23.502  0.00  0.00    +0.000 C 
ATOM      8  C   UNL     1       8.691   2.799  24.252  0.00  0.00    +0.000 C 
ATOM      9  C   UNL     1       8.215   1.485  24.060  0.00  0.00    +0.000 C 
ATOM     10  C   UNL     1       8.090   3.691  25.164  0.00  0.00    +0.000 C 
ATOM     11  C   UNL     1       8.582   4.955  25.329  0.00  0.00    +0.000 C 
ATOM     12  C   UNL     1       9.697   5.385  24.590  0.00  0.00    +0.000 C 
ATOM     13  C   UNL     1      10.301   4.544  23.697  0.00  0.00    +0.000 C 
ENDBRANCH   1   4
BRANCH   1  17
ATOM     14  N   UNL     1       7.007  -3.845  24.224  0.00  0.00    +0.000 NA
ATOM     15  C   UNL     1       5.931  -2.956  23.827  0.00  0.00    +0.000 C 
ATOM     16  C   UNL     1       6.150  -1.570  24.462  0.00  0.00    +0.000 C 
ATOM     17  N   UNL     1       7.560  -1.249  24.524  0.00  0.00    +0.000 NA
ATOM     18  C   UNL     1       8.322  -2.157  25.363  0.00  0.00    +0.000 C 
ATOM     19  C   UNL     1       7.612  -3.512  25.495  0.00  0.00    +0.000 C 
BRANCH  14  21
ATOM     20  O   UNL     1       8.581  -5.400  23.829  0.00  0.00    +0.000 OA
ATOM     21  C   UNL     1       7.666  -4.713  23.422  0.00  0.00    +0.000 C 
BRANCH  21  22
ATOM     22  C   UNL     1       7.191  -4.845  21.986  0.00  0.00    +0.000 C 
ATOM     23 CL   UNL     1       5.993  -6.141  21.796  0.00  0.00    +0.000 Cl
ENDBRANCH  21  22
ENDBRANCH  14  21
ENDBRANCH   1  17
TORSDOF 4
ENDMDL
MODEL 6
REMARK VINA RESULT:      -6.3      1.669      2.505
REMARK  Name = 
REMARK  4 active torsions:
REMARK  status: ('A' for Active; 'I' for Inactive)
REMARK    1  A    between atoms: C_2  and  C_3
REMARK    2  A    between atoms: C_2  and  N_5
REMARK    3  A    between atoms: N_8  and  S_9
REMARK    4  A    between atoms: S_9  and  C_12
REMARK                            x       y       z     vdW  Elec       q    Type
REMARK                         _______ _______ _______ _____ _____    ______ ____
ROOT
ATOM      1  S   UNL     1       7.318  -2.710  23.162  0.00  0.00    +0.000 S 
ATOM      2  O   UNL     1       8.011  -3.333  22.074  0.00  0.00    +0.000 OA
ATOM      3  O   UNL     1       6.355  -1.692  22.833  0.00  0.00    +0.000 OA
ENDROOT
BRANCH   1   4
ATOM      4  C   UNL     1       6.548  -3.940  24.200  0.00  0.00    +0.000 C 
ATOM      5  C   UNL     1       5.486  -4.700  23.696  0.00  0.00    +0.000 C 
ATOM      6  C   UNL     1       4.878  -5.620  24.505  0.00  0.00    +0.000 C 
ATOM      7  C   UNL     1       5.309  -5.805  25.837  0.00  0.00    +0.000 C 
ATOM      8  C   UNL     1       6.394  -5.029  26.334  0.00  0.00    +0.000 C 
ATOM      9  C   UNL     1       7.003  -4.089  25.477  0.00  0.00    +0.000 C 
ATOM     10  C   UNL     1       6.822  -5.221  27.665  0.00  0.00    +0.000 C 
ATOM     11  C   UNL     1       6.205  -6.137  28.469  0.00  0.00    +0.000 C 
ATOM     12  C   UNL     1       5.133  -6.904  27.980  0.00  0.00    +0.000 C 
ATOM     13  C   UNL     1       4.696  -6.742  26.695  0.00  0.00    +0.000 C 
ENDBRANCH   1   4
BRANCH   1  17
ATOM     14  N   UNL     1       9.474  -0.235  22.606  0.00  0.00    +0.000 NA
ATOM     15  C   UNL     1      10.122  -1.523  22.450  0.00  0.00    +0.000 C 
ATOM     16  C   UNL     1       9.852  -2.389  23.695  0.00  0.00    +0.000 C 
ATOM     17  N   UNL     1       8.521  -2.146  24.212  0.00  0.00    +0.000 NA
ATOM     18  C   UNL     1       8.319  -0.781  24.666  0.00  0.00    +0.000 C 
ATOM     19  C   UNL     1       9.301   0.179  23.981  0.00  0.00    +0.000 C 
BRANCH  14  21
ATOM     20  O   UNL     1       8.461   1.596  21.785  0.00  0.00    +0.000 OA
ATOM     21  C   UNL     1       8.775   0.430  21.657  0.00  0.00    +0.000 C 
BRANCH  21  22
ATOM     22  C   UNL     1       8.430  -0.318  20.382  0.00  0.00    +0.000 C 
ATOM     23 CL   UNL     1       7.266   0.571  19.380  0.00  0.00    +0.000 Cl
ENDBRANCH  21  22
ENDBRANCH  14  21
ENDBRANCH   1  17
TORSDOF 4
ENDMDL
MODEL 7
REMARK VINA RESULT:      -6.3      3.656      7.176
REMARK  Name = 
REMARK  4 active torsions:
REMARK  status: ('A' for Active; 'I' for Inactive)
REMARK    1  A    between atoms: C_2  and  C_3
REMARK    2  A    between atoms: C_2  and  N_5
REMARK    3  A    between atoms: N_8  and  S_9
REMARK    4  A    between atoms: S_9  and  C_12
REMARK                            x       y       z     vdW  Elec       q    Type
REMARK                         _______ _______ _______ _____ _____    ______ ____
ROOT
ATOM      1  S   UNL     1       7.352  -3.796  24.045  0.00  0.00    +0.000 S 
ATOM      2  O   UNL     1       8.035  -4.932  23.500  0.00  0.00    +0.000 OA
ATOM      3  O   UNL     1       7.278  -3.697  25.478  0.00  0.00    +0.000 OA
ENDROOT
BRANCH   1   4
ATOM      4  C   UNL     1       8.027  -2.283  23.380  0.00  0.00    +0.000 C 
ATOM      5  C   UNL     1       7.880  -2.004  22.017  0.00  0.00    +0.000 C 
ATOM      6  C   UNL     1       8.425  -0.859  21.506  0.00  0.00    +0.000 C 
ATOM      7  C   UNL     1       9.133   0.036  22.338  0.00  0.00    +0.000 C 
ATOM      8  C   UNL     1       9.269  -0.258  23.723  0.00  0.00    +0.000 C 
ATOM      9  C   UNL     1       8.696  -1.445  24.223  0.00  0.00    +0.000 C 
ATOM     10  C   UNL     1       9.975   0.642  24.550  0.00  0.00    +0.000 C 
ATOM     11  C   UNL     1      10.523   1.781  24.030  0.00  0.00    +0.000 C 
ATOM     12  C   UNL     1      10.391   2.073  22.663  0.00  0.00    +0.000 C 
ATOM     13  C   UNL     1       9.712   1.221  21.836  0.00  0.00    +0.000 C 
ENDBRANCH   1   4
BRANCH   1  17
ATOM     14  N   UNL     1       4.683  -5.571  24.943  0.00  0.00    +0.000 NA
ATOM     15  C   UNL     1       5.310  -6.148  23.768  0.00  0.00    +0.000 C 
ATOM     16  C   UNL     1       5.504  -5.054  22.700  0.00  0.00    +0.000 C 
ATOM     17  N   UNL     1       5.823  -3.784  23.316  0.00  0.00    +0.000 NA
ATOM     18  C   UNL     1       4.765  -3.274  24.170  0.00  0.00    +0.000 C 
ATOM     19  C   UNL     1       3.862  -4.412  24.668  0.00  0.00    +0.000 C 
BRANCH  14  21
ATOM     20  O   UNL     1       5.991  -6.481  26.527  0.00  0.00    +0.000 OA
ATOM     21  C   UNL     1       5.025  -5.808  26.230  0.00  0.00    +0.000 C 
BRANCH  21  22
ATOM     22  C   UNL     1       4.182  -5.161  27.314  0.00  0.00    +0.000 C 
ATOM     23 CL   UNL     1       5.034  -3.826  28.115  0.00  0.00    +0.000 Cl
ENDBRANCH  21  22
ENDBRANCH  14  21
ENDBRANCH   1  17
TORSDOF 4
ENDMDL
MODEL 8
REMARK VINA RESULT:      -6.3      2.614      3.429
REMARK  Name = 
REMARK  4 active torsions:
REMARK  status: ('A' for Active; 'I' for Inactive)
REMARK    1  A    between atoms: C_2  and  C_3
REMARK    2  A    between atoms: C_2  and  N_5
REMARK    3  A    between atoms: N_8  and  S_9
REMARK    4  A    between atoms: S_9  and  C_12
REMARK                            x       y       z     vdW  Elec       q    Type
REMARK                         _______ _______ _______ _____ _____    ______ ____
ROOT
ATOM      1  S   UNL     1       7.119  -1.181  22.977  0.00  0.00    +0.000 S 
ATOM      2  O   UNL     1       7.001  -0.929  21.572  0.00  0.00    +0.000 OA
ATOM      3  O   UNL     1       6.672  -0.147  23.872  0.00  0.00    +0.000 OA
ENDROOT
BRANCH   1   4
ATOM      4  C   UNL     1       6.322  -2.720  23.406  0.00  0.00    +0.000 C 
ATOM      5  C   UNL     1       5.442  -3.316  22.497  0.00  0.00    +0.000 C 
ATOM      6  C   UNL     1       4.809  -4.478  22.842  0.00  0.00    +0.000 C 
ATOM      7  C   UNL     1       5.034  -5.075  24.101  0.00  0.00    +0.000 C 
ATOM      8  C   UNL     1       5.937  -4.461  25.013  0.00  0.00    +0.000 C 
ATOM      9  C   UNL     1       6.576  -3.263  24.631  0.00  0.00    +0.000 C 
ATOM     10  C   UNL     1       6.160  -5.064  26.270  0.00  0.00    +0.000 C 
ATOM     11  C   UNL     1       5.519  -6.221  26.610  0.00  0.00    +0.000 C 
ATOM     12  C   UNL     1       4.627  -6.829  25.711  0.00  0.00    +0.000 C 
ATOM     13  C   UNL     1       4.390  -6.270  24.486  0.00  0.00    +0.000 C 
ENDBRANCH   1   4
BRANCH   1  17
ATOM     14  N   UNL     1       9.784   0.789  22.672  0.00  0.00    +0.000 NA
ATOM     15  C   UNL     1       9.668  -0.096  21.528  0.00  0.00    +0.000 C 
ATOM     16  C   UNL     1       9.516  -1.549  22.015  0.00  0.00    +0.000 C 
ATOM     17  N   UNL     1       8.738  -1.604  23.235  0.00  0.00    +0.000 NA
ATOM     18  C   UNL     1       9.362  -0.910  24.348  0.00  0.00    +0.000 C 
ATOM     19  C   UNL     1      10.341   0.162  23.851  0.00  0.00    +0.000 C 
BRANCH  14  21
ATOM     20  O   UNL     1       8.168   2.279  22.204  0.00  0.00    +0.000 OA
ATOM     21  C   UNL     1       9.169   1.984  22.826  0.00  0.00    +0.000 C 
BRANCH  21  22
ATOM     22  C   UNL     1       9.744   2.946  23.849  0.00  0.00    +0.000 C 
ATOM     23 CL   UNL     1      11.298   3.627  23.327  0.00  0.00    +0.000 Cl
ENDBRANCH  21  22
ENDBRANCH  14  21
ENDBRANCH   1  17
TORSDOF 4
ENDMDL
MODEL 9
REMARK VINA RESULT:      -6.3      2.616      3.282
REMARK  Name = 
REMARK  4 active torsions:
REMARK  status: ('A' for Active; 'I' for Inactive)
REMARK    1  A    between atoms: C_2  and  C_3
REMARK    2  A    between atoms: C_2  and  N_5
REMARK    3  A    between atoms: N_8  and  S_9
REMARK    4  A    between atoms: S_9  and  C_12
REMARK                            x       y       z     vdW  Elec       q    Type
REMARK                         _______ _______ _______ _____ _____    ______ ____
ROOT
ATOM      1  S   UNL     1       7.477  -2.127  23.357  0.00  0.00    +0.000 S 
ATOM      2  O   UNL     1       7.979  -2.406  22.043  0.00  0.00    +0.000 OA
ATOM      3  O   UNL     1       6.679  -0.942  23.519  0.00  0.00    +0.000 OA
ENDROOT
BRANCH   1   4
ATOM      4  C   UNL     1       6.585  -3.534  23.997  0.00  0.00    +0.000 C 
ATOM      5  C   UNL     1       7.105  -4.242  25.086  0.00  0.00    +0.000 C 
ATOM      6  C   UNL     1       6.434  -5.338  25.554  0.00  0.00    +0.000 C 
ATOM      7  C   UNL     1       5.230  -5.759  24.948  0.00  0.00    +0.000 C 
ATOM      8  C   UNL     1       4.710  -5.026  23.845  0.00  0.00    +0.000 C 
ATOM      9  C   UNL     1       5.422  -3.899  23.384  0.00  0.00    +0.000 C 
ATOM     10  C   UNL     1       3.505  -5.450  23.245  0.00  0.00    +0.000 C 
ATOM     11  C   UNL     1       2.845  -6.551  23.714  0.00  0.00    +0.000 C 
ATOM     12  C   UNL     1       3.357  -7.276  24.803  0.00  0.00    +0.000 C 
ATOM     13  C   UNL     1       4.521  -6.890  25.405  0.00  0.00    +0.000 C 
ENDBRANCH   1   4
BRANCH   1  17
ATOM     14  N   UNL     1      10.100  -0.081  23.253  0.00  0.00    +0.000 NA
ATOM     15  C   UNL     1      10.436  -1.372  22.683  0.00  0.00    +0.000 C 
ATOM     16  C   UNL     1      10.042  -2.487  23.670  0.00  0.00    +0.000 C 
ATOM     17  N   UNL     1       8.827  -2.143  24.378  0.00  0.00    +0.000 NA
ATOM     18  C   UNL     1       8.959  -0.955  25.205  0.00  0.00    +0.000 C 
ATOM     19  C   UNL     1      10.094  -0.055  24.699  0.00  0.00    +0.000 C 
BRANCH  14  21
ATOM     20  O   UNL     1       9.079   0.843  21.477  0.00  0.00    +0.000 OA
ATOM     21  C   UNL     1       9.521   0.955  22.603  0.00  0.00    +0.000 C 
BRANCH  21  22
ATOM     22  C   UNL     1       9.392   2.271  23.348  0.00  0.00    +0.000 C 
ATOM     23 CL   UNL     1      10.908   3.195  23.338  0.00  0.00    +0.000 Cl
ENDBRANCH  21  22
ENDBRANCH  14  21
ENDBRANCH   1  17
TORSDOF 4
ENDMDL
