MODEL 1
REMARK VINA RESULT:      -6.8      0.000      0.000
REMARK  Name = 
REMARK  4 active torsions:
REMARK  status: ('A' for Active; 'I' for Inactive)
REMARK    1  A    between atoms: C_1  and  C_2
REMARK    2  A    between atoms: C_5  and  C_6
REMARK    3  A    between atoms: C_6  and  N_7
REMARK    4  A    between atoms: C_12  and  C_14
REMARK                            x       y       z     vdW  Elec       q    Type
REMARK                         _______ _______ _______ _____ _____    ______ ____
ROOT
ATOM      1  N   UNL     1       9.900  -0.200  23.164  0.00  0.00    +0.000 NA
ATOM      2  C   UNL     1       9.931   0.425  24.469  0.00  0.00    +0.000 C 
ATOM      3  C   UNL     1       9.292  -0.432  25.565  0.00  0.00    +0.000 C 
ATOM      4  C   UNL     1       8.076  -1.219  25.057  0.00  0.00    +0.000 C 
ATOM      5  N   UNL     1       8.386  -2.334  24.146  0.00  0.00    +0.000 N 
ATOM      6  C   UNL     1       7.420  -3.020  23.417  0.00  0.00    +0.000 C 
ATOM      7  O   UNL     1       7.580  -4.194  23.069  0.00  0.00    +0.000 OA
ATOM      8  C   UNL     1       9.791  -2.642  23.865  0.00  0.00    +0.000 C 
ATOM      9  C   UNL     1      10.468  -1.537  23.007  0.00  0.00    +0.000 C 
ENDROOT
BRANCH   6  10
ATOM     10  C   UNL     1       6.224  -2.232  22.927  0.00  0.00    +0.000 C 
ATOM     11 CL   UNL     1       5.864  -2.570  21.234  0.00  0.00    +0.000 Cl
ENDBRANCH   6  10
BRANCH   1  12
ATOM     12  C   UNL     1       9.977   0.687  22.014  0.00  0.00    +0.000 C 
BRANCH  12  17
ATOM     13  C   UNL     1       5.011   1.238  19.023  0.00  0.00    +0.000 C 
ATOM     14  C   UNL     1       6.251   1.034  19.842  0.00  0.00    +0.000 A 
ATOM     15  C   UNL     1       7.229   0.123  19.424  0.00  0.00    +0.000 A 
ATOM     16  C   UNL     1       8.406  -0.037  20.158  0.00  0.00    +0.000 A 
ATOM     17  C   UNL     1       8.625   0.708  21.329  0.00  0.00    +0.000 A 
ATOM     18  C   UNL     1       7.624   1.580  21.769  0.00  0.00    +0.000 A 
ATOM     19  C   UNL     1       6.433   1.737  21.036  0.00  0.00    +0.000 A 
ENDBRANCH  12  17
ENDBRANCH   1  12
TORSDOF 3
ENDMDL
MODEL 2
REMARK VINA RESULT:      -6.1      2.529      3.575
REMARK  Name = 
REMARK  4 active torsions:
REMARK  status: ('A' for Active; 'I' for Inactive)
REMARK    1  A    between atoms: C_1  and  C_2
REMARK    2  A    between atoms: C_5  and  C_6
REMARK    3  A    between atoms: C_6  and  N_7
REMARK    4  A    between atoms: C_12  and  C_14
REMARK                            x       y       z     vdW  Elec       q    Type
REMARK                         _______ _______ _______ _____ _____    ______ ____
ROOT
ATOM      1  N   UNL     1       9.035  -0.823  23.664  0.00  0.00    +0.000 NA
ATOM      2  C   UNL     1      10.441  -0.576  23.907  0.00  0.00    +0.000 C 
ATOM      3  C   UNL     1      10.720   0.816  24.482  0.00  0.00    +0.000 C 
ATOM      4  C   UNL     1       9.783   1.885  23.904  0.00  0.00    +0.000 C 
ATOM      5  N   UNL     1       8.385   1.806  24.357  0.00  0.00    +0.000 N 
ATOM      6  C   UNL     1       7.350   2.542  23.787  0.00  0.00    +0.000 C 
ATOM      7  O   UNL     1       6.343   2.853  24.429  0.00  0.00    +0.000 OA
ATOM      8  C   UNL     1       8.024   0.790  25.350  0.00  0.00    +0.000 C 
ATOM      9  C   UNL     1       8.087  -0.647  24.761  0.00  0.00    +0.000 C 
ENDROOT
BRANCH   6  10
ATOM     10  C   UNL     1       7.427   2.819  22.300  0.00  0.00    +0.000 C 
ATOM     11 CL   UNL     1       5.883   2.530  21.499  0.00  0.00    +0.000 Cl
ENDBRANCH   6  10
BRANCH   1  12
ATOM     12  C   UNL     1       8.712  -1.835  22.670  0.00  0.00    +0.000 C 
BRANCH  12  17
ATOM     13  C   UNL     1       5.845   0.202  18.029  0.00  0.00    +0.000 C 
ATOM     14  C   UNL     1       6.553  -0.254  19.270  0.00  0.00    +0.000 A 
ATOM     15  C   UNL     1       5.929  -1.147  20.149  0.00  0.00    +0.000 A 
ATOM     16  C   UNL     1       6.601  -1.611  21.282  0.00  0.00    +0.000 A 
ATOM     17  C   UNL     1       7.910  -1.184  21.561  0.00  0.00    +0.000 A 
ATOM     18  C   UNL     1       8.511  -0.254  20.707  0.00  0.00    +0.000 A 
ATOM     19  C   UNL     1       7.833   0.221  19.569  0.00  0.00    +0.000 A 
ENDBRANCH  12  17
ENDBRANCH   1  12
TORSDOF 3
ENDMDL
MODEL 3
REMARK VINA RESULT:      -5.9      2.894      4.096
REMARK  Name = 
REMARK  4 active torsions:
REMARK  status: ('A' for Active; 'I' for Inactive)
REMARK    1  A    between atoms: C_1  and  C_2
REMARK    2  A    between atoms: C_5  and  C_6
REMARK    3  A    between atoms: C_6  and  N_7
REMARK    4  A    between atoms: C_12  and  C_14
REMARK                            x       y       z     vdW  Elec       q    Type
REMARK                         _______ _______ _______ _____ _____    ______ ____
ROOT
ATOM      1  N   UNL     1       8.927  -2.430  23.450  0.00  0.00    +0.000 NA
ATOM      2  C   UNL     1       9.494  -3.364  24.400  0.00  0.00    +0.000 C 
ATOM      3  C   UNL     1       8.664  -3.503  25.680  0.00  0.00    +0.000 C 
ATOM      4  C   UNL     1       8.026  -2.176  26.109  0.00  0.00    +0.000 C 
ATOM      5  N   UNL     1       6.922  -1.704  25.256  0.00  0.00    +0.000 N 
ATOM      6  C   UNL     1       6.367  -0.432  25.353  0.00  0.00    +0.000 C 
ATOM      7  O   UNL     1       5.198  -0.206  25.027  0.00  0.00    +0.000 OA
ATOM      8  C   UNL     1       6.483  -2.550  24.142  0.00  0.00    +0.000 C 
ATOM      9  C   UNL     1       7.547  -2.619  23.012  0.00  0.00    +0.000 C 
ENDROOT
BRANCH   6  10
ATOM     10  C   UNL     1       7.292   0.707  25.726  0.00  0.00    +0.000 C 
ATOM     11 CL   UNL     1       7.241   2.010  24.539  0.00  0.00    +0.000 Cl
ENDBRANCH   6  10
BRANCH   1  12
ATOM     12  C   UNL     1       9.847  -1.835  22.493  0.00  0.00    +0.000 C 
BRANCH  12  17
ATOM     13  C   UNL     1      10.943   3.801  23.467  0.00  0.00    +0.000 C 
ATOM     14  C   UNL     1      10.581   2.361  23.251  0.00  0.00    +0.000 A 
ATOM     15  C   UNL     1      10.005   1.953  22.043  0.00  0.00    +0.000 A 
ATOM     16  C   UNL     1       9.709   0.607  21.819  0.00  0.00    +0.000 A 
ATOM     17  C   UNL     1       9.978  -0.357  22.805  0.00  0.00    +0.000 A 
ATOM     18  C   UNL     1      10.508   0.062  24.029  0.00  0.00    +0.000 A 
ATOM     19  C   UNL     1      10.800   1.419  24.260  0.00  0.00    +0.000 A 
ENDBRANCH  12  17
ENDBRANCH   1  12
TORSDOF 3
ENDMDL
MODEL 4
REMARK VINA RESULT:      -5.8      2.410      4.791
REMARK  Name = 
REMARK  4 active torsions:
REMARK  status: ('A' for Active; 'I' for Inactive)
REMARK    1  A    between atoms: C_1  and  C_2
REMARK    2  A    between atoms: C_5  and  C_6
REMARK    3  A    between atoms: C_6  and  N_7
REMARK    4  A    between atoms: C_12  and  C_14
REMARK                            x       y       z     vdW  Elec       q    Type
REMARK                         _______ _______ _______ _____ _____    ______ ____
ROOT
ATOM      1  N   UNL     1       8.682  -1.245  24.199  0.00  0.00    +0.000 NA
ATOM      2  C   UNL     1       9.837  -1.997  23.754  0.00  0.00    +0.000 C 
ATOM      3  C   UNL     1      10.597  -1.317  22.612  0.00  0.00    +0.000 C 
ATOM      4  C   UNL     1       9.661  -0.591  21.637  0.00  0.00    +0.000 C 
ATOM      5  N   UNL     1       9.037   0.635  22.161  0.00  0.00    +0.000 N 
ATOM      6  C   UNL     1       8.003   1.306  21.516  0.00  0.00    +0.000 C 
ATOM      7  O   UNL     1       7.824   2.519  21.661  0.00  0.00    +0.000 OA
ATOM      8  C   UNL     1       9.405   1.092  23.504  0.00  0.00    +0.000 C 
ATOM      9  C   UNL     1       8.861   0.145  24.610  0.00  0.00    +0.000 C 
ENDROOT
BRANCH   6  10
ATOM     10  C   UNL     1       7.002   0.472  20.745  0.00  0.00    +0.000 C 
ATOM     11 CL   UNL     1       7.417   0.364  19.034  0.00  0.00    +0.000 Cl
ENDBRANCH   6  10
BRANCH   1  12
ATOM     12  C   UNL     1       7.629  -1.998  24.862  0.00  0.00    +0.000 C 
BRANCH  12  17
ATOM     13  C   UNL     1       6.115  -5.915  20.827  0.00  0.00    +0.000 C 
ATOM     14  C   UNL     1       6.425  -4.916  21.902  0.00  0.00    +0.000 A 
ATOM     15  C   UNL     1       7.038  -5.329  23.092  0.00  0.00    +0.000 A 
ATOM     16  C   UNL     1       7.371  -4.397  24.076  0.00  0.00    +0.000 A 
ATOM     17  C   UNL     1       7.091  -3.032  23.892  0.00  0.00    +0.000 A 
ATOM     18  C   UNL     1       6.436  -2.631  22.724  0.00  0.00    +0.000 A 
ATOM     19  C   UNL     1       6.091  -3.569  21.734  0.00  0.00    +0.000 A 
ENDBRANCH  12  17
ENDBRANCH   1  12
TORSDOF 3
ENDMDL
MODEL 5
REMARK VINA RESULT:      -5.8      2.619      4.262
REMARK  Name = 
REMARK  4 active torsions:
REMARK  status: ('A' for Active; 'I' for Inactive)
REMARK    1  A    between atoms: C_1  and  C_2
REMARK    2  A    between atoms: C_5  and  C_6
REMARK    3  A    between atoms: C_6  and  N_7
REMARK    4  A    between atoms: C_12  and  C_14
REMARK                            x       y       z     vdW  Elec       q    Type
REMARK                         _______ _______ _______ _____ _____    ______ ____
ROOT
ATOM      1  N   UNL     1       6.380  -3.101  22.236  0.00  0.00    +0.000 NA
ATOM      2  C   UNL     1       6.726  -4.429  21.775  0.00  0.00    +0.000 C 
ATOM      3  C   UNL     1       7.267  -5.334  22.886  0.00  0.00    +0.000 C 
ATOM      4  C   UNL     1       8.123  -4.564  23.901  0.00  0.00    +0.000 C 
ATOM      5  N   UNL     1       7.380  -3.653  24.787  0.00  0.00    +0.000 N 
ATOM      6  C   UNL     1       7.993  -2.718  25.615  0.00  0.00    +0.000 C 
ATOM      7  O   UNL     1       7.463  -2.329  26.660  0.00  0.00    +0.000 OA
ATOM      8  C   UNL     1       5.918  -3.610  24.685  0.00  0.00    +0.000 C 
ATOM      9  C   UNL     1       5.448  -2.963  23.352  0.00  0.00    +0.000 C 
ENDROOT
BRANCH   6  10
ATOM     10  C   UNL     1       9.269  -2.073  25.117  0.00  0.00    +0.000 C 
ATOM     11 CL   UNL     1       9.268  -0.329  25.378  0.00  0.00    +0.000 Cl
ENDBRANCH   6  10
BRANCH   1  12
ATOM     12  C   UNL     1       6.372  -2.045  21.236  0.00  0.00    +0.000 C 
BRANCH  12  17
ATOM     13  C   UNL     1      10.337   2.126  22.129  0.00  0.00    +0.000 C 
ATOM     14  C   UNL     1       9.322   1.032  21.985  0.00  0.00    +0.000 A 
ATOM     15  C   UNL     1       7.958   1.314  22.122  0.00  0.00    +0.000 A 
ATOM     16  C   UNL     1       7.006   0.308  21.943  0.00  0.00    +0.000 A 
ATOM     17  C   UNL     1       7.402  -1.003  21.628  0.00  0.00    +0.000 A 
ATOM     18  C   UNL     1       8.767  -1.291  21.540  0.00  0.00    +0.000 A 
ATOM     19  C   UNL     1       9.729  -0.281  21.728  0.00  0.00    +0.000 A 
ENDBRANCH  12  17
ENDBRANCH   1  12
TORSDOF 3
ENDMDL
MODEL 6
REMARK VINA RESULT:      -5.7      2.933      4.988
REMARK  Name = 
REMARK  4 active torsions:
REMARK  status: ('A' for Active; 'I' for Inactive)
REMARK    1  A    between atoms: C_1  and  C_2
REMARK    2  A    between atoms: C_5  and  C_6
REMARK    3  A    between atoms: C_6  and  N_7
REMARK    4  A    between atoms: C_12  and  C_14
REMARK                            x       y       z     vdW  Elec       q    Type
REMARK                         _______ _______ _______ _____ _____    ______ ____
ROOT
ATOM      1  N   UNL     1       7.587  -1.671  22.555  0.00  0.00    +0.000 NA
ATOM      2  C   UNL     1       7.338  -0.460  23.308  0.00  0.00    +0.000 C 
ATOM      3  C   UNL     1       8.106  -0.402  24.632  0.00  0.00    +0.000 C 
ATOM      4  C   UNL     1       8.222  -1.779  25.300  0.00  0.00    +0.000 C 
ATOM      5  N   UNL     1       9.130  -2.726  24.633  0.00  0.00    +0.000 N 
ATOM      6  C   UNL     1       9.203  -4.077  24.957  0.00  0.00    +0.000 C 
ATOM      7  O   UNL     1      10.234  -4.734  24.782  0.00  0.00    +0.000 OA
ATOM      8  C   UNL     1       9.886  -2.270  23.463  0.00  0.00    +0.000 C 
ATOM      9  C   UNL     1       8.966  -2.032  22.234  0.00  0.00    +0.000 C 
ENDROOT
BRANCH   6  10
ATOM     10  C   UNL     1       7.924  -4.762  25.390  0.00  0.00    +0.000 C 
ATOM     11 CL   UNL     1       7.995  -5.284  27.073  0.00  0.00    +0.000 Cl
ENDBRANCH   6  10
BRANCH   1  12
ATOM     12  C   UNL     1       6.562  -2.069  21.603  0.00  0.00    +0.000 C 
BRANCH  12  17
ATOM     13  C   UNL     1       4.401  -6.909  24.015  0.00  0.00    +0.000 C 
ATOM     14  C   UNL     1       4.888  -5.661  23.340  0.00  0.00    +0.000 A 
ATOM     15  C   UNL     1       4.550  -4.404  23.856  0.00  0.00    +0.000 A 
ATOM     16  C   UNL     1       5.039  -3.240  23.259  0.00  0.00    +0.000 A 
ATOM     17  C   UNL     1       5.870  -3.311  22.129  0.00  0.00    +0.000 A 
ATOM     18  C   UNL     1       6.165  -4.566  21.588  0.00  0.00    +0.000 A 
ATOM     19  C   UNL     1       5.667  -5.741  22.183  0.00  0.00    +0.000 A 
ENDBRANCH  12  17
ENDBRANCH   1  12
TORSDOF 3
ENDMDL
MODEL 7
REMARK VINA RESULT:      -5.6      2.890      4.362
REMARK  Name = 
REMARK  4 active torsions:
REMARK  status: ('A' for Active; 'I' for Inactive)
REMARK    1  A    between atoms: C_1  and  C_2
REMARK    2  A    between atoms: C_5  and  C_6
REMARK    3  A    between atoms: C_6  and  N_7
REMARK    4  A    between atoms: C_12  and  C_14
REMARK                            x       y       z     vdW  Elec       q    Type
REMARK                         _______ _______ _______ _____ _____    ______ ____
ROOT
ATOM      1  N   UNL     1       8.286  -2.311  23.105  0.00  0.00    +0.000 NA
ATOM      2  C   UNL     1       7.510  -2.795  21.982  0.00  0.00    +0.000 C 
ATOM      3  C   UNL     1       6.294  -3.625  22.401  0.00  0.00    +0.000 C 
ATOM      4  C   UNL     1       6.572  -4.484  23.642  0.00  0.00    +0.000 C 
ATOM      5  N   UNL     1       6.698  -3.740  24.906  0.00  0.00    +0.000 N 
ATOM      6  C   UNL     1       7.159  -4.308  26.089  0.00  0.00    +0.000 C 
ATOM      7  O   UNL     1       6.816  -3.878  27.195  0.00  0.00    +0.000 OA
ATOM      8  C   UNL     1       6.479  -2.290  24.893  0.00  0.00    +0.000 C 
ATOM      9  C   UNL     1       7.615  -1.538  24.146  0.00  0.00    +0.000 C 
ENDROOT
BRANCH   6  10
ATOM     10  C   UNL     1       8.222  -5.381  25.981  0.00  0.00    +0.000 C 
ATOM     11 CL   UNL     1       9.722  -4.751  25.300  0.00  0.00    +0.000 Cl
ENDBRANCH   6  10
BRANCH   1  12
ATOM     12  C   UNL     1       9.682  -1.993  22.844  0.00  0.00    +0.000 C 
BRANCH  12  17
ATOM     13  C   UNL     1      11.031   3.651  23.330  0.00  0.00    +0.000 C 
ATOM     14  C   UNL     1      10.605   2.216  23.240  0.00  0.00    +0.000 A 
ATOM     15  C   UNL     1      10.002   1.732  22.072  0.00  0.00    +0.000 A 
ATOM     16  C   UNL     1       9.646   0.386  21.965  0.00  0.00    +0.000 A 
ATOM     17  C   UNL     1       9.880  -0.501  23.029  0.00  0.00    +0.000 A 
ATOM     18  C   UNL     1      10.436  -0.004  24.211  0.00  0.00    +0.000 A 
ATOM     19  C   UNL     1      10.789   1.353  24.324  0.00  0.00    +0.000 A 
ENDBRANCH  12  17
ENDBRANCH   1  12
TORSDOF 3
ENDMDL
MODEL 8
REMARK VINA RESULT:      -5.5      2.108      3.155
REMARK  Name = 
REMARK  4 active torsions:
REMARK  status: ('A' for Active; 'I' for Inactive)
REMARK    1  A    between atoms: C_1  and  C_2
REMARK    2  A    between atoms: C_5  and  C_6
REMARK    3  A    between atoms: C_6  and  N_7
REMARK    4  A    between atoms: C_12  and  C_14
REMARK                            x       y       z     vdW  Elec       q    Type
REMARK                         _______ _______ _______ _____ _____    ______ ____
ROOT
ATOM      1  N   UNL     1       8.915  -2.792  25.099  0.00  0.00    +0.000 NA
ATOM      2  C   UNL     1       8.529  -1.531  25.696  0.00  0.00    +0.000 C 
ATOM      3  C   UNL     1       7.148  -1.572  26.357  0.00  0.00    +0.000 C 
ATOM      4  C   UNL     1       6.159  -2.457  25.587  0.00  0.00    +0.000 C 
ATOM      5  N   UNL     1       6.415  -3.904  25.668  0.00  0.00    +0.000 N 
ATOM      6  C   UNL     1       5.768  -4.845  24.873  0.00  0.00    +0.000 C 
ATOM      7  O   UNL     1       5.604  -6.010  25.247  0.00  0.00    +0.000 OA
ATOM      8  C   UNL     1       7.517  -4.377  26.513  0.00  0.00    +0.000 C 
ATOM      9  C   UNL     1       8.904  -3.997  25.924  0.00  0.00    +0.000 C 
ENDROOT
BRANCH   6  10
ATOM     10  C   UNL     1       5.404  -4.435  23.462  0.00  0.00    +0.000 C 
ATOM     11 CL   UNL     1       6.064  -5.548  22.264  0.00  0.00    +0.000 Cl
ENDBRANCH   6  10
BRANCH   1  12
ATOM     12  C   UNL     1       9.902  -2.734  24.032  0.00  0.00    +0.000 C 
BRANCH  12  17
ATOM     13  C   UNL     1       7.354   0.573  19.971  0.00  0.00    +0.000 C 
ATOM     14  C   UNL     1       8.039  -0.331  20.952  0.00  0.00    +0.000 A 
ATOM     15  C   UNL     1       9.352  -0.064  21.358  0.00  0.00    +0.000 A 
ATOM     16  C   UNL     1       9.979  -0.876  22.306  0.00  0.00    +0.000 A 
ATOM     17  C   UNL     1       9.304  -1.975  22.863  0.00  0.00    +0.000 A 
ATOM     18  C   UNL     1       8.011  -2.267  22.419  0.00  0.00    +0.000 A 
ATOM     19  C   UNL     1       7.380  -1.456  21.457  0.00  0.00    +0.000 A 
ENDBRANCH  12  17
ENDBRANCH   1  12
TORSDOF 3
ENDMDL
MODEL 9
REMARK VINA RESULT:      -5.5      2.530      5.008
REMARK  Name = 
REMARK  4 active torsions:
REMARK  status: ('A' for Active; 'I' for Inactive)
REMARK    1  A    between atoms: C_1  and  C_2
REMARK    2  A    between atoms: C_5  and  C_6
REMARK    3  A    between atoms: C_6  and  N_7
REMARK    4  A    between atoms: C_12  and  C_14
REMARK                            x       y       z     vdW  Elec       q    Type
REMARK                         _______ _______ _______ _____ _____    ______ ____
ROOT
ATOM      1  N   UNL     1       7.756  -0.184  21.529  0.00  0.00    +0.000 NA
ATOM      2  C   UNL     1       7.124   1.064  21.157  0.00  0.00    +0.000 C 
ATOM      3  C   UNL     1       7.697   2.276  21.897  0.00  0.00    +0.000 C 
ATOM      4  C   UNL     1       8.084   1.948  23.345  0.00  0.00    +0.000 C 
ATOM      5  N   UNL     1       9.273   1.093  23.499  0.00  0.00    +0.000 N 
ATOM      6  C   UNL     1       9.650   0.514  24.707  0.00  0.00    +0.000 C 
ATOM      7  O   UNL     1      10.827   0.236  24.955  0.00  0.00    +0.000 OA
ATOM      8  C   UNL     1      10.014   0.696  22.298  0.00  0.00    +0.000 C 
ATOM      9  C   UNL     1       9.208  -0.300  21.420  0.00  0.00    +0.000 C 
ENDROOT
BRANCH   6  10
ATOM     10  C   UNL     1       8.547   0.089  25.653  0.00  0.00    +0.000 C 
ATOM     11 CL   UNL     1       8.895  -1.465  26.411  0.00  0.00    +0.000 Cl
ENDBRANCH   6  10
BRANCH   1  12
ATOM     12  C   UNL     1       6.980  -1.396  21.319  0.00  0.00    +0.000 C 
BRANCH  12  17
ATOM     13  C   UNL     1       6.640  -4.906  25.953  0.00  0.00    +0.000 C 
ATOM     14  C   UNL     1       6.787  -3.954  24.803  0.00  0.00    +0.000 A 
ATOM     15  C   UNL     1       7.719  -4.211  23.790  0.00  0.00    +0.000 A 
ATOM     16  C   UNL     1       7.827  -3.352  22.695  0.00  0.00    +0.000 A 
ATOM     17  C   UNL     1       7.008  -2.215  22.594  0.00  0.00    +0.000 A 
ATOM     18  C   UNL     1       6.114  -1.936  23.632  0.00  0.00    +0.000 A 
ATOM     19  C   UNL     1       6.008  -2.795  24.741  0.00  0.00    +0.000 A 
ENDBRANCH  12  17
ENDBRANCH   1  12
TORSDOF 3
ENDMDL
