MODEL 1
REMARK VINA RESULT:      -6.4      0.000      0.000
REMARK  Name = 
REMARK  4 active torsions:
REMARK  status: ('A' for Active; 'I' for Inactive)
REMARK    1  A    between atoms: C_2  and  C_3
REMARK    2  A    between atoms: C_2  and  N_5
REMARK    3  A    between atoms: N_8  and  C_9
REMARK    4  A    between atoms: C_9  and  C_10
REMARK                            x       y       z     vdW  Elec       q    Type
REMARK                         _______ _______ _______ _____ _____    ______ ____
ROOT
ATOM      1  C   UNL     1       8.618  -3.927  24.164  0.00  0.00    +0.000 C 
ENDROOT
BRANCH   1   2
ATOM      2  C   UNL     1       8.961  -2.599  23.528  0.00  0.00    +0.000 C 
ATOM      3  C   UNL     1       8.572  -2.301  22.234  0.00  0.00    +0.000 C 
ATOM      4  C   UNL     1       8.832  -1.051  21.685  0.00  0.00    +0.000 C 
ATOM      5  C   UNL     1       9.493  -0.091  22.423  0.00  0.00    +0.000 C 
ATOM      6  C   UNL     1       9.925  -0.394  23.719  0.00  0.00    +0.000 C 
ATOM      7  C   UNL     1       9.661  -1.638  24.254  0.00  0.00    +0.000 C 
ATOM      8  O   UNL     1      10.615   0.513  24.486  0.00  0.00    +0.000 OA
ATOM      9  C   UNL     1      10.690   1.770  23.931  0.00  0.00    +0.000 C 
ATOM     10  C   UNL     1      10.270   2.062  22.711  0.00  0.00    +0.000 C 
ATOM     11  O   UNL     1       9.709   1.143  21.851  0.00  0.00    +0.000 OA
ENDBRANCH   1   2
BRANCH   1  15
ATOM     12  N   UNL     1       5.583  -5.340  24.906  0.00  0.00    +0.000 NA
ATOM     13  C   UNL     1       5.396  -3.913  24.711  0.00  0.00    +0.000 C 
ATOM     14  C   UNL     1       6.582  -3.140  25.330  0.00  0.00    +0.000 C 
ATOM     15  N   UNL     1       7.819  -3.879  25.378  0.00  0.00    +0.000 NA
ATOM     16  C   UNL     1       7.691  -5.116  26.127  0.00  0.00    +0.000 C 
ATOM     17  C   UNL     1       6.248  -5.665  26.143  0.00  0.00    +0.000 C 
BRANCH  12  19
ATOM     18  O   UNL     1       4.677  -7.266  24.188  0.00  0.00    +0.000 OA
ATOM     19  C   UNL     1       5.176  -6.182  23.941  0.00  0.00    +0.000 C 
BRANCH  19  20
ATOM     20  C   UNL     1       5.357  -5.744  22.494  0.00  0.00    +0.000 C 
ATOM     21 CL   UNL     1       6.981  -6.183  21.901  0.00  0.00    +0.000 Cl
ENDBRANCH  19  20
ENDBRANCH  12  19
ENDBRANCH   1  15
TORSDOF 4
ENDMDL
MODEL 2
REMARK VINA RESULT:      -6.4      2.876      6.509
REMARK  Name = 
REMARK  4 active torsions:
REMARK  status: ('A' for Active; 'I' for Inactive)
REMARK    1  A    between atoms: C_2  and  C_3
REMARK    2  A    between atoms: C_2  and  N_5
REMARK    3  A    between atoms: N_8  and  C_9
REMARK    4  A    between atoms: C_9  and  C_10
REMARK                            x       y       z     vdW  Elec       q    Type
REMARK                         _______ _______ _______ _____ _____    ______ ____
ROOT
ATOM      1  C   UNL     1       9.679  -2.764  23.950  0.00  0.00    +0.000 C 
ENDROOT
BRANCH   1   2
ATOM      2  C   UNL     1       8.799  -3.738  24.698  0.00  0.00    +0.000 C 
ATOM      3  C   UNL     1       9.071  -4.096  26.007  0.00  0.00    +0.000 C 
ATOM      4  C   UNL     1       8.215  -4.938  26.705  0.00  0.00    +0.000 C 
ATOM      5  C   UNL     1       7.082  -5.438  26.098  0.00  0.00    +0.000 C 
ATOM      6  C   UNL     1       6.816  -5.115  24.763  0.00  0.00    +0.000 C 
ATOM      7  C   UNL     1       7.672  -4.278  24.079  0.00  0.00    +0.000 C 
ATOM      8  O   UNL     1       5.719  -5.610  24.099  0.00  0.00    +0.000 OA
ATOM      9  C   UNL     1       4.846  -6.303  24.906  0.00  0.00    +0.000 C 
ATOM     10  C   UNL     1       5.090  -6.598  26.172  0.00  0.00    +0.000 C 
ATOM     11  O   UNL     1       6.247  -6.249  26.833  0.00  0.00    +0.000 OA
ENDBRANCH   1   2
BRANCH   1  15
ATOM     12  N   UNL     1       8.166  -0.006  22.585  0.00  0.00    +0.000 NA
ATOM     13  C   UNL     1       9.597   0.090  22.360  0.00  0.00    +0.000 C 
ATOM     14  C   UNL     1      10.359  -0.409  23.607  0.00  0.00    +0.000 C 
ATOM     15  N   UNL     1       9.644  -1.381  24.397  0.00  0.00    +0.000 NA
ATOM     16  C   UNL     1       8.365  -0.876  24.863  0.00  0.00    +0.000 C 
ATOM     17  C   UNL     1       7.787   0.231  23.955  0.00  0.00    +0.000 C 
BRANCH  12  19
ATOM     18  O   UNL     1       6.881  -1.442  21.431  0.00  0.00    +0.000 OA
ATOM     19  C   UNL     1       7.370  -0.333  21.553  0.00  0.00    +0.000 C 
BRANCH  19  20
ATOM     20  C   UNL     1       7.087   0.740  20.509  0.00  0.00    +0.000 C 
ATOM     21 CL   UNL     1       7.575   0.184  18.886  0.00  0.00    +0.000 Cl
ENDBRANCH  19  20
ENDBRANCH  12  19
ENDBRANCH   1  15
TORSDOF 4
ENDMDL
MODEL 3
REMARK VINA RESULT:      -6.2      3.728      7.175
REMARK  Name = 
REMARK  4 active torsions:
REMARK  status: ('A' for Active; 'I' for Inactive)
REMARK    1  A    between atoms: C_2  and  C_3
REMARK    2  A    between atoms: C_2  and  N_5
REMARK    3  A    between atoms: N_8  and  C_9
REMARK    4  A    between atoms: C_9  and  C_10
REMARK                            x       y       z     vdW  Elec       q    Type
REMARK                         _______ _______ _______ _____ _____    ______ ____
ROOT
ATOM      1  C   UNL     1       8.631  -0.861  24.354  0.00  0.00    +0.000 C 
ENDROOT
BRANCH   1   2
ATOM      2  C   UNL     1       7.826  -1.822  23.509  0.00  0.00    +0.000 C 
ATOM      3  C   UNL     1       6.855  -1.370  22.633  0.00  0.00    +0.000 C 
ATOM      4  C   UNL     1       6.171  -2.258  21.812  0.00  0.00    +0.000 C 
ATOM      5  C   UNL     1       6.446  -3.609  21.866  0.00  0.00    +0.000 C 
ATOM      6  C   UNL     1       7.399  -4.082  22.775  0.00  0.00    +0.000 C 
ATOM      7  C   UNL     1       8.072  -3.192  23.586  0.00  0.00    +0.000 C 
ATOM      8  O   UNL     1       7.689  -5.420  22.893  0.00  0.00    +0.000 OA
ATOM      9  C   UNL     1       7.086  -6.208  21.939  0.00  0.00    +0.000 C 
ATOM     10  C   UNL     1       6.195  -5.760  21.070  0.00  0.00    +0.000 C 
ATOM     11  O   UNL     1       5.763  -4.452  21.018  0.00  0.00    +0.000 OA
ENDBRANCH   1   2
BRANCH   1  15
ATOM     12  N   UNL     1       9.719   2.153  23.135  0.00  0.00    +0.000 NA
ATOM     13  C   UNL     1       9.535   1.241  22.021  0.00  0.00    +0.000 C 
ATOM     14  C   UNL     1      10.010  -0.174  22.417  0.00  0.00    +0.000 C 
ATOM     15  N   UNL     1       9.926  -0.461  23.828  0.00  0.00    +0.000 NA
ATOM     16  C   UNL     1      10.695   0.476  24.625  0.00  0.00    +0.000 C 
ATOM     17  C   UNL     1      10.877   1.846  23.937  0.00  0.00    +0.000 C 
BRANCH  12  19
ATOM     18  O   UNL     1       8.855   3.875  24.291  0.00  0.00    +0.000 OA
ATOM     19  C   UNL     1       8.814   3.127  23.330  0.00  0.00    +0.000 C 
BRANCH  19  20
ATOM     20  C   UNL     1       7.704   3.279  22.299  0.00  0.00    +0.000 C 
ATOM     21 CL   UNL     1       7.269   4.996  22.088  0.00  0.00    +0.000 Cl
ENDBRANCH  19  20
ENDBRANCH  12  19
ENDBRANCH   1  15
TORSDOF 4
ENDMDL
MODEL 4
REMARK VINA RESULT:      -6.1      2.357      7.131
REMARK  Name = 
REMARK  4 active torsions:
REMARK  status: ('A' for Active; 'I' for Inactive)
REMARK    1  A    between atoms: C_2  and  C_3
REMARK    2  A    between atoms: C_2  and  N_5
REMARK    3  A    between atoms: N_8  and  C_9
REMARK    4  A    between atoms: C_9  and  C_10
REMARK                            x       y       z     vdW  Elec       q    Type
REMARK                         _______ _______ _______ _____ _____    ______ ____
ROOT
ATOM      1  C   UNL     1       7.510  -1.841  24.246  0.00  0.00    +0.000 C 
ENDROOT
BRANCH   1   2
ATOM      2  C   UNL     1       6.803  -3.172  24.367  0.00  0.00    +0.000 C 
ATOM      3  C   UNL     1       7.172  -4.098  25.326  0.00  0.00    +0.000 C 
ATOM      4  C   UNL     1       6.469  -5.287  25.472  0.00  0.00    +0.000 C 
ATOM      5  C   UNL     1       5.396  -5.565  24.653  0.00  0.00    +0.000 C 
ATOM      6  C   UNL     1       5.036  -4.654  23.654  0.00  0.00    +0.000 C 
ATOM      7  C   UNL     1       5.741  -3.477  23.517  0.00  0.00    +0.000 C 
ATOM      8  O   UNL     1       3.996  -4.896  22.789  0.00  0.00    +0.000 OA
ATOM      9  C   UNL     1       3.258  -6.014  23.104  0.00  0.00    +0.000 C 
ATOM     10  C   UNL     1       3.589  -6.870  24.056  0.00  0.00    +0.000 C 
ATOM     11  O   UNL     1       4.710  -6.744  24.847  0.00  0.00    +0.000 OA
ENDBRANCH   1   2
BRANCH   1  15
ATOM     12  N   UNL     1      10.162  -0.122  22.915  0.00  0.00    +0.000 NA
ATOM     13  C   UNL     1      10.279  -1.520  22.540  0.00  0.00    +0.000 C 
ATOM     14  C   UNL     1       9.860  -2.417  23.725  0.00  0.00    +0.000 C 
ATOM     15  N   UNL     1       8.912  -1.813  24.628  0.00  0.00    +0.000 NA
ATOM     16  C   UNL     1       9.411  -0.575  25.199  0.00  0.00    +0.000 C 
ATOM     17  C   UNL     1      10.458   0.123  24.305  0.00  0.00    +0.000 C 
BRANCH  12  19
ATOM     18  O   UNL     1      10.253   1.878  21.897  0.00  0.00    +0.000 OA
ATOM     19  C   UNL     1       9.766   0.765  21.987  0.00  0.00    +0.000 C 
BRANCH  19  20
ATOM     20  C   UNL     1       8.665   0.340  21.024  0.00  0.00    +0.000 C 
ATOM     21 CL   UNL     1       7.057   0.705  21.705  0.00  0.00    +0.000 Cl
ENDBRANCH  19  20
ENDBRANCH  12  19
ENDBRANCH   1  15
TORSDOF 4
ENDMDL
MODEL 5
REMARK VINA RESULT:      -6.1      2.569      6.940
REMARK  Name = 
REMARK  4 active torsions:
REMARK  status: ('A' for Active; 'I' for Inactive)
REMARK    1  A    between atoms: C_2  and  C_3
REMARK    2  A    between atoms: C_2  and  N_5
REMARK    3  A    between atoms: N_8  and  C_9
REMARK    4  A    between atoms: C_9  and  C_10
REMARK                            x       y       z     vdW  Elec       q    Type
REMARK                         _______ _______ _______ _____ _____    ______ ____
ROOT
ATOM      1  C   UNL     1       8.163  -1.455  25.111  0.00  0.00    +0.000 C 
ENDROOT
BRANCH   1   2
ATOM      2  C   UNL     1       7.628  -2.820  25.481  0.00  0.00    +0.000 C 
ATOM      3  C   UNL     1       8.217  -3.577  26.479  0.00  0.00    +0.000 C 
ATOM      4  C   UNL     1       7.673  -4.799  26.856  0.00  0.00    +0.000 C 
ATOM      5  C   UNL     1       6.540  -5.279  26.233  0.00  0.00    +0.000 C 
ATOM      6  C   UNL     1       5.958  -4.541  25.197  0.00  0.00    +0.000 C 
ATOM      7  C   UNL     1       6.506  -3.329  24.830  0.00  0.00    +0.000 C 
ATOM      8  O   UNL     1       4.848  -4.987  24.521  0.00  0.00    +0.000 OA
ATOM      9  C   UNL     1       4.285  -6.120  25.061  0.00  0.00    +0.000 C 
ATOM     10  C   UNL     1       4.827  -6.813  26.049  0.00  0.00    +0.000 C 
ATOM     11  O   UNL     1       6.020  -6.482  26.654  0.00  0.00    +0.000 OA
ENDBRANCH   1   2
BRANCH   1  15
ATOM     12  N   UNL     1       9.443  -0.069  22.248  0.00  0.00    +0.000 NA
ATOM     13  C   UNL     1       9.425  -1.513  22.098  0.00  0.00    +0.000 C 
ATOM     14  C   UNL     1       9.826  -2.184  23.430  0.00  0.00    +0.000 C 
ATOM     15  N   UNL     1       9.525  -1.407  24.606  0.00  0.00    +0.000 NA
ATOM     16  C   UNL     1      10.169  -0.106  24.584  0.00  0.00    +0.000 C 
ATOM     17  C   UNL     1      10.462   0.398  23.154  0.00  0.00    +0.000 C 
BRANCH  12  19
ATOM     18  O   UNL     1       8.531   1.878  21.598  0.00  0.00    +0.000 OA
ATOM     19  C   UNL     1       8.524   0.660  21.593  0.00  0.00    +0.000 C 
BRANCH  19  20
ATOM     20  C   UNL     1       7.442  -0.088  20.825  0.00  0.00    +0.000 C 
ATOM     21 CL   UNL     1       7.681   0.087  19.066  0.00  0.00    +0.000 Cl
ENDBRANCH  19  20
ENDBRANCH  12  19
ENDBRANCH   1  15
TORSDOF 4
ENDMDL
MODEL 6
REMARK VINA RESULT:      -6.1      2.976      7.361
REMARK  Name = 
REMARK  4 active torsions:
REMARK  status: ('A' for Active; 'I' for Inactive)
REMARK    1  A    between atoms: C_2  and  C_3
REMARK    2  A    between atoms: C_2  and  N_5
REMARK    3  A    between atoms: N_8  and  C_9
REMARK    4  A    between atoms: C_9  and  C_10
REMARK                            x       y       z     vdW  Elec       q    Type
REMARK                         _______ _______ _______ _____ _____    ______ ____
ROOT
ATOM      1  C   UNL     1       9.262  -2.696  23.672  0.00  0.00    +0.000 C 
ENDROOT
BRANCH   1   2
ATOM      2  C   UNL     1       8.460  -3.683  24.488  0.00  0.00    +0.000 C 
ATOM      3  C   UNL     1       8.749  -3.918  25.821  0.00  0.00    +0.000 C 
ATOM      4  C   UNL     1       7.961  -4.775  26.578  0.00  0.00    +0.000 C 
ATOM      5  C   UNL     1       6.880  -5.414  26.007  0.00  0.00    +0.000 C 
ATOM      6  C   UNL     1       6.600  -5.215  24.651  0.00  0.00    +0.000 C 
ATOM      7  C   UNL     1       7.389  -4.362  23.908  0.00  0.00    +0.000 C 
ATOM      8  O   UNL     1       5.556  -5.850  24.023  0.00  0.00    +0.000 OA
ATOM      9  C   UNL     1       4.736  -6.552  24.877  0.00  0.00    +0.000 C 
ATOM     10  C   UNL     1       4.992  -6.731  26.162  0.00  0.00    +0.000 C 
ATOM     11  O   UNL     1       6.110  -6.236  26.799  0.00  0.00    +0.000 OA
ENDBRANCH   1   2
BRANCH   1  15
ATOM     12  N   UNL     1       9.408   0.699  23.215  0.00  0.00    +0.000 NA
ATOM     13  C   UNL     1       8.197   0.381  23.950  0.00  0.00    +0.000 C 
ATOM     14  C   UNL     1       7.569  -0.914  23.389  0.00  0.00    +0.000 C 
ATOM     15  N   UNL     1       8.510  -1.824  22.785  0.00  0.00    +0.000 NA
ATOM     16  C   UNL     1       9.244  -1.210  21.693  0.00  0.00    +0.000 C 
ATOM     17  C   UNL     1       9.346   0.325  21.824  0.00  0.00    +0.000 C 
BRANCH  12  19
ATOM     18  O   UNL     1      11.080   0.636  24.714  0.00  0.00    +0.000 OA
ATOM     19  C   UNL     1      10.441   1.248  23.877  0.00  0.00    +0.000 C 
BRANCH  19  20
ATOM     20  C   UNL     1      10.804   2.691  23.553  0.00  0.00    +0.000 C 
ATOM     21 CL   UNL     1       9.497   3.797  24.053  0.00  0.00    +0.000 Cl
ENDBRANCH  19  20
ENDBRANCH  12  19
ENDBRANCH   1  15
TORSDOF 4
ENDMDL
MODEL 7
REMARK VINA RESULT:      -6.0      2.922      6.562
REMARK  Name = 
REMARK  4 active torsions:
REMARK  status: ('A' for Active; 'I' for Inactive)
REMARK    1  A    between atoms: C_2  and  C_3
REMARK    2  A    between atoms: C_2  and  N_5
REMARK    3  A    between atoms: N_8  and  C_9
REMARK    4  A    between atoms: C_9  and  C_10
REMARK                            x       y       z     vdW  Elec       q    Type
REMARK                         _______ _______ _______ _____ _____    ______ ____
ROOT
ATOM      1  C   UNL     1      10.207  -1.303  23.486  0.00  0.00    +0.000 C 
ENDROOT
BRANCH   1   2
ATOM      2  C   UNL     1       9.303  -2.511  23.577  0.00  0.00    +0.000 C 
ATOM      3  C   UNL     1       9.455  -3.449  24.582  0.00  0.00    +0.000 C 
ATOM      4  C   UNL     1       8.574  -4.517  24.696  0.00  0.00    +0.000 C 
ATOM      5  C   UNL     1       7.536  -4.661  23.799  0.00  0.00    +0.000 C 
ATOM      6  C   UNL     1       7.394  -3.740  22.756  0.00  0.00    +0.000 C 
ATOM      7  C   UNL     1       8.275  -2.684  22.652  0.00  0.00    +0.000 C 
ATOM      8  O   UNL     1       6.398  -3.853  21.816  0.00  0.00    +0.000 OA
ATOM      9  C   UNL     1       5.480  -4.841  22.093  0.00  0.00    +0.000 C 
ATOM     10  C   UNL     1       5.606  -5.705  23.086  0.00  0.00    +0.000 C 
ATOM     11  O   UNL     1       6.670  -5.719  23.962  0.00  0.00    +0.000 OA
ENDBRANCH   1   2
BRANCH   1  15
ATOM     12  N   UNL     1       8.760   1.801  23.641  0.00  0.00    +0.000 NA
ATOM     13  C   UNL     1      10.202   1.963  23.590  0.00  0.00    +0.000 C 
ATOM     14  C   UNL     1      10.883   0.874  24.448  0.00  0.00    +0.000 C 
ATOM     15  N   UNL     1      10.126  -0.346  24.577  0.00  0.00    +0.000 NA
ATOM     16  C   UNL     1       8.814  -0.121  25.154  0.00  0.00    +0.000 C 
ATOM     17  C   UNL     1       8.286   1.310  24.911  0.00  0.00    +0.000 C 
BRANCH  12  19
ATOM     18  O   UNL     1       7.917   3.202  22.101  0.00  0.00    +0.000 OA
ATOM     19  C   UNL     1       8.040   2.072  22.540  0.00  0.00    +0.000 C 
BRANCH  19  20
ATOM     20  C   UNL     1       7.359   0.907  21.834  0.00  0.00    +0.000 C 
ATOM     21 CL   UNL     1       8.398   0.262  20.536  0.00  0.00    +0.000 Cl
ENDBRANCH  19  20
ENDBRANCH  12  19
ENDBRANCH   1  15
TORSDOF 4
ENDMDL
MODEL 8
REMARK VINA RESULT:      -5.9      1.715      2.507
REMARK  Name = 
REMARK  4 active torsions:
REMARK  status: ('A' for Active; 'I' for Inactive)
REMARK    1  A    between atoms: C_2  and  C_3
REMARK    2  A    between atoms: C_2  and  N_5
REMARK    3  A    between atoms: N_8  and  C_9
REMARK    4  A    between atoms: C_9  and  C_10
REMARK                            x       y       z     vdW  Elec       q    Type
REMARK                         _______ _______ _______ _____ _____    ______ ____
ROOT
ATOM      1  C   UNL     1       7.417  -3.351  22.380  0.00  0.00    +0.000 C 
ENDROOT
BRANCH   1   2
ATOM      2  C   UNL     1       8.068  -1.987  22.339  0.00  0.00    +0.000 C 
ATOM      3  C   UNL     1       7.714  -1.049  21.385  0.00  0.00    +0.000 C 
ATOM      4  C   UNL     1       8.269   0.224  21.402  0.00  0.00    +0.000 C 
ATOM      5  C   UNL     1       9.191   0.569  22.368  0.00  0.00    +0.000 C 
ATOM      6  C   UNL     1       9.585  -0.382  23.315  0.00  0.00    +0.000 C 
ATOM      7  C   UNL     1       9.028  -1.644  23.290  0.00  0.00    +0.000 C 
ATOM      8  O   UNL     1      10.523  -0.103  24.280  0.00  0.00    +0.000 OA
ATOM      9  C   UNL     1      10.901   1.220  24.324  0.00  0.00    +0.000 C 
ATOM     10  C   UNL     1      10.519   2.124  23.437  0.00  0.00    +0.000 C 
ATOM     11  O   UNL     1       9.698   1.849  22.364  0.00  0.00    +0.000 OA
ENDBRANCH   1   2
BRANCH   1  15
ATOM     12  N   UNL     1       6.191  -4.661  25.301  0.00  0.00    +0.000 NA
ATOM     13  C   UNL     1       5.823  -5.541  24.207  0.00  0.00    +0.000 C 
ATOM     14  C   UNL     1       5.431  -4.703  22.970  0.00  0.00    +0.000 C 
ATOM     15  N   UNL     1       6.061  -3.408  22.899  0.00  0.00    +0.000 NA
ATOM     16  C   UNL     1       5.771  -2.593  24.065  0.00  0.00    +0.000 C 
ATOM     17  C   UNL     1       5.443  -3.429  25.320  0.00  0.00    +0.000 C 
BRANCH  12  19
ATOM     18  O   UNL     1       7.098  -6.036  26.829  0.00  0.00    +0.000 OA
ATOM     19  C   UNL     1       7.178  -5.040  26.131  0.00  0.00    +0.000 C 
BRANCH  19  20
ATOM     20  C   UNL     1       8.431  -4.176  26.185  0.00  0.00    +0.000 C 
ATOM     21 CL   UNL     1       9.799  -4.998  25.391  0.00  0.00    +0.000 Cl
ENDBRANCH  19  20
ENDBRANCH  12  19
ENDBRANCH   1  15
TORSDOF 4
ENDMDL
MODEL 9
REMARK VINA RESULT:      -5.9      2.054      2.730
REMARK  Name = 
REMARK  4 active torsions:
REMARK  status: ('A' for Active; 'I' for Inactive)
REMARK    1  A    between atoms: C_2  and  C_3
REMARK    2  A    between atoms: C_2  and  N_5
REMARK    3  A    between atoms: N_8  and  C_9
REMARK    4  A    between atoms: C_9  and  C_10
REMARK                            x       y       z     vdW  Elec       q    Type
REMARK                         _______ _______ _______ _____ _____    ______ ____
ROOT
ATOM      1  C   UNL     1       8.374  -4.276  24.477  0.00  0.00    +0.000 C 
ENDROOT
BRANCH   1   2
ATOM      2  C   UNL     1       8.513  -3.079  23.565  0.00  0.00    +0.000 C 
ATOM      3  C   UNL     1       9.679  -2.335  23.526  0.00  0.00    +0.000 C 
ATOM      4  C   UNL     1       9.819  -1.280  22.633  0.00  0.00    +0.000 C 
ATOM      5  C   UNL     1       8.789  -0.953  21.776  0.00  0.00    +0.000 C 
ATOM      6  C   UNL     1       7.591  -1.673  21.832  0.00  0.00    +0.000 C 
ATOM      7  C   UNL     1       7.462  -2.718  22.722  0.00  0.00    +0.000 C 
ATOM      8  O   UNL     1       6.522  -1.369  21.024  0.00  0.00    +0.000 OA
ATOM      9  C   UNL     1       6.799  -0.420  20.066  0.00  0.00    +0.000 C 
ATOM     10  C   UNL     1       7.937   0.252  20.003  0.00  0.00    +0.000 C 
ATOM     11  O   UNL     1       8.978   0.084  20.890  0.00  0.00    +0.000 OA
ENDBRANCH   1   2
BRANCH   1  15
ATOM     12  N   UNL     1       5.774  -4.605  26.688  0.00  0.00    +0.000 NA
ATOM     13  C   UNL     1       5.975  -3.193  26.414  0.00  0.00    +0.000 C 
ATOM     14  C   UNL     1       7.486  -2.887  26.322  0.00  0.00    +0.000 C 
ATOM     15  N   UNL     1       8.298  -4.001  25.903  0.00  0.00    +0.000 NA
ATOM     16  C   UNL     1       8.157  -5.146  26.784  0.00  0.00    +0.000 C 
ATOM     17  C   UNL     1       6.802  -5.176  27.522  0.00  0.00    +0.000 C 
BRANCH  12  19
ATOM     18  O   UNL     1       3.579  -4.821  26.259  0.00  0.00    +0.000 OA
ATOM     19  C   UNL     1       4.721  -5.227  26.132  0.00  0.00    +0.000 C 
BRANCH  19  20
ATOM     20  C   UNL     1       4.991  -6.487  25.319  0.00  0.00    +0.000 C 
ATOM     21 CL   UNL     1       5.414  -6.073  23.637  0.00  0.00    +0.000 Cl
ENDBRANCH  19  20
ENDBRANCH  12  19
ENDBRANCH   1  15
TORSDOF 4
ENDMDL
