MODEL 1
REMARK VINA RESULT:      -6.1      0.000      0.000
REMARK  Name = 
REMARK  4 active torsions:
REMARK  status: ('A' for Active; 'I' for Inactive)
REMARK    1  A    between atoms: C_2  and  C_3
REMARK    2  A    between atoms: C_2  and  N_5
REMARK    3  A    between atoms: N_8  and  C_9
REMARK    4  A    between atoms: C_9  and  C_10
REMARK                            x       y       z     vdW  Elec       q    Type
REMARK                         _______ _______ _______ _____ _____    ______ ____
ROOT
ATOM      1  N   UNL     1       8.988  -2.997  24.017  0.00  0.00    +0.000 NA
ATOM      2  C   UNL     1      10.082  -2.206  23.483  0.00  0.00    +0.000 C 
ATOM      3  C   UNL     1       9.597  -0.770  23.266  0.00  0.00    +0.000 C 
ATOM      4  N   UNL     1       8.480  -0.663  22.347  0.00  0.00    +0.000 NA
ATOM      5  C   UNL     1       7.616  -1.835  22.386  0.00  0.00    +0.000 C 
ATOM      6  C   UNL     1       7.656  -2.477  23.763  0.00  0.00    +0.000 C 
ENDROOT
BRANCH   1   8
ATOM      7  O   UNL     1      10.189  -4.732  24.802  0.00  0.00    +0.000 OA
ATOM      8  C   UNL     1       9.112  -4.205  24.594  0.00  0.00    +0.000 C 
BRANCH   8   9
ATOM      9  C   UNL     1       7.820  -4.909  24.996  0.00  0.00    +0.000 C 
ATOM     10 CL   UNL     1       7.801  -5.212  26.754  0.00  0.00    +0.000 Cl
ENDBRANCH   8   9
ENDBRANCH   1   8
BRANCH   4  11
ATOM     11  C   UNL     1       8.796  -0.218  20.997  0.00  0.00    +0.000 C 
BRANCH  11  12
ATOM     12  C   UNL     1       7.635   0.363  20.225  0.00  0.00    +0.000 C 
ATOM     13  C   UNL     1       7.371  -0.037  18.920  0.00  0.00    +0.000 C 
ATOM     14  C   UNL     1       6.267   0.447  18.240  0.00  0.00    +0.000 C 
ATOM     15  C   UNL     1       5.409   1.342  18.856  0.00  0.00    +0.000 C 
ATOM     16  C   UNL     1       5.669   1.761  20.149  0.00  0.00    +0.000 C 
ATOM     17  C   UNL     1       6.777   1.278  20.826  0.00  0.00    +0.000 C 
ENDBRANCH  11  12
ENDBRANCH   4  11
TORSDOF 4
ENDMDL
MODEL 2
REMARK VINA RESULT:      -5.8      3.246      4.170
REMARK  Name = 
REMARK  4 active torsions:
REMARK  status: ('A' for Active; 'I' for Inactive)
REMARK    1  A    between atoms: C_2  and  C_3
REMARK    2  A    between atoms: C_2  and  N_5
REMARK    3  A    between atoms: N_8  and  C_9
REMARK    4  A    between atoms: C_9  and  C_10
REMARK                            x       y       z     vdW  Elec       q    Type
REMARK                         _______ _______ _______ _____ _____    ______ ____
ROOT
ATOM      1  N   UNL     1       6.834  -4.543  24.239  0.00  0.00    +0.000 NA
ATOM      2  C   UNL     1       8.260  -4.797  24.326  0.00  0.00    +0.000 C 
ATOM      3  C   UNL     1       8.951  -3.557  24.901  0.00  0.00    +0.000 C 
ATOM      4  N   UNL     1       8.760  -2.360  24.105  0.00  0.00    +0.000 NA
ATOM      5  C   UNL     1       7.477  -2.352  23.416  0.00  0.00    +0.000 C 
ATOM      6  C   UNL     1       6.446  -3.144  24.205  0.00  0.00    +0.000 C 
ENDROOT
BRANCH   1   8
ATOM      7  O   UNL     1       5.513  -6.223  24.947  0.00  0.00    +0.000 OA
ATOM      8  C   UNL     1       5.887  -5.481  24.059  0.00  0.00    +0.000 C 
BRANCH   8   9
ATOM      9  C   UNL     1       5.277  -5.581  22.665  0.00  0.00    +0.000 C 
ATOM     10 CL   UNL     1       6.546  -5.914  21.455  0.00  0.00    +0.000 Cl
ENDBRANCH   8   9
ENDBRANCH   1   8
BRANCH   4  11
ATOM     11  C   UNL     1       9.877  -1.963  23.259  0.00  0.00    +0.000 C 
BRANCH  11  12
ATOM     12  C   UNL     1      10.096  -0.473  23.145  0.00  0.00    +0.000 C 
ATOM     13  C   UNL     1       9.842   0.199  21.954  0.00  0.00    +0.000 C 
ATOM     14  C   UNL     1       9.980   1.574  21.872  0.00  0.00    +0.000 C 
ATOM     15  C   UNL     1      10.374   2.299  22.984  0.00  0.00    +0.000 C 
ATOM     16  C   UNL     1      10.646   1.641  24.171  0.00  0.00    +0.000 C 
ATOM     17  C   UNL     1      10.512   0.265  24.248  0.00  0.00    +0.000 C 
ENDBRANCH  11  12
ENDBRANCH   4  11
TORSDOF 4
ENDMDL
MODEL 3
REMARK VINA RESULT:      -5.7      2.958      4.048
REMARK  Name = 
REMARK  4 active torsions:
REMARK  status: ('A' for Active; 'I' for Inactive)
REMARK    1  A    between atoms: C_2  and  C_3
REMARK    2  A    between atoms: C_2  and  N_5
REMARK    3  A    between atoms: N_8  and  C_9
REMARK    4  A    between atoms: C_9  and  C_10
REMARK                            x       y       z     vdW  Elec       q    Type
REMARK                         _______ _______ _______ _____ _____    ______ ____
ROOT
ATOM      1  N   UNL     1       7.231  -4.293  26.100  0.00  0.00    +0.000 NA
ATOM      2  C   UNL     1       7.893  -3.043  26.425  0.00  0.00    +0.000 C 
ATOM      3  C   UNL     1       7.923  -2.157  25.177  0.00  0.00    +0.000 C 
ATOM      4  N   UNL     1       8.622  -2.753  24.054  0.00  0.00    +0.000 NA
ATOM      5  C   UNL     1       8.513  -4.205  24.041  0.00  0.00    +0.000 C 
ATOM      6  C   UNL     1       7.210  -4.644  24.691  0.00  0.00    +0.000 C 
ENDROOT
BRANCH   1   8
ATOM      7  O   UNL     1       7.495  -5.816  27.737  0.00  0.00    +0.000 OA
ATOM      8  C   UNL     1       6.767  -5.183  26.995  0.00  0.00    +0.000 C 
BRANCH   8   9
ATOM      9  C   UNL     1       5.255  -5.372  27.055  0.00  0.00    +0.000 C 
ATOM     10 CL   UNL     1       4.788  -6.892  26.247  0.00  0.00    +0.000 Cl
ENDBRANCH   8   9
ENDBRANCH   1   8
BRANCH   4  11
ATOM     11  C   UNL     1       9.974  -2.269  23.807  0.00  0.00    +0.000 C 
BRANCH  11  12
ATOM     12  C   UNL     1      10.068  -0.825  23.375  0.00  0.00    +0.000 C 
ATOM     13  C   UNL     1       9.639  -0.426  22.113  0.00  0.00    +0.000 C 
ATOM     14  C   UNL     1       9.665   0.908  21.745  0.00  0.00    +0.000 C 
ATOM     15  C   UNL     1      10.121   1.865  22.636  0.00  0.00    +0.000 C 
ATOM     16  C   UNL     1      10.566   1.479  23.888  0.00  0.00    +0.000 C 
ATOM     17  C   UNL     1      10.544   0.144  24.252  0.00  0.00    +0.000 C 
ENDBRANCH  11  12
ENDBRANCH   4  11
TORSDOF 4
ENDMDL
MODEL 4
REMARK VINA RESULT:      -5.7      3.506      6.587
REMARK  Name = 
REMARK  4 active torsions:
REMARK  status: ('A' for Active; 'I' for Inactive)
REMARK    1  A    between atoms: C_2  and  C_3
REMARK    2  A    between atoms: C_2  and  N_5
REMARK    3  A    between atoms: N_8  and  C_9
REMARK    4  A    between atoms: C_9  and  C_10
REMARK                            x       y       z     vdW  Elec       q    Type
REMARK                         _______ _______ _______ _____ _____    ______ ____
ROOT
ATOM      1  N   UNL     1       7.635  -0.399  20.655  0.00  0.00    +0.000 NA
ATOM      2  C   UNL     1       7.144  -1.416  21.567  0.00  0.00    +0.000 C 
ATOM      3  C   UNL     1       7.681  -1.125  22.972  0.00  0.00    +0.000 C 
ATOM      4  N   UNL     1       9.129  -1.114  23.053  0.00  0.00    +0.000 NA
ATOM      5  C   UNL     1       9.750  -0.664  21.816  0.00  0.00    +0.000 C 
ATOM      6  C   UNL     1       8.833   0.302  21.083  0.00  0.00    +0.000 C 
ENDROOT
BRANCH   1   8
ATOM      7  O   UNL     1       7.866   0.030  18.458  0.00  0.00    +0.000 OA
ATOM      8  C   UNL     1       7.151  -0.161  19.423  0.00  0.00    +0.000 C 
BRANCH   8   9
ATOM      9  C   UNL     1       5.634  -0.147  19.273  0.00  0.00    +0.000 C 
ATOM     10 CL   UNL     1       5.057   1.513  18.965  0.00  0.00    +0.000 Cl
ENDBRANCH   8   9
ENDBRANCH   1   8
BRANCH   4  11
ATOM     11  C   UNL     1       9.751  -2.305  23.616  0.00  0.00    +0.000 C 
BRANCH  11  12
ATOM     12  C   UNL     1       8.838  -3.168  24.455  0.00  0.00    +0.000 C 
ATOM     13  C   UNL     1       8.558  -2.840  25.777  0.00  0.00    +0.000 C 
ATOM     14  C   UNL     1       7.669  -3.596  26.522  0.00  0.00    +0.000 C 
ATOM     15  C   UNL     1       7.046  -4.694  25.954  0.00  0.00    +0.000 C 
ATOM     16  C   UNL     1       7.329  -5.041  24.644  0.00  0.00    +0.000 C 
ATOM     17  C   UNL     1       8.222  -4.286  23.903  0.00  0.00    +0.000 C 
ENDBRANCH  11  12
ENDBRANCH   4  11
TORSDOF 4
ENDMDL
MODEL 5
REMARK VINA RESULT:      -5.6      1.849      2.249
REMARK  Name = 
REMARK  4 active torsions:
REMARK  status: ('A' for Active; 'I' for Inactive)
REMARK    1  A    between atoms: C_2  and  C_3
REMARK    2  A    between atoms: C_2  and  N_5
REMARK    3  A    between atoms: N_8  and  C_9
REMARK    4  A    between atoms: C_9  and  C_10
REMARK                            x       y       z     vdW  Elec       q    Type
REMARK                         _______ _______ _______ _____ _____    ______ ____
ROOT
ATOM      1  N   UNL     1       8.046  -2.392  23.050  0.00  0.00    +0.000 NA
ATOM      2  C   UNL     1       9.057  -1.834  22.170  0.00  0.00    +0.000 C 
ATOM      3  C   UNL     1       9.418  -0.427  22.656  0.00  0.00    +0.000 C 
ATOM      4  N   UNL     1       8.293   0.489  22.680  0.00  0.00    +0.000 NA
ATOM      5  C   UNL     1       7.033  -0.188  22.954  0.00  0.00    +0.000 C 
ATOM      6  C   UNL     1       7.270  -1.424  23.807  0.00  0.00    +0.000 C 
ENDROOT
BRANCH   1   8
ATOM      7  O   UNL     1       8.090  -4.437  23.989  0.00  0.00    +0.000 OA
ATOM      8  C   UNL     1       7.701  -3.690  23.112  0.00  0.00    +0.000 C 
BRANCH   8   9
ATOM      9  C   UNL     1       6.772  -4.205  22.017  0.00  0.00    +0.000 C 
ATOM     10 CL   UNL     1       7.184  -5.889  21.597  0.00  0.00    +0.000 Cl
ENDBRANCH   8   9
ENDBRANCH   1   8
BRANCH   4  11
ATOM     11  C   UNL     1       8.214   1.442  21.582  0.00  0.00    +0.000 C 
BRANCH  11  12
ATOM     12  C   UNL     1       7.246   1.073  20.482  0.00  0.00    +0.000 C 
ATOM     13  C   UNL     1       6.037   1.745  20.338  0.00  0.00    +0.000 C 
ATOM     14  C   UNL     1       5.183   1.451  19.289  0.00  0.00    +0.000 C 
ATOM     15  C   UNL     1       5.526   0.476  18.367  0.00  0.00    +0.000 C 
ATOM     16  C   UNL     1       6.719  -0.212  18.509  0.00  0.00    +0.000 C 
ATOM     17  C   UNL     1       7.569   0.082  19.562  0.00  0.00    +0.000 C 
ENDBRANCH  11  12
ENDBRANCH   4  11
TORSDOF 4
ENDMDL
MODEL 6
REMARK VINA RESULT:      -5.6      4.150      5.798
REMARK  Name = 
REMARK  4 active torsions:
REMARK  status: ('A' for Active; 'I' for Inactive)
REMARK    1  A    between atoms: C_2  and  C_3
REMARK    2  A    between atoms: C_2  and  N_5
REMARK    3  A    between atoms: N_8  and  C_9
REMARK    4  A    between atoms: C_9  and  C_10
REMARK                            x       y       z     vdW  Elec       q    Type
REMARK                         _______ _______ _______ _____ _____    ______ ____
ROOT
ATOM      1  N   UNL     1       7.989  -0.318  20.846  0.00  0.00    +0.000 NA
ATOM      2  C   UNL     1       9.382  -0.189  21.232  0.00  0.00    +0.000 C 
ATOM      3  C   UNL     1       9.658  -1.119  22.417  0.00  0.00    +0.000 C 
ATOM      4  N   UNL     1       8.845  -0.836  23.584  0.00  0.00    +0.000 NA
ATOM      5  C   UNL     1       7.536  -0.305  23.231  0.00  0.00    +0.000 C 
ATOM      6  C   UNL     1       7.099  -0.832  21.873  0.00  0.00    +0.000 C 
ENDROOT
BRANCH   1   8
ATOM      7  O   UNL     1       7.924  -0.171  18.601  0.00  0.00    +0.000 OA
ATOM      8  C   UNL     1       7.460   0.114  19.688  0.00  0.00    +0.000 C 
BRANCH   8   9
ATOM      9  C   UNL     1       6.218   0.993  19.788  0.00  0.00    +0.000 C 
ATOM     10 CL   UNL     1       5.549   1.308  18.164  0.00  0.00    +0.000 Cl
ENDBRANCH   8   9
ENDBRANCH   1   8
BRANCH   4  11
ATOM     11  C   UNL     1       9.497  -0.105  24.662  0.00  0.00    +0.000 C 
BRANCH  11  12
ATOM     12  C   UNL     1       9.545   1.394  24.482  0.00  0.00    +0.000 C 
ATOM     13  C   UNL     1      10.565   1.995  23.753  0.00  0.00    +0.000 C 
ATOM     14  C   UNL     1      10.569   3.362  23.534  0.00  0.00    +0.000 C 
ATOM     15  C   UNL     1       9.550   4.149  24.043  0.00  0.00    +0.000 C 
ATOM     16  C   UNL     1       8.538   3.566  24.784  0.00  0.00    +0.000 C 
ATOM     17  C   UNL     1       8.539   2.199  25.005  0.00  0.00    +0.000 C 
ENDBRANCH  11  12
ENDBRANCH   4  11
TORSDOF 4
ENDMDL
MODEL 7
REMARK VINA RESULT:      -5.4      1.166      1.999
REMARK  Name = 
REMARK  4 active torsions:
REMARK  status: ('A' for Active; 'I' for Inactive)
REMARK    1  A    between atoms: C_2  and  C_3
REMARK    2  A    between atoms: C_2  and  N_5
REMARK    3  A    between atoms: N_8  and  C_9
REMARK    4  A    between atoms: C_9  and  C_10
REMARK                            x       y       z     vdW  Elec       q    Type
REMARK                         _______ _______ _______ _____ _____    ______ ____
ROOT
ATOM      1  N   UNL     1       8.243  -2.527  24.336  0.00  0.00    +0.000 NA
ATOM      2  C   UNL     1       7.313  -1.826  23.470  0.00  0.00    +0.000 C 
ATOM      3  C   UNL     1       7.828  -1.893  22.029  0.00  0.00    +0.000 C 
ATOM      4  N   UNL     1       9.139  -1.298  21.850  0.00  0.00    +0.000 NA
ATOM      5  C   UNL     1       9.972  -1.424  23.038  0.00  0.00    +0.000 C 
ATOM      6  C   UNL     1       9.594  -2.671  23.821  0.00  0.00    +0.000 C 
ENDROOT
BRANCH   1   8
ATOM      7  O   UNL     1       8.737  -2.698  26.526  0.00  0.00    +0.000 OA
ATOM      8  C   UNL     1       7.985  -2.922  25.595  0.00  0.00    +0.000 C 
BRANCH   8   9
ATOM      9  C   UNL     1       6.679  -3.675  25.825  0.00  0.00    +0.000 C 
ATOM     10 CL   UNL     1       6.968  -5.435  25.811  0.00  0.00    +0.000 Cl
ENDBRANCH   8   9
ENDBRANCH   1   8
BRANCH   4  11
ATOM     11  C   UNL     1       9.168   0.032  21.258  0.00  0.00    +0.000 C 
BRANCH  11  12
ATOM     12  C   UNL     1       7.910   0.433  20.523  0.00  0.00    +0.000 C 
ATOM     13  C   UNL     1       6.986   1.295  21.102  0.00  0.00    +0.000 C 
ATOM     14  C   UNL     1       5.869   1.713  20.400  0.00  0.00    +0.000 C 
ATOM     15  C   UNL     1       5.659   1.273  19.104  0.00  0.00    +0.000 C 
ATOM     16  C   UNL     1       6.563   0.402  18.521  0.00  0.00    +0.000 C 
ATOM     17  C   UNL     1       7.677  -0.018  19.228  0.00  0.00    +0.000 C 
ENDBRANCH  11  12
ENDBRANCH   4  11
TORSDOF 4
ENDMDL
MODEL 8
REMARK VINA RESULT:      -5.3      2.802      3.722
REMARK  Name = 
REMARK  4 active torsions:
REMARK  status: ('A' for Active; 'I' for Inactive)
REMARK    1  A    between atoms: C_2  and  C_3
REMARK    2  A    between atoms: C_2  and  N_5
REMARK    3  A    between atoms: N_8  and  C_9
REMARK    4  A    between atoms: C_9  and  C_10
REMARK                            x       y       z     vdW  Elec       q    Type
REMARK                         _______ _______ _______ _____ _____    ______ ____
ROOT
ATOM      1  N   UNL     1       7.536  -3.290  23.126  0.00  0.00    +0.000 NA
ATOM      2  C   UNL     1       8.663  -2.440  23.461  0.00  0.00    +0.000 C 
ATOM      3  C   UNL     1       8.177  -0.992  23.576  0.00  0.00    +0.000 C 
ATOM      4  N   UNL     1       7.577  -0.479  22.359  0.00  0.00    +0.000 NA
ATOM      5  C   UNL     1       6.914  -1.520  21.586  0.00  0.00    +0.000 C 
ATOM      6  C   UNL     1       6.406  -2.619  22.505  0.00  0.00    +0.000 C 
ENDROOT
BRANCH   1   8
ATOM      7  O   UNL     1       8.428  -5.271  23.716  0.00  0.00    +0.000 OA
ATOM      8  C   UNL     1       7.517  -4.631  23.226  0.00  0.00    +0.000 C 
BRANCH   8   9
ATOM      9  C   UNL     1       6.276  -5.341  22.694  0.00  0.00    +0.000 C 
ATOM     10 CL   UNL     1       6.528  -5.844  21.001  0.00  0.00    +0.000 Cl
ENDBRANCH   8   9
ENDBRANCH   1   8
BRANCH   4  11
ATOM     11  C   UNL     1       8.410   0.403  21.553  0.00  0.00    +0.000 C 
BRANCH  11  12
ATOM     12  C   UNL     1       8.882   1.655  22.253  0.00  0.00    +0.000 C 
ATOM     13  C   UNL     1       7.980   2.639  22.645  0.00  0.00    +0.000 C 
ATOM     14  C   UNL     1       8.408   3.753  23.346  0.00  0.00    +0.000 C 
ATOM     15  C   UNL     1       9.747   3.901  23.664  0.00  0.00    +0.000 C 
ATOM     16  C   UNL     1      10.657   2.938  23.265  0.00  0.00    +0.000 C 
ATOM     17  C   UNL     1      10.227   1.827  22.561  0.00  0.00    +0.000 C 
ENDBRANCH  11  12
ENDBRANCH   4  11
TORSDOF 4
ENDMDL
MODEL 9
REMARK VINA RESULT:      -5.1      4.139      4.823
REMARK  Name = 
REMARK  4 active torsions:
REMARK  status: ('A' for Active; 'I' for Inactive)
REMARK    1  A    between atoms: C_2  and  C_3
REMARK    2  A    between atoms: C_2  and  N_5
REMARK    3  A    between atoms: N_8  and  C_9
REMARK    4  A    between atoms: C_9  and  C_10
REMARK                            x       y       z     vdW  Elec       q    Type
REMARK                         _______ _______ _______ _____ _____    ______ ____
ROOT
ATOM      1  N   UNL     1       6.805  -4.576  25.088  0.00  0.00    +0.000 NA
ATOM      2  C   UNL     1       6.422  -3.248  24.646  0.00  0.00    +0.000 C 
ATOM      3  C   UNL     1       7.688  -2.443  24.336  0.00  0.00    +0.000 C 
ATOM      4  N   UNL     1       8.579  -2.295  25.471  0.00  0.00    +0.000 NA
ATOM      5  C   UNL     1       8.520  -3.436  26.374  0.00  0.00    +0.000 C 
ATOM      6  C   UNL     1       8.155  -4.699  25.610  0.00  0.00    +0.000 C 
ENDROOT
BRANCH   1   8
ATOM      7  O   UNL     1       5.899  -6.335  26.162  0.00  0.00    +0.000 OA
ATOM      8  C   UNL     1       5.981  -5.635  25.170  0.00  0.00    +0.000 C 
BRANCH   8   9
ATOM      9  C   UNL     1       5.124  -5.934  23.944  0.00  0.00    +0.000 C 
ATOM     10 CL   UNL     1       6.159  -6.230  22.522  0.00  0.00    +0.000 Cl
ENDBRANCH   8   9
ENDBRANCH   1   8
BRANCH   4  11
ATOM     11  C   UNL     1       8.544  -1.010  26.154  0.00  0.00    +0.000 C 
BRANCH  11  12
ATOM     12  C   UNL     1       9.155   0.140  25.387  0.00  0.00    +0.000 C 
ATOM     13  C   UNL     1      10.433   0.042  24.848  0.00  0.00    +0.000 C 
ATOM     14  C   UNL     1      10.962   1.072  24.089  0.00  0.00    +0.000 C 
ATOM     15  C   UNL     1      10.219   2.217  23.858  0.00  0.00    +0.000 C 
ATOM     16  C   UNL     1       8.953   2.334  24.403  0.00  0.00    +0.000 C 
ATOM     17  C   UNL     1       8.427   1.304  25.166  0.00  0.00    +0.000 C 
ENDBRANCH  11  12
ENDBRANCH   4  11
TORSDOF 4
ENDMDL
