MODEL 1
REMARK VINA RESULT:      -6.8      0.000      0.000
REMARK  Name = 
REMARK  3 active torsions:
REMARK  status: ('A' for Active; 'I' for Inactive)
REMARK    1  A    between atoms: C_2  and  C_3
REMARK    2  A    between atoms: N_8  and  C_9
REMARK    3  A    between atoms: C_9  and  C_10
REMARK                            x       y       z     vdW  Elec       q    Type
REMARK                         _______ _______ _______ _____ _____    ______ ____
ROOT
ATOM      1  C   UNL     1       9.933  -0.175  25.044  0.00  0.00    +0.000 C 
ENDROOT
BRANCH   1   2
ATOM      2  C   UNL     1       9.763   1.255  24.524  0.00  0.00    +0.000 A 
ATOM      3  C   UNL     1       8.579   1.950  24.843  0.00  0.00    +0.000 A 
ATOM      4  C   UNL     1       8.436   3.324  24.608  0.00  0.00    +0.000 A 
ATOM      5  C   UNL     1       9.515   4.018  24.082  0.00  0.00    +0.000 A 
ATOM      6  C   UNL     1      10.649   3.283  23.577  0.00  0.00    +0.000 A 
ATOM      7  C   UNL     1      10.704   1.910  23.716  0.00  0.00    +0.000 A 
ATOM      8  O   UNL     1      11.645   3.901  23.075  0.00  0.00    +0.000 OA
ATOM      9  C   UNL     1      11.765   5.122  23.412  0.00  0.00    +0.000 A 
ATOM     10  C   UNL     1      10.653   5.851  23.937  0.00  0.00    +0.000 A 
ATOM     11  O   UNL     1       9.518   5.287  24.106  0.00  0.00    +0.000 OA
ENDBRANCH   1   2
BRANCH   1  17
ATOM     12  O   UNL     1       7.439   1.729  21.532  0.00  0.00    +0.000 OA
ATOM     13  C   UNL     1       7.762   0.589  21.148  0.00  0.00    +0.000 C 
ATOM     14  N   UNL     1       8.228  -0.325  22.078  0.00  0.00    +0.000 N 
ATOM     15  C   UNL     1       7.240  -0.949  22.974  0.00  0.00    +0.000 C 
ATOM     16  C   UNL     1       7.871  -1.500  24.284  0.00  0.00    +0.000 C 
ATOM     17  N   UNL     1       9.315  -1.313  24.365  0.00  0.00    +0.000 NA
ATOM     18  C   UNL     1       9.954  -1.800  23.134  0.00  0.00    +0.000 C 
ATOM     19  C   UNL     1       9.432  -1.137  21.839  0.00  0.00    +0.000 C 
BRANCH  13  20
ATOM     20  C   UNL     1       7.736   0.206  19.670  0.00  0.00    +0.000 C 
ATOM     21 CL   UNL     1       6.203  -0.569  19.236  0.00  0.00    +0.000 Cl
ENDBRANCH  13  20
ENDBRANCH   1  17
TORSDOF 3
ENDMDL
MODEL 2
REMARK VINA RESULT:      -6.7      2.545      5.462
REMARK  Name = 
REMARK  3 active torsions:
REMARK  status: ('A' for Active; 'I' for Inactive)
REMARK    1  A    between atoms: C_2  and  C_3
REMARK    2  A    between atoms: N_8  and  C_9
REMARK    3  A    between atoms: C_9  and  C_10
REMARK                            x       y       z     vdW  Elec       q    Type
REMARK                         _______ _______ _______ _____ _____    ______ ____
ROOT
ATOM      1  C   UNL     1       7.353  -0.727  24.071  0.00  0.00    +0.000 C 
ENDROOT
BRANCH   1   2
ATOM      2  C   UNL     1       7.509  -0.202  22.641  0.00  0.00    +0.000 A 
ATOM      3  C   UNL     1       8.539  -0.731  21.839  0.00  0.00    +0.000 A 
ATOM      4  C   UNL     1       8.614  -0.482  20.462  0.00  0.00    +0.000 A 
ATOM      5  C   UNL     1       7.613   0.278  19.876  0.00  0.00    +0.000 A 
ATOM      6  C   UNL     1       6.674   0.978  20.717  0.00  0.00    +0.000 A 
ATOM      7  C   UNL     1       6.705   0.805  22.087  0.00  0.00    +0.000 A 
ATOM      8  O   UNL     1       5.756   1.695  20.199  0.00  0.00    +0.000 OA
ATOM      9  C   UNL     1       5.468   1.434  18.987  0.00  0.00    +0.000 A 
ATOM     10  C   UNL     1       6.383   0.719  18.154  0.00  0.00    +0.000 A 
ATOM     11  O   UNL     1       7.501   0.301  18.612  0.00  0.00    +0.000 OA
ENDBRANCH   1   2
BRANCH   1  17
ATOM     12  O   UNL     1      10.381   2.246  22.028  0.00  0.00    +0.000 OA
ATOM     13  C   UNL     1      10.196   2.680  23.181  0.00  0.00    +0.000 C 
ATOM     14  N   UNL     1       9.606   1.852  24.122  0.00  0.00    +0.000 N 
ATOM     15  C   UNL     1      10.432   0.779  24.700  0.00  0.00    +0.000 C 
ATOM     16  C   UNL     1       9.588  -0.387  25.287  0.00  0.00    +0.000 C 
ATOM     17  N   UNL     1       8.148  -0.186  25.174  0.00  0.00    +0.000 NA
ATOM     18  C   UNL     1       7.784   1.142  25.687  0.00  0.00    +0.000 C 
ATOM     19  C   UNL     1       8.513   2.316  24.993  0.00  0.00    +0.000 C 
BRANCH  13  20
ATOM     20  C   UNL     1      10.527   4.122  23.556  0.00  0.00    +0.000 C 
ATOM     21 CL   UNL     1      12.226   4.498  23.220  0.00  0.00    +0.000 Cl
ENDBRANCH  13  20
ENDBRANCH   1  17
TORSDOF 3
ENDMDL
MODEL 3
REMARK VINA RESULT:      -6.5      3.389      5.003
REMARK  Name = 
REMARK  3 active torsions:
REMARK  status: ('A' for Active; 'I' for Inactive)
REMARK    1  A    between atoms: C_2  and  C_3
REMARK    2  A    between atoms: N_8  and  C_9
REMARK    3  A    between atoms: C_9  and  C_10
REMARK                            x       y       z     vdW  Elec       q    Type
REMARK                         _______ _______ _______ _____ _____    ______ ____
ROOT
ATOM      1  C   UNL     1      10.141   0.601  22.116  0.00  0.00    +0.000 C 
ENDROOT
BRANCH   1   2
ATOM      2  C   UNL     1       8.702   0.722  21.606  0.00  0.00    +0.000 A 
ATOM      3  C   UNL     1       7.885   1.742  22.133  0.00  0.00    +0.000 A 
ATOM      4  C   UNL     1       6.646   2.069  21.568  0.00  0.00    +0.000 A 
ATOM      5  C   UNL     1       6.241   1.389  20.429  0.00  0.00    +0.000 A 
ATOM      6  C   UNL     1       6.976   0.223  20.005  0.00  0.00    +0.000 A 
ATOM      7  C   UNL     1       8.133  -0.146  20.662  0.00  0.00    +0.000 A 
ATOM      8  O   UNL     1       6.611  -0.427  18.970  0.00  0.00    +0.000 OA
ATOM      9  C   UNL     1       5.879   0.210  18.148  0.00  0.00    +0.000 A 
ATOM     10  C   UNL     1       5.167   1.381  18.553  0.00  0.00    +0.000 A 
ATOM     11  O   UNL     1       5.269   1.832  19.745  0.00  0.00    +0.000 OA
ENDBRANCH   1   2
BRANCH   1  17
ATOM     12  O   UNL     1       6.013  -0.413  24.144  0.00  0.00    +0.000 OA
ATOM     13  C   UNL     1       6.759  -1.384  24.375  0.00  0.00    +0.000 C 
ATOM     14  N   UNL     1       8.123  -1.243  24.179  0.00  0.00    +0.000 N 
ATOM     15  C   UNL     1       8.879  -0.473  25.181  0.00  0.00    +0.000 C 
ATOM     16  C   UNL     1      10.220   0.089  24.630  0.00  0.00    +0.000 C 
ATOM     17  N   UNL     1      10.481  -0.271  23.241  0.00  0.00    +0.000 NA
ATOM     18  C   UNL     1      10.310  -1.719  23.055  0.00  0.00    +0.000 C 
ATOM     19  C   UNL     1       8.917  -2.253  23.461  0.00  0.00    +0.000 C 
BRANCH  13  20
ATOM     20  C   UNL     1       6.199  -2.744  24.785  0.00  0.00    +0.000 C 
ATOM     21 CL   UNL     1       5.272  -3.479  23.466  0.00  0.00    +0.000 Cl
ENDBRANCH  13  20
ENDBRANCH   1  17
TORSDOF 3
ENDMDL
MODEL 4
REMARK VINA RESULT:      -6.5      3.616      5.333
REMARK  Name = 
REMARK  3 active torsions:
REMARK  status: ('A' for Active; 'I' for Inactive)
REMARK    1  A    between atoms: C_2  and  C_3
REMARK    2  A    between atoms: N_8  and  C_9
REMARK    3  A    between atoms: C_9  and  C_10
REMARK                            x       y       z     vdW  Elec       q    Type
REMARK                         _______ _______ _______ _____ _____    ______ ____
ROOT
ATOM      1  C   UNL     1       8.137   1.085  23.987  0.00  0.00    +0.000 C 
ENDROOT
BRANCH   1   2
ATOM      2  C   UNL     1       7.961   0.994  22.469  0.00  0.00    +0.000 A 
ATOM      3  C   UNL     1       8.859   0.195  21.734  0.00  0.00    +0.000 A 
ATOM      4  C   UNL     1       8.639  -0.127  20.389  0.00  0.00    +0.000 A 
ATOM      5  C   UNL     1       7.477   0.326  19.784  0.00  0.00    +0.000 A 
ATOM      6  C   UNL     1       6.658   1.298  20.467  0.00  0.00    +0.000 A 
ATOM      7  C   UNL     1       6.973   1.688  21.755  0.00  0.00    +0.000 A 
ATOM      8  O   UNL     1       5.594   1.741  19.923  0.00  0.00    +0.000 OA
ATOM      9  C   UNL     1       5.101   1.014  19.002  0.00  0.00    +0.000 A 
ATOM     10  C   UNL     1       5.897   0.031  18.337  0.00  0.00    +0.000 A 
ATOM     11  O   UNL     1       7.118  -0.160  18.668  0.00  0.00    +0.000 OA
ENDBRANCH   1   2
BRANCH   1  17
ATOM     12  O   UNL     1       7.655  -3.093  21.867  0.00  0.00    +0.000 OA
ATOM     13  C   UNL     1       7.573  -3.315  23.090  0.00  0.00    +0.000 C 
ATOM     14  N   UNL     1       7.363  -2.252  23.952  0.00  0.00    +0.000 N 
ATOM     15  C   UNL     1       6.009  -1.674  24.005  0.00  0.00    +0.000 C 
ATOM     16  C   UNL     1       5.992  -0.214  24.537  0.00  0.00    +0.000 C 
ATOM     17  N   UNL     1       7.309   0.295  24.900  0.00  0.00    +0.000 NA
ATOM     18  C   UNL     1       7.993  -0.662  25.782  0.00  0.00    +0.000 C 
ATOM     19  C   UNL     1       8.147  -2.080  25.186  0.00  0.00    +0.000 C 
BRANCH  13  20
ATOM     20  C   UNL     1       7.782  -4.714  23.665  0.00  0.00    +0.000 C 
ATOM     21 CL   UNL     1       7.496  -5.960  22.437  0.00  0.00    +0.000 Cl
ENDBRANCH  13  20
ENDBRANCH   1  17
TORSDOF 3
ENDMDL
MODEL 5
REMARK VINA RESULT:      -6.5      3.713      6.899
REMARK  Name = 
REMARK  3 active torsions:
REMARK  status: ('A' for Active; 'I' for Inactive)
REMARK    1  A    between atoms: C_2  and  C_3
REMARK    2  A    between atoms: N_8  and  C_9
REMARK    3  A    between atoms: C_9  and  C_10
REMARK                            x       y       z     vdW  Elec       q    Type
REMARK                         _______ _______ _______ _____ _____    ______ ____
ROOT
ATOM      1  C   UNL     1       9.483  -2.291  23.093  0.00  0.00    +0.000 C 
ENDROOT
BRANCH   1   2
ATOM      2  C   UNL     1       8.883  -3.477  23.854  0.00  0.00    +0.000 A 
ATOM      3  C   UNL     1       9.495  -3.883  25.057  0.00  0.00    +0.000 A 
ATOM      4  C   UNL     1       8.890  -4.798  25.928  0.00  0.00    +0.000 A 
ATOM      5  C   UNL     1       7.631  -5.281  25.605  0.00  0.00    +0.000 A 
ATOM      6  C   UNL     1       7.091  -5.022  24.293  0.00  0.00    +0.000 A 
ATOM      7  C   UNL     1       7.774  -4.211  23.408  0.00  0.00    +0.000 A 
ATOM      8  O   UNL     1       5.942  -5.471  23.970  0.00  0.00    +0.000 OA
ATOM      9  C   UNL     1       5.172  -5.768  24.938  0.00  0.00    +0.000 A 
ATOM     10  C   UNL     1       5.696  -6.001  26.247  0.00  0.00    +0.000 A 
ATOM     11  O   UNL     1       6.948  -5.892  26.483  0.00  0.00    +0.000 OA
ENDBRANCH   1   2
BRANCH   1  17
ATOM     12  O   UNL     1       7.916  -0.036  19.265  0.00  0.00    +0.000 OA
ATOM     13  C   UNL     1       7.424   0.559  20.243  0.00  0.00    +0.000 C 
ATOM     14  N   UNL     1       7.949   0.327  21.503  0.00  0.00    +0.000 N 
ATOM     15  C   UNL     1       9.245   0.947  21.827  0.00  0.00    +0.000 C 
ATOM     16  C   UNL     1       9.993   0.222  22.981  0.00  0.00    +0.000 C 
ATOM     17  N   UNL     1       9.263  -0.913  23.533  0.00  0.00    +0.000 NA
ATOM     18  C   UNL     1       7.887  -0.515  23.862  0.00  0.00    +0.000 C 
ATOM     19  C   UNL     1       7.090   0.065  22.670  0.00  0.00    +0.000 C 
BRANCH  13  20
ATOM     20  C   UNL     1       6.208   1.470  20.095  0.00  0.00    +0.000 C 
ATOM     21 CL   UNL     1       5.142   0.910  18.794  0.00  0.00    +0.000 Cl
ENDBRANCH  13  20
ENDBRANCH   1  17
TORSDOF 3
ENDMDL
MODEL 6
REMARK VINA RESULT:      -6.4      3.450      6.486
REMARK  Name = 
REMARK  3 active torsions:
REMARK  status: ('A' for Active; 'I' for Inactive)
REMARK    1  A    between atoms: C_2  and  C_3
REMARK    2  A    between atoms: N_8  and  C_9
REMARK    3  A    between atoms: C_9  and  C_10
REMARK                            x       y       z     vdW  Elec       q    Type
REMARK                         _______ _______ _______ _____ _____    ______ ____
ROOT
ATOM      1  C   UNL     1       8.330  -1.255  24.913  0.00  0.00    +0.000 C 
ENDROOT
BRANCH   1   2
ATOM      2  C   UNL     1       7.452  -2.396  24.391  0.00  0.00    +0.000 A 
ATOM      3  C   UNL     1       6.080  -2.149  24.184  0.00  0.00    +0.000 A 
ATOM      4  C   UNL     1       5.255  -3.051  23.500  0.00  0.00    +0.000 A 
ATOM      5  C   UNL     1       5.828  -4.202  22.979  0.00  0.00    +0.000 A 
ATOM      6  C   UNL     1       7.177  -4.550  23.352  0.00  0.00    +0.000 A 
ATOM      7  C   UNL     1       7.926  -3.691  24.133  0.00  0.00    +0.000 A 
ATOM      8  O   UNL     1       7.717  -5.612  22.898  0.00  0.00    +0.000 OA
ATOM      9  C   UNL     1       7.198  -6.085  21.837  0.00  0.00    +0.000 A 
ATOM     10  C   UNL     1       5.871  -5.725  21.446  0.00  0.00    +0.000 A 
ATOM     11  O   UNL     1       5.183  -4.899  22.138  0.00  0.00    +0.000 OA
ENDBRANCH   1   2
BRANCH   1  17
ATOM     12  O   UNL     1       6.336  -1.543  20.655  0.00  0.00    +0.000 OA
ATOM     13  C   UNL     1       6.982  -0.477  20.664  0.00  0.00    +0.000 C 
ATOM     14  N   UNL     1       7.923  -0.271  21.658  0.00  0.00    +0.000 N 
ATOM     15  C   UNL     1       9.200  -0.998  21.549  0.00  0.00    +0.000 C 
ATOM     16  C   UNL     1       9.933  -1.144  22.912  0.00  0.00    +0.000 C 
ATOM     17  N   UNL     1       9.232  -0.519  24.027  0.00  0.00    +0.000 NA
ATOM     18  C   UNL     1       8.868   0.863  23.682  0.00  0.00    +0.000 C 
ATOM     19  C   UNL     1       8.005   0.995  22.406  0.00  0.00    +0.000 C 
BRANCH  13  20
ATOM     20  C   UNL     1       6.699   0.636  19.658  0.00  0.00    +0.000 C 
ATOM     21 CL   UNL     1       5.791   0.025  18.264  0.00  0.00    +0.000 Cl
ENDBRANCH  13  20
ENDBRANCH   1  17
TORSDOF 3
ENDMDL
MODEL 7
REMARK VINA RESULT:      -6.3      3.055      5.755
REMARK  Name = 
REMARK  3 active torsions:
REMARK  status: ('A' for Active; 'I' for Inactive)
REMARK    1  A    between atoms: C_2  and  C_3
REMARK    2  A    between atoms: N_8  and  C_9
REMARK    3  A    between atoms: C_9  and  C_10
REMARK                            x       y       z     vdW  Elec       q    Type
REMARK                         _______ _______ _______ _____ _____    ______ ____
ROOT
ATOM      1  C   UNL     1       8.970   0.513  24.844  0.00  0.00    +0.000 C 
ENDROOT
BRANCH   1   2
ATOM      2  C   UNL     1       8.157  -0.730  25.218  0.00  0.00    +0.000 A 
ATOM      3  C   UNL     1       6.934  -0.958  24.556  0.00  0.00    +0.000 A 
ATOM      4  C   UNL     1       6.244  -2.172  24.667  0.00  0.00    +0.000 A 
ATOM      5  C   UNL     1       6.812  -3.187  25.421  0.00  0.00    +0.000 A 
ATOM      6  C   UNL     1       7.955  -2.895  26.251  0.00  0.00    +0.000 A 
ATOM      7  C   UNL     1       8.541  -1.645  26.210  0.00  0.00    +0.000 A 
ATOM      8  O   UNL     1       8.483  -3.810  26.965  0.00  0.00    +0.000 OA
ATOM      9  C   UNL     1       8.236  -5.004  26.603  0.00  0.00    +0.000 A 
ATOM     10  C   UNL     1       7.121  -5.300  25.761  0.00  0.00    +0.000 A 
ATOM     11  O   UNL     1       6.359  -4.368  25.327  0.00  0.00    +0.000 OA
ENDBRANCH   1   2
BRANCH   1  17
ATOM     12  O   UNL     1       6.645  -1.124  21.089  0.00  0.00    +0.000 OA
ATOM     13  C   UNL     1       7.555  -0.399  20.643  0.00  0.00    +0.000 C 
ATOM     14  N   UNL     1       8.592  -0.032  21.484  0.00  0.00    +0.000 N 
ATOM     15  C   UNL     1       9.610  -1.050  21.796  0.00  0.00    +0.000 C 
ATOM     16  C   UNL     1      10.380  -0.754  23.113  0.00  0.00    +0.000 C 
ATOM     17  N   UNL     1       9.966   0.479  23.772  0.00  0.00    +0.000 NA
ATOM     18  C   UNL     1       9.967   1.589  22.809  0.00  0.00    +0.000 C 
ATOM     19  C   UNL     1       9.074   1.357  21.568  0.00  0.00    +0.000 C 
BRANCH  13  20
ATOM     20  C   UNL     1       7.508   0.160  19.223  0.00  0.00    +0.000 C 
ATOM     21 CL   UNL     1       6.106  -0.461  18.336  0.00  0.00    +0.000 Cl
ENDBRANCH  13  20
ENDBRANCH   1  17
TORSDOF 3
ENDMDL
MODEL 8
REMARK VINA RESULT:      -6.3      4.403      7.457
REMARK  Name = 
REMARK  3 active torsions:
REMARK  status: ('A' for Active; 'I' for Inactive)
REMARK    1  A    between atoms: C_2  and  C_3
REMARK    2  A    between atoms: N_8  and  C_9
REMARK    3  A    between atoms: C_9  and  C_10
REMARK                            x       y       z     vdW  Elec       q    Type
REMARK                         _______ _______ _______ _____ _____    ______ ____
ROOT
ATOM      1  C   UNL     1       8.314  -2.888  23.011  0.00  0.00    +0.000 C 
ENDROOT
BRANCH   1   2
ATOM      2  C   UNL     1       8.154  -3.886  24.162  0.00  0.00    +0.000 A 
ATOM      3  C   UNL     1       9.170  -3.960  25.135  0.00  0.00    +0.000 A 
ATOM      4  C   UNL     1       9.006  -4.669  26.332  0.00  0.00    +0.000 A 
ATOM      5  C   UNL     1       7.784  -5.279  26.572  0.00  0.00    +0.000 A 
ATOM      6  C   UNL     1       6.818  -5.371  25.505  0.00  0.00    +0.000 A 
ATOM      7  C   UNL     1       7.066  -4.762  24.290  0.00  0.00    +0.000 A 
ATOM      8  O   UNL     1       5.696  -5.943  25.700  0.00  0.00    +0.000 OA
ATOM      9  C   UNL     1       5.328  -6.038  26.914  0.00  0.00    +0.000 A 
ATOM     10  C   UNL     1       6.273  -5.923  27.979  0.00  0.00    +0.000 A 
ATOM     11  O   UNL     1       7.509  -5.696  27.739  0.00  0.00    +0.000 OA
ENDBRANCH   1   2
BRANCH   1  17
ATOM     12  O   UNL     1      10.973   0.482  24.951  0.00  0.00    +0.000 OA
ATOM     13  C   UNL     1      10.237   1.055  24.124  0.00  0.00    +0.000 C 
ATOM     14  N   UNL     1       9.135   0.379  23.627  0.00  0.00    +0.000 N 
ATOM     15  C   UNL     1       7.966   0.237  24.512  0.00  0.00    +0.000 C 
ATOM     16  C   UNL     1       7.044  -0.949  24.113  0.00  0.00    +0.000 C 
ATOM     17  N   UNL     1       7.498  -1.676  22.934  0.00  0.00    +0.000 NA
ATOM     18  C   UNL     1       7.779  -0.735  21.840  0.00  0.00    +0.000 C 
ATOM     19  C   UNL     1       8.817   0.356  22.190  0.00  0.00    +0.000 C 
BRANCH  13  20
ATOM     20  C   UNL     1      10.568   2.445  23.588  0.00  0.00    +0.000 C 
ATOM     21 CL   UNL     1       9.367   3.637  24.115  0.00  0.00    +0.000 Cl
ENDBRANCH  13  20
ENDBRANCH   1  17
TORSDOF 3
ENDMDL
MODEL 9
REMARK VINA RESULT:      -6.3      3.593      5.085
REMARK  Name = 
REMARK  3 active torsions:
REMARK  status: ('A' for Active; 'I' for Inactive)
REMARK    1  A    between atoms: C_2  and  C_3
REMARK    2  A    between atoms: N_8  and  C_9
REMARK    3  A    between atoms: C_9  and  C_10
REMARK                            x       y       z     vdW  Elec       q    Type
REMARK                         _______ _______ _______ _____ _____    ______ ____
ROOT
ATOM      1  C   UNL     1       6.797  -2.224  21.632  0.00  0.00    +0.000 C 
ENDROOT
BRANCH   1   2
ATOM      2  C   UNL     1       7.799  -1.069  21.728  0.00  0.00    +0.000 A 
ATOM      3  C   UNL     1       7.477   0.154  21.109  0.00  0.00    +0.000 A 
ATOM      4  C   UNL     1       8.218   1.322  21.336  0.00  0.00    +0.000 A 
ATOM      5  C   UNL     1       9.274   1.267  22.233  0.00  0.00    +0.000 A 
ATOM      6  C   UNL     1       9.725  -0.015  22.715  0.00  0.00    +0.000 A 
ATOM      7  C   UNL     1       9.042  -1.166  22.372  0.00  0.00    +0.000 A 
ATOM      8  O   UNL     1      10.706  -0.089  23.527  0.00  0.00    +0.000 OA
ATOM      9  C   UNL     1      10.966   0.973  24.176  0.00  0.00    +0.000 A 
ATOM     10  C   UNL     1      10.502   2.245  23.719  0.00  0.00    +0.000 A 
ATOM     11  O   UNL     1       9.791   2.344  22.661  0.00  0.00    +0.000 OA
ENDBRANCH   1   2
BRANCH   1  17
ATOM     12  O   UNL     1       9.048  -5.379  24.309  0.00  0.00    +0.000 OA
ATOM     13  C   UNL     1       8.285  -4.758  25.075  0.00  0.00    +0.000 C 
ATOM     14  N   UNL     1       7.272  -3.987  24.530  0.00  0.00    +0.000 N 
ATOM     15  C   UNL     1       6.095  -4.691  23.991  0.00  0.00    +0.000 C 
ATOM     16  C   UNL     1       5.308  -3.847  22.950  0.00  0.00    +0.000 C 
ATOM     17  N   UNL     1       5.869  -2.520  22.723  0.00  0.00    +0.000 NA
ATOM     18  C   UNL     1       6.090  -1.842  24.008  0.00  0.00    +0.000 C 
ATOM     19  C   UNL     1       7.003  -2.614  24.988  0.00  0.00    +0.000 C 
BRANCH  13  20
ATOM     20  C   UNL     1       8.494  -4.760  26.587  0.00  0.00    +0.000 C 
ATOM     21 CL   UNL     1       7.096  -5.455  27.425  0.00  0.00    +0.000 Cl
ENDBRANCH  13  20
ENDBRANCH   1  17
TORSDOF 3
ENDMDL
