MODEL 1
REMARK VINA RESULT:      -7.1      0.000      0.000
REMARK  Name = 
REMARK  4 active torsions:
REMARK  status: ('A' for Active; 'I' for Inactive)
REMARK    1  A    between atoms: C_2  and  C_3
REMARK    2  A    between atoms: C_2  and  N_5
REMARK    3  A    between atoms: N_8  and  S_9
REMARK    4  A    between atoms: S_9  and  C_12
REMARK                            x       y       z     vdW  Elec       q    Type
REMARK                         _______ _______ _______ _____ _____    ______ ____
ROOT
ATOM      1  S   UNL     1       8.968  -2.694  24.460  0.00  0.00    +0.000 S 
ATOM      2  O   UNL     1      10.103  -3.546  24.216  0.00  0.00    +0.000 OA
ATOM      3  O   UNL     1       8.988  -1.871  25.628  0.00  0.00    +0.000 OA
ENDROOT
BRANCH   1   4
ATOM      4  C   UNL     1       8.650  -1.700  23.011  0.00  0.00    +0.000 C 
ATOM      5  C   UNL     1       9.519  -0.696  22.627  0.00  0.00    +0.000 C 
ATOM      6  C   UNL     1       9.212   0.038  21.501  0.00  0.00    +0.000 C 
ATOM      7  C   UNL     1       8.053  -0.191  20.751  0.00  0.00    +0.000 C 
ATOM      8  C   UNL     1       7.175  -1.215  21.155  0.00  0.00    +0.000 C 
ATOM      9  C   UNL     1       7.508  -1.957  22.290  0.00  0.00    +0.000 C 
ATOM     10  O   UNL     1       5.957  -1.543  20.632  0.00  0.00    +0.000 OA
ATOM     11  C   UNL     1       5.699  -1.464  19.249  0.00  0.00    +0.000 C 
ATOM     12  C   UNL     1       5.800  -0.056  18.674  0.00  0.00    +0.000 C 
ATOM     13  C   UNL     1       7.257   0.364  18.527  0.00  0.00    +0.000 C 
ATOM     14  O   UNL     1       7.889   0.712  19.740  0.00  0.00    +0.000 OA
ENDBRANCH   1   4
BRANCH   1  18
ATOM     15  N   UNL     1       6.701  -5.149  26.821  0.00  0.00    +0.000 NA
ATOM     16  C   UNL     1       7.941  -5.446  26.128  0.00  0.00    +0.000 C 
ATOM     17  C   UNL     1       7.818  -5.024  24.665  0.00  0.00    +0.000 C 
ATOM     18  N   UNL     1       7.545  -3.609  24.528  0.00  0.00    +0.000 NA
ATOM     19  C   UNL     1       6.614  -3.085  25.526  0.00  0.00    +0.000 C 
ATOM     20  C   UNL     1       5.811  -4.208  26.167  0.00  0.00    +0.000 C 
BRANCH  15  22
ATOM     21  O   UNL     1       7.010  -6.444  28.637  0.00  0.00    +0.000 OA
ATOM     22  C   UNL     1       6.398  -5.562  28.068  0.00  0.00    +0.000 C 
BRANCH  22  23
ATOM     23  C   UNL     1       5.233  -4.859  28.754  0.00  0.00    +0.000 C 
ATOM     24 CL   UNL     1       5.260  -5.193  30.506  0.00  0.00    +0.000 Cl
ENDBRANCH  22  23
ENDBRANCH  15  22
ENDBRANCH   1  18
TORSDOF 4
ENDMDL
MODEL 2
REMARK VINA RESULT:      -6.9      4.309      7.120
REMARK  Name = 
REMARK  4 active torsions:
REMARK  status: ('A' for Active; 'I' for Inactive)
REMARK    1  A    between atoms: C_2  and  C_3
REMARK    2  A    between atoms: C_2  and  N_5
REMARK    3  A    between atoms: N_8  and  S_9
REMARK    4  A    between atoms: S_9  and  C_12
REMARK                            x       y       z     vdW  Elec       q    Type
REMARK                         _______ _______ _______ _____ _____    ______ ____
ROOT
ATOM      1  S   UNL     1       9.323  -1.835  23.138  0.00  0.00    +0.000 S 
ATOM      2  O   UNL     1      10.320  -2.742  23.644  0.00  0.00    +0.000 OA
ATOM      3  O   UNL     1       9.606  -1.142  21.920  0.00  0.00    +0.000 OA
ENDROOT
BRANCH   1   4
ATOM      4  C   UNL     1       7.757  -2.682  23.016  0.00  0.00    +0.000 C 
ATOM      5  C   UNL     1       6.929  -2.502  21.925  0.00  0.00    +0.000 C 
ATOM      6  C   UNL     1       5.730  -3.181  21.895  0.00  0.00    +0.000 C 
ATOM      7  C   UNL     1       5.324  -4.030  22.931  0.00  0.00    +0.000 C 
ATOM      8  C   UNL     1       6.176  -4.203  24.038  0.00  0.00    +0.000 C 
ATOM      9  C   UNL     1       7.392  -3.516  24.047  0.00  0.00    +0.000 C 
ATOM     10  O   UNL     1       5.940  -4.899  25.190  0.00  0.00    +0.000 OA
ATOM     11  C   UNL     1       5.210  -6.105  25.189  0.00  0.00    +0.000 C 
ATOM     12  C   UNL     1       3.763  -5.959  24.733  0.00  0.00    +0.000 C 
ATOM     13  C   UNL     1       3.687  -5.797  23.220  0.00  0.00    +0.000 C 
ATOM     14  O   UNL     1       4.063  -4.520  22.751  0.00  0.00    +0.000 OA
ENDBRANCH   1   4
BRANCH   1  18
ATOM     15  N   UNL     1       9.736   2.116  24.120  0.00  0.00    +0.000 NA
ATOM     16  C   UNL     1      10.725   1.055  24.186  0.00  0.00    +0.000 C 
ATOM     17  C   UNL     1      10.140  -0.137  24.940  0.00  0.00    +0.000 C 
ATOM     18  N   UNL     1       8.951  -0.658  24.298  0.00  0.00    +0.000 NA
ATOM     19  C   UNL     1       8.069   0.374  23.755  0.00  0.00    +0.000 C 
ATOM     20  C   UNL     1       8.362   1.729  24.383  0.00  0.00    +0.000 C 
BRANCH  15  22
ATOM     21  O   UNL     1       9.106   4.203  23.555  0.00  0.00    +0.000 OA
ATOM     22  C   UNL     1       9.981   3.373  23.696  0.00  0.00    +0.000 C 
BRANCH  22  23
ATOM     23  C   UNL     1      11.435   3.719  23.399  0.00  0.00    +0.000 C 
ATOM     24 CL   UNL     1      11.702   5.471  23.599  0.00  0.00    +0.000 Cl
ENDBRANCH  22  23
ENDBRANCH  15  22
ENDBRANCH   1  18
TORSDOF 4
ENDMDL
MODEL 3
REMARK VINA RESULT:      -6.8      2.440      3.513
REMARK  Name = 
REMARK  4 active torsions:
REMARK  status: ('A' for Active; 'I' for Inactive)
REMARK    1  A    between atoms: C_2  and  C_3
REMARK    2  A    between atoms: C_2  and  N_5
REMARK    3  A    between atoms: N_8  and  S_9
REMARK    4  A    between atoms: S_9  and  C_12
REMARK                            x       y       z     vdW  Elec       q    Type
REMARK                         _______ _______ _______ _____ _____    ______ ____
ROOT
ATOM      1  S   UNL     1       8.881  -4.356  24.380  0.00  0.00    +0.000 S 
ATOM      2  O   UNL     1       8.184  -5.316  23.564  0.00  0.00    +0.000 OA
ATOM      3  O   UNL     1      10.188  -4.699  24.846  0.00  0.00    +0.000 OA
ENDROOT
BRANCH   1   4
ATOM      4  C   UNL     1       8.918  -2.781  23.542  0.00  0.00    +0.000 C 
ATOM      5  C   UNL     1       8.233  -2.583  22.358  0.00  0.00    +0.000 C 
ATOM      6  C   UNL     1       8.308  -1.344  21.759  0.00  0.00    +0.000 C 
ATOM      7  C   UNL     1       9.058  -0.294  22.300  0.00  0.00    +0.000 C 
ATOM      8  C   UNL     1       9.753  -0.509  23.506  0.00  0.00    +0.000 C 
ATOM      9  C   UNL     1       9.657  -1.767  24.105  0.00  0.00    +0.000 C 
ATOM     10  O   UNL     1      10.611   0.334  24.153  0.00  0.00    +0.000 OA
ATOM     11  C   UNL     1      10.400   1.727  24.180  0.00  0.00    +0.000 C 
ATOM     12  C   UNL     1      10.446   2.393  22.810  0.00  0.00    +0.000 C 
ATOM     13  C   UNL     1       9.167   2.115  22.030  0.00  0.00    +0.000 C 
ATOM     14  O   UNL     1       9.080   0.811  21.498  0.00  0.00    +0.000 OA
ENDBRANCH   1   4
BRANCH   1  18
ATOM     15  N   UNL     1       5.740  -5.525  26.728  0.00  0.00    +0.000 NA
ATOM     16  C   UNL     1       5.712  -4.924  25.407  0.00  0.00    +0.000 C 
ATOM     17  C   UNL     1       6.584  -3.669  25.403  0.00  0.00    +0.000 C 
ATOM     18  N   UNL     1       7.960  -3.961  25.746  0.00  0.00    +0.000 NA
ATOM     19  C   UNL     1       8.110  -4.958  26.805  0.00  0.00    +0.000 C 
ATOM     20  C   UNL     1       6.822  -5.106  27.601  0.00  0.00    +0.000 C 
BRANCH  15  22
ATOM     21  O   UNL     1       5.304  -7.399  27.899  0.00  0.00    +0.000 OA
ATOM     22  C   UNL     1       4.937  -6.530  27.134  0.00  0.00    +0.000 C 
BRANCH  22  23
ATOM     23  C   UNL     1       3.516  -6.528  26.586  0.00  0.00    +0.000 C 
ATOM     24 CL   UNL     1       3.383  -7.665  25.218  0.00  0.00    +0.000 Cl
ENDBRANCH  22  23
ENDBRANCH  15  22
ENDBRANCH   1  18
TORSDOF 4
ENDMDL
MODEL 4
REMARK VINA RESULT:      -6.8      4.015      7.267
REMARK  Name = 
REMARK  4 active torsions:
REMARK  status: ('A' for Active; 'I' for Inactive)
REMARK    1  A    between atoms: C_2  and  C_3
REMARK    2  A    between atoms: C_2  and  N_5
REMARK    3  A    between atoms: N_8  and  S_9
REMARK    4  A    between atoms: S_9  and  C_12
REMARK                            x       y       z     vdW  Elec       q    Type
REMARK                         _______ _______ _______ _____ _____    ______ ____
ROOT
ATOM      1  S   UNL     1       9.139  -2.056  23.625  0.00  0.00    +0.000 S 
ATOM      2  O   UNL     1      10.464  -2.548  23.352  0.00  0.00    +0.000 OA
ATOM      3  O   UNL     1       8.371  -1.559  22.526  0.00  0.00    +0.000 OA
ENDROOT
BRANCH   1   4
ATOM      4  C   UNL     1       8.214  -3.298  24.512  0.00  0.00    +0.000 C 
ATOM      5  C   UNL     1       8.497  -3.594  25.832  0.00  0.00    +0.000 C 
ATOM      6  C   UNL     1       7.749  -4.568  26.458  0.00  0.00    +0.000 C 
ATOM      7  C   UNL     1       6.731  -5.269  25.801  0.00  0.00    +0.000 C 
ATOM      8  C   UNL     1       6.455  -4.959  24.456  0.00  0.00    +0.000 C 
ATOM      9  C   UNL     1       7.215  -3.962  23.841  0.00  0.00    +0.000 C 
ATOM     10  O   UNL     1       5.582  -5.576  23.606  0.00  0.00    +0.000 OA
ATOM     11  C   UNL     1       4.343  -6.077  24.053  0.00  0.00    +0.000 C 
ATOM     12  C   UNL     1       4.455  -7.195  25.083  0.00  0.00    +0.000 C 
ATOM     13  C   UNL     1       4.833  -6.634  26.449  0.00  0.00    +0.000 C 
ATOM     14  O   UNL     1       6.188  -6.258  26.570  0.00  0.00    +0.000 OA
ENDBRANCH   1   4
BRANCH   1  18
ATOM     15  N   UNL     1       9.417   1.991  24.165  0.00  0.00    +0.000 NA
ATOM     16  C   UNL     1      10.457   1.050  23.789  0.00  0.00    +0.000 C 
ATOM     17  C   UNL     1      10.460  -0.121  24.768  0.00  0.00    +0.000 C 
ATOM     18  N   UNL     1       9.192  -0.821  24.783  0.00  0.00    +0.000 NA
ATOM     19  C   UNL     1       8.028   0.058  24.690  0.00  0.00    +0.000 C 
ATOM     20  C   UNL     1       8.392   1.488  25.060  0.00  0.00    +0.000 C 
BRANCH  15  22
ATOM     21  O   UNL     1      10.047   4.127  23.833  0.00  0.00    +0.000 OA
ATOM     22  C   UNL     1       9.263   3.221  23.635  0.00  0.00    +0.000 C 
BRANCH  22  23
ATOM     23  C   UNL     1       8.040   3.433  22.751  0.00  0.00    +0.000 C 
ATOM     24 CL   UNL     1       7.901   2.106  21.567  0.00  0.00    +0.000 Cl
ENDBRANCH  22  23
ENDBRANCH  15  22
ENDBRANCH   1  18
TORSDOF 4
ENDMDL
MODEL 5
REMARK VINA RESULT:      -6.7      3.308      8.184
REMARK  Name = 
REMARK  4 active torsions:
REMARK  status: ('A' for Active; 'I' for Inactive)
REMARK    1  A    between atoms: C_2  and  C_3
REMARK    2  A    between atoms: C_2  and  N_5
REMARK    3  A    between atoms: N_8  and  S_9
REMARK    4  A    between atoms: S_9  and  C_12
REMARK                            x       y       z     vdW  Elec       q    Type
REMARK                         _______ _______ _______ _____ _____    ______ ____
ROOT
ATOM      1  S   UNL     1       7.973  -4.778  24.292  0.00  0.00    +0.000 S 
ATOM      2  O   UNL     1       9.219  -5.422  24.615  0.00  0.00    +0.000 OA
ATOM      3  O   UNL     1       7.508  -4.861  22.943  0.00  0.00    +0.000 OA
ENDROOT
BRANCH   1   4
ATOM      4  C   UNL     1       6.705  -5.337  25.417  0.00  0.00    +0.000 C 
ATOM      5  C   UNL     1       5.498  -5.822  24.951  0.00  0.00    +0.000 C 
ATOM      6  C   UNL     1       4.559  -6.233  25.873  0.00  0.00    +0.000 C 
ATOM      7  C   UNL     1       4.783  -6.161  27.253  0.00  0.00    +0.000 C 
ATOM      8  C   UNL     1       6.017  -5.663  27.714  0.00  0.00    +0.000 C 
ATOM      9  C   UNL     1       6.961  -5.262  26.766  0.00  0.00    +0.000 C 
ATOM     10  O   UNL     1       6.406  -5.419  29.001  0.00  0.00    +0.000 OA
ATOM     11  C   UNL     1       6.011  -6.257  30.064  0.00  0.00    +0.000 C 
ATOM     12  C   UNL     1       4.506  -6.294  30.305  0.00  0.00    +0.000 C 
ATOM     13  C   UNL     1       3.811  -7.143  29.247  0.00  0.00    +0.000 C 
ATOM     14  O   UNL     1       3.689  -6.520  27.987  0.00  0.00    +0.000 OA
ENDBRANCH   1   4
BRANCH   1  18
ATOM     15  N   UNL     1       8.627  -1.021  22.808  0.00  0.00    +0.000 NA
ATOM     16  C   UNL     1       9.594  -2.064  23.098  0.00  0.00    +0.000 C 
ATOM     17  C   UNL     1       9.367  -2.586  24.515  0.00  0.00    +0.000 C 
ATOM     18  N   UNL     1       8.037  -3.132  24.688  0.00  0.00    +0.000 NA
ATOM     19  C   UNL     1       6.990  -2.372  24.007  0.00  0.00    +0.000 C 
ATOM     20  C   UNL     1       7.465  -0.965  23.675  0.00  0.00    +0.000 C 
BRANCH  15  22
ATOM     21  O   UNL     1       9.670   0.362  21.368  0.00  0.00    +0.000 OA
ATOM     22  C   UNL     1       8.663  -0.217  21.725  0.00  0.00    +0.000 C 
BRANCH  22  23
ATOM     23  C   UNL     1       7.362  -0.065  20.947  0.00  0.00    +0.000 C 
ATOM     24 CL   UNL     1       7.706   0.132  19.208  0.00  0.00    +0.000 Cl
ENDBRANCH  22  23
ENDBRANCH  15  22
ENDBRANCH   1  18
TORSDOF 4
ENDMDL
MODEL 6
REMARK VINA RESULT:      -6.7      2.161      2.678
REMARK  Name = 
REMARK  4 active torsions:
REMARK  status: ('A' for Active; 'I' for Inactive)
REMARK    1  A    between atoms: C_2  and  C_3
REMARK    2  A    between atoms: C_2  and  N_5
REMARK    3  A    between atoms: N_8  and  S_9
REMARK    4  A    between atoms: S_9  and  C_12
REMARK                            x       y       z     vdW  Elec       q    Type
REMARK                         _______ _______ _______ _____ _____    ______ ____
ROOT
ATOM      1  S   UNL     1       7.834  -4.721  24.351  0.00  0.00    +0.000 S 
ATOM      2  O   UNL     1       7.308  -5.409  23.201  0.00  0.00    +0.000 OA
ATOM      3  O   UNL     1       8.795  -5.406  25.158  0.00  0.00    +0.000 OA
ENDROOT
BRANCH   1   4
ATOM      4  C   UNL     1       8.468  -3.129  23.854  0.00  0.00    +0.000 C 
ATOM      5  C   UNL     1       9.780  -2.772  24.101  0.00  0.00    +0.000 C 
ATOM      6  C   UNL     1      10.205  -1.525  23.696  0.00  0.00    +0.000 C 
ATOM      7  C   UNL     1       9.354  -0.613  23.062  0.00  0.00    +0.000 C 
ATOM      8  C   UNL     1       8.019  -0.988  22.818  0.00  0.00    +0.000 C 
ATOM      9  C   UNL     1       7.608  -2.260  23.224  0.00  0.00    +0.000 C 
ATOM     10  O   UNL     1       7.005  -0.230  22.306  0.00  0.00    +0.000 OA
ATOM     11  C   UNL     1       7.232   0.722  21.292  0.00  0.00    +0.000 C 
ATOM     12  C   UNL     1       8.158   1.862  21.701  0.00  0.00    +0.000 C 
ATOM     13  C   UNL     1       9.609   1.396  21.726  0.00  0.00    +0.000 C 
ATOM     14  O   UNL     1       9.946   0.597  22.839  0.00  0.00    +0.000 OA
ENDBRANCH   1   4
BRANCH   1  18
ATOM     15  N   UNL     1       5.480  -5.895  27.486  0.00  0.00    +0.000 NA
ATOM     16  C   UNL     1       5.410  -6.303  26.095  0.00  0.00    +0.000 C 
ATOM     17  C   UNL     1       5.394  -5.063  25.203  0.00  0.00    +0.000 C 
ATOM     18  N   UNL     1       6.576  -4.248  25.383  0.00  0.00    +0.000 NA
ATOM     19  C   UNL     1       7.025  -4.150  26.771  0.00  0.00    +0.000 C 
ATOM     20  C   UNL     1       5.909  -4.531  27.733  0.00  0.00    +0.000 C 
BRANCH  15  22
ATOM     21  O   UNL     1       6.083  -7.636  28.781  0.00  0.00    +0.000 OA
ATOM     22  C   UNL     1       5.320  -6.722  28.540  0.00  0.00    +0.000 C 
BRANCH  22  23
ATOM     23  C   UNL     1       4.121  -6.453  29.440  0.00  0.00    +0.000 C 
ATOM     24 CL   UNL     1       2.625  -7.031  28.660  0.00  0.00    +0.000 Cl
ENDBRANCH  22  23
ENDBRANCH  15  22
ENDBRANCH   1  18
TORSDOF 4
ENDMDL
MODEL 7
REMARK VINA RESULT:      -6.5      3.227      4.115
REMARK  Name = 
REMARK  4 active torsions:
REMARK  status: ('A' for Active; 'I' for Inactive)
REMARK    1  A    between atoms: C_2  and  C_3
REMARK    2  A    between atoms: C_2  and  N_5
REMARK    3  A    between atoms: N_8  and  S_9
REMARK    4  A    between atoms: S_9  and  C_12
REMARK                            x       y       z     vdW  Elec       q    Type
REMARK                         _______ _______ _______ _____ _____    ______ ____
ROOT
ATOM      1  S   UNL     1       9.000  -1.496  23.097  0.00  0.00    +0.000 S 
ATOM      2  O   UNL     1       9.742  -1.990  21.967  0.00  0.00    +0.000 OA
ATOM      3  O   UNL     1       9.599  -1.607  24.390  0.00  0.00    +0.000 OA
ENDROOT
BRANCH   1   4
ATOM      4  C   UNL     1       8.503   0.190  22.790  0.00  0.00    +0.000 C 
ATOM      5  C   UNL     1       7.549   0.493  21.837  0.00  0.00    +0.000 C 
ATOM      6  C   UNL     1       7.214   1.817  21.645  0.00  0.00    +0.000 C 
ATOM      7  C   UNL     1       7.813   2.853  22.369  0.00  0.00    +0.000 C 
ATOM      8  C   UNL     1       8.785   2.531  23.335  0.00  0.00    +0.000 C 
ATOM      9  C   UNL     1       9.104   1.185  23.525  0.00  0.00    +0.000 C 
ATOM     10  O   UNL     1       9.556   3.379  24.079  0.00  0.00    +0.000 OA
ATOM     11  C   UNL     1       9.052   4.603  24.565  0.00  0.00    +0.000 C 
ATOM     12  C   UNL     1       8.649   5.589  23.475  0.00  0.00    +0.000 C 
ATOM     13  C   UNL     1       7.324   5.182  22.842  0.00  0.00    +0.000 C 
ATOM     14  O   UNL     1       7.414   4.091  21.952  0.00  0.00    +0.000 OA
ENDBRANCH   1   4
BRANCH   1  18
ATOM     15  N   UNL     1       6.921  -4.576  24.811  0.00  0.00    +0.000 NA
ATOM     16  C   UNL     1       7.899  -4.625  23.739  0.00  0.00    +0.000 C 
ATOM     17  C   UNL     1       7.527  -3.603  22.667  0.00  0.00    +0.000 C 
ATOM     18  N   UNL     1       7.487  -2.254  23.190  0.00  0.00    +0.000 NA
ATOM     19  C   UNL     1       6.915  -2.154  24.532  0.00  0.00    +0.000 C 
ATOM     20  C   UNL     1       6.090  -3.388  24.866  0.00  0.00    +0.000 C 
BRANCH  15  22
ATOM     21  O   UNL     1       7.789  -5.770  26.512  0.00  0.00    +0.000 OA
ATOM     22  C   UNL     1       6.838  -5.469  25.819  0.00  0.00    +0.000 C 
BRANCH  22  23
ATOM     23  C   UNL     1       5.470  -6.094  26.063  0.00  0.00    +0.000 C 
ATOM     24 CL   UNL     1       4.814  -6.752  24.540  0.00  0.00    +0.000 Cl
ENDBRANCH  22  23
ENDBRANCH  15  22
ENDBRANCH   1  18
TORSDOF 4
ENDMDL
MODEL 8
REMARK VINA RESULT:      -6.4      2.656      3.223
REMARK  Name = 
REMARK  4 active torsions:
REMARK  status: ('A' for Active; 'I' for Inactive)
REMARK    1  A    between atoms: C_2  and  C_3
REMARK    2  A    between atoms: C_2  and  N_5
REMARK    3  A    between atoms: N_8  and  S_9
REMARK    4  A    between atoms: S_9  and  C_12
REMARK                            x       y       z     vdW  Elec       q    Type
REMARK                         _______ _______ _______ _____ _____    ______ ____
ROOT
ATOM      1  S   UNL     1       7.612  -4.987  23.937  0.00  0.00    +0.000 S 
ATOM      2  O   UNL     1       8.068  -5.860  22.887  0.00  0.00    +0.000 OA
ATOM      3  O   UNL     1       7.823  -5.401  25.289  0.00  0.00    +0.000 OA
ENDROOT
BRANCH   1   4
ATOM      4  C   UNL     1       8.281  -3.352  23.681  0.00  0.00    +0.000 C 
ATOM      5  C   UNL     1       9.302  -2.864  24.474  0.00  0.00    +0.000 C 
ATOM      6  C   UNL     1       9.770  -1.591  24.228  0.00  0.00    +0.000 C 
ATOM      7  C   UNL     1       9.238  -0.780  23.219  0.00  0.00    +0.000 C 
ATOM      8  C   UNL     1       8.196  -1.288  22.420  0.00  0.00    +0.000 C 
ATOM      9  C   UNL     1       7.743  -2.584  22.675  0.00  0.00    +0.000 C 
ATOM     10  O   UNL     1       7.476  -0.644  21.455  0.00  0.00    +0.000 OA
ATOM     11  C   UNL     1       8.070   0.303  20.596  0.00  0.00    +0.000 C 
ATOM     12  C   UNL     1       8.615   1.536  21.307  0.00  0.00    +0.000 C 
ATOM     13  C   UNL     1       9.924   1.214  22.019  0.00  0.00    +0.000 C 
ATOM     14  O   UNL     1       9.772   0.476  23.212  0.00  0.00    +0.000 OA
ENDBRANCH   1   4
BRANCH   1  18
ATOM     15  N   UNL     1       3.872  -6.157  25.113  0.00  0.00    +0.000 NA
ATOM     16  C   UNL     1       4.774  -6.804  24.177  0.00  0.00    +0.000 C 
ATOM     17  C   UNL     1       5.258  -5.782  23.151  0.00  0.00    +0.000 C 
ATOM     18  N   UNL     1       5.956  -4.675  23.771  0.00  0.00    +0.000 NA
ATOM     19  C   UNL     1       5.362  -4.229  25.030  0.00  0.00    +0.000 C 
ATOM     20  C   UNL     1       3.923  -4.708  25.154  0.00  0.00    +0.000 C 
BRANCH  15  22
ATOM     21  O   UNL     1       2.216  -7.557  25.722  0.00  0.00    +0.000 OA
ATOM     22  C   UNL     1       3.118  -6.803  26.027  0.00  0.00    +0.000 C 
BRANCH  22  23
ATOM     23  C   UNL     1       3.455  -6.546  27.490  0.00  0.00    +0.000 C 
ATOM     24 CL   UNL     1       5.179  -6.890  27.794  0.00  0.00    +0.000 Cl
ENDBRANCH  22  23
ENDBRANCH  15  22
ENDBRANCH   1  18
TORSDOF 4
ENDMDL
MODEL 9
REMARK VINA RESULT:      -6.4      2.761      3.734
REMARK  Name = 
REMARK  4 active torsions:
REMARK  status: ('A' for Active; 'I' for Inactive)
REMARK    1  A    between atoms: C_2  and  C_3
REMARK    2  A    between atoms: C_2  and  N_5
REMARK    3  A    between atoms: N_8  and  S_9
REMARK    4  A    between atoms: S_9  and  C_12
REMARK                            x       y       z     vdW  Elec       q    Type
REMARK                         _______ _______ _______ _____ _____    ______ ____
ROOT
ATOM      1  S   UNL     1       6.066  -4.809  22.152  0.00  0.00    +0.000 S 
ATOM      2  O   UNL     1       5.880  -5.546  20.929  0.00  0.00    +0.000 OA
ATOM      3  O   UNL     1       6.896  -5.388  23.161  0.00  0.00    +0.000 OA
ENDROOT
BRANCH   1   4
ATOM      4  C   UNL     1       6.620  -3.156  21.771  0.00  0.00    +0.000 C 
ATOM      5  C   UNL     1       5.917  -2.350  20.896  0.00  0.00    +0.000 C 
ATOM      6  C   UNL     1       6.402  -1.085  20.640  0.00  0.00    +0.000 C 
ATOM      7  C   UNL     1       7.579  -0.601  21.223  0.00  0.00    +0.000 C 
ATOM      8  C   UNL     1       8.286  -1.434  22.112  0.00  0.00    +0.000 C 
ATOM      9  C   UNL     1       7.774  -2.708  22.368  0.00  0.00    +0.000 C 
ATOM     10  O   UNL     1       9.491  -1.204  22.711  0.00  0.00    +0.000 OA
ATOM     11  C   UNL     1       9.866   0.081  23.153  0.00  0.00    +0.000 C 
ATOM     12  C   UNL     1       9.988   1.113  22.038  0.00  0.00    +0.000 C 
ATOM     13  C   UNL     1       8.611   1.567  21.568  0.00  0.00    +0.000 C 
ATOM     14  O   UNL     1       7.934   0.632  20.757  0.00  0.00    +0.000 OA
ENDBRANCH   1   4
BRANCH   1  18
ATOM     15  N   UNL     1       3.703  -5.570  25.405  0.00  0.00    +0.000 NA
ATOM     16  C   UNL     1       3.994  -6.430  24.272  0.00  0.00    +0.000 C 
ATOM     17  C   UNL     1       3.745  -5.662  22.976  0.00  0.00    +0.000 C 
ATOM     18  N   UNL     1       4.571  -4.477  22.876  0.00  0.00    +0.000 NA
ATOM     19  C   UNL     1       4.731  -3.758  24.139  0.00  0.00    +0.000 C 
ATOM     20  C   UNL     1       3.644  -4.146  25.130  0.00  0.00    +0.000 C 
BRANCH  15  22
ATOM     21  O   UNL     1       2.655  -5.805  27.384  0.00  0.00    +0.000 OA
ATOM     22  C   UNL     1       3.633  -5.983  26.687  0.00  0.00    +0.000 C 
BRANCH  22  23
ATOM     23  C   UNL     1       4.858  -6.703  27.237  0.00  0.00    +0.000 C 
ATOM     24 CL   UNL     1       6.321  -5.718  26.972  0.00  0.00    +0.000 Cl
ENDBRANCH  22  23
ENDBRANCH  15  22
ENDBRANCH   1  18
TORSDOF 4
ENDMDL
