MODEL 1
REMARK VINA RESULT:      -6.2      0.000      0.000
REMARK  Name = 
REMARK  5 active torsions:
REMARK  status: ('A' for Active; 'I' for Inactive)
REMARK    1  A    between atoms: C_2  and  C_3
REMARK    2  A    between atoms: C_2  and  N_5
REMARK    3  A    between atoms: N_8  and  S_9
REMARK    4  A    between atoms: S_9  and  C_12
REMARK    5  A    between atoms: C_12  and  C_13
REMARK                            x       y       z     vdW  Elec       q    Type
REMARK                         _______ _______ _______ _____ _____    ______ ____
ROOT
ATOM      1  N   UNL     1       7.389  -5.453  25.729  0.00  0.00    +0.000 NA
ATOM      2  C   UNL     1       6.438  -5.402  24.627  0.00  0.00    +0.000 C 
ATOM      3  C   UNL     1       7.017  -4.574  23.472  0.00  0.00    +0.000 C 
ATOM      4  N   UNL     1       7.837  -3.520  24.016  0.00  0.00    +0.000 NA
ATOM      5  C   UNL     1       9.027  -3.966  24.712  0.00  0.00    +0.000 C 
ATOM      6  C   UNL     1       8.764  -5.359  25.304  0.00  0.00    +0.000 C 
ENDROOT
BRANCH   4   7
ATOM      7  S   UNL     1       7.964  -2.098  23.137  0.00  0.00    +0.000 S 
ATOM      8  O   UNL     1       7.372  -1.023  23.881  0.00  0.00    +0.000 OA
ATOM      9  O   UNL     1       7.490  -2.360  21.810  0.00  0.00    +0.000 OA
BRANCH   7  10
ATOM     10  C   UNL     1       9.770  -1.836  23.095  0.00  0.00    +0.000 C 
BRANCH  10  11
ATOM     11  C   UNL     1      10.028  -0.373  23.049  0.00  0.00    +0.000 C 
ATOM     12  C   UNL     1       9.749   0.368  21.908  0.00  0.00    +0.000 C 
ATOM     13  C   UNL     1       9.971   1.733  21.883  0.00  0.00    +0.000 C 
ATOM     14  C   UNL     1      10.460   2.375  23.008  0.00  0.00    +0.000 C 
ATOM     15  C   UNL     1      10.726   1.646  24.156  0.00  0.00    +0.000 C 
ATOM     16  C   UNL     1      10.515   0.279  24.178  0.00  0.00    +0.000 C 
ENDBRANCH  10  11
ENDBRANCH   7  10
ENDBRANCH   4   7
BRANCH   1  18
ATOM     17  O   UNL     1       7.396  -5.806  27.948  0.00  0.00    +0.000 OA
ATOM     18  C   UNL     1       6.917  -5.254  26.984  0.00  0.00    +0.000 C 
BRANCH  18  19
ATOM     19  C   UNL     1       5.776  -4.243  27.099  0.00  0.00    +0.000 C 
ATOM     20 CL   UNL     1       6.421  -2.600  26.944  0.00  0.00    +0.000 Cl
ENDBRANCH  18  19
ENDBRANCH   1  18
TORSDOF 5
ENDMDL
MODEL 2
REMARK VINA RESULT:      -6.0      2.662      6.543
REMARK  Name = 
REMARK  5 active torsions:
REMARK  status: ('A' for Active; 'I' for Inactive)
REMARK    1  A    between atoms: C_2  and  C_3
REMARK    2  A    between atoms: C_2  and  N_5
REMARK    3  A    between atoms: N_8  and  S_9
REMARK    4  A    between atoms: S_9  and  C_12
REMARK    5  A    between atoms: C_12  and  C_13
REMARK                            x       y       z     vdW  Elec       q    Type
REMARK                         _______ _______ _______ _____ _____    ______ ____
ROOT
ATOM      1  N   UNL     1       8.901   0.637  21.232  0.00  0.00    +0.000 NA
ATOM      2  C   UNL     1       9.661  -0.424  21.876  0.00  0.00    +0.000 C 
ATOM      3  C   UNL     1       8.874  -1.741  21.824  0.00  0.00    +0.000 C 
ATOM      4  N   UNL     1       7.465  -1.448  21.915  0.00  0.00    +0.000 NA
ATOM      5  C   UNL     1       6.918  -0.709  20.794  0.00  0.00    +0.000 C 
ATOM      6  C   UNL     1       8.027   0.163  20.186  0.00  0.00    +0.000 C 
ENDROOT
BRANCH   4   7
ATOM      7  S   UNL     1       6.471  -2.602  22.614  0.00  0.00    +0.000 S 
ATOM      8  O   UNL     1       5.469  -3.005  21.669  0.00  0.00    +0.000 OA
ATOM      9  O   UNL     1       6.051  -2.104  23.891  0.00  0.00    +0.000 OA
BRANCH   7  10
ATOM     10  C   UNL     1       7.622  -3.999  22.857  0.00  0.00    +0.000 C 
BRANCH  10  11
ATOM     11  C   UNL     1       7.578  -4.395  24.289  0.00  0.00    +0.000 C 
ATOM     12  C   UNL     1       6.551  -5.190  24.782  0.00  0.00    +0.000 C 
ATOM     13  C   UNL     1       6.532  -5.571  26.112  0.00  0.00    +0.000 C 
ATOM     14  C   UNL     1       7.552  -5.174  26.960  0.00  0.00    +0.000 C 
ATOM     15  C   UNL     1       8.589  -4.394  26.473  0.00  0.00    +0.000 C 
ATOM     16  C   UNL     1       8.602  -4.002  25.146  0.00  0.00    +0.000 C 
ENDBRANCH  10  11
ENDBRANCH   7  10
ENDBRANCH   4   7
BRANCH   1  18
ATOM     17  O   UNL     1       7.873   2.568  21.747  0.00  0.00    +0.000 OA
ATOM     18  C   UNL     1       8.831   1.838  21.858  0.00  0.00    +0.000 C 
BRANCH  18  19
ATOM     19  C   UNL     1      10.023   2.176  22.754  0.00  0.00    +0.000 C 
ATOM     20 CL   UNL     1       9.510   2.176  24.450  0.00  0.00    +0.000 Cl
ENDBRANCH  18  19
ENDBRANCH   1  18
TORSDOF 5
ENDMDL
MODEL 3
REMARK VINA RESULT:      -6.0      2.108      3.171
REMARK  Name = 
REMARK  5 active torsions:
REMARK  status: ('A' for Active; 'I' for Inactive)
REMARK    1  A    between atoms: C_2  and  C_3
REMARK    2  A    between atoms: C_2  and  N_5
REMARK    3  A    between atoms: N_8  and  S_9
REMARK    4  A    between atoms: S_9  and  C_12
REMARK    5  A    between atoms: C_12  and  C_13
REMARK                            x       y       z     vdW  Elec       q    Type
REMARK                         _______ _______ _______ _____ _____    ______ ____
ROOT
ATOM      1  N   UNL     1       6.304  -5.378  23.555  0.00  0.00    +0.000 NA
ATOM      2  C   UNL     1       7.736  -5.348  23.298  0.00  0.00    +0.000 C 
ATOM      3  C   UNL     1       8.435  -4.443  24.322  0.00  0.00    +0.000 C 
ATOM      4  N   UNL     1       7.549  -3.358  24.669  0.00  0.00    +0.000 NA
ATOM      5  C   UNL     1       6.342  -3.752  25.367  0.00  0.00    +0.000 C 
ATOM      6  C   UNL     1       5.966  -5.180  24.943  0.00  0.00    +0.000 C 
ENDROOT
BRANCH   4   7
ATOM      7  S   UNL     1       8.241  -1.900  25.121  0.00  0.00    +0.000 S 
ATOM      8  O   UNL     1       8.658  -1.975  26.492  0.00  0.00    +0.000 OA
ATOM      9  O   UNL     1       7.347  -0.851  24.730  0.00  0.00    +0.000 OA
BRANCH   7  10
ATOM     10  C   UNL     1       9.735  -1.845  24.072  0.00  0.00    +0.000 C 
BRANCH  10  11
ATOM     11  C   UNL     1       9.922  -0.448  23.601  0.00  0.00    +0.000 C 
ATOM     12  C   UNL     1      10.460   0.524  24.434  0.00  0.00    +0.000 C 
ATOM     13  C   UNL     1      10.650   1.816  23.977  0.00  0.00    +0.000 C 
ATOM     14  C   UNL     1      10.319   2.145  22.674  0.00  0.00    +0.000 C 
ATOM     15  C   UNL     1       9.796   1.177  21.830  0.00  0.00    +0.000 C 
ATOM     16  C   UNL     1       9.594  -0.112  22.291  0.00  0.00    +0.000 C 
ENDBRANCH  10  11
ENDBRANCH   7  10
ENDBRANCH   4   7
BRANCH   1  18
ATOM     17  O   UNL     1       4.335  -5.685  22.516  0.00  0.00    +0.000 OA
ATOM     18  C   UNL     1       5.466  -5.256  22.496  0.00  0.00    +0.000 C 
BRANCH  18  19
ATOM     19  C   UNL     1       6.035  -4.493  21.299  0.00  0.00    +0.000 C 
ATOM     20 CL   UNL     1       5.851  -2.750  21.565  0.00  0.00    +0.000 Cl
ENDBRANCH  18  19
ENDBRANCH   1  18
TORSDOF 5
ENDMDL
MODEL 4
REMARK VINA RESULT:      -6.0      2.160      3.025
REMARK  Name = 
REMARK  5 active torsions:
REMARK  status: ('A' for Active; 'I' for Inactive)
REMARK    1  A    between atoms: C_2  and  C_3
REMARK    2  A    between atoms: C_2  and  N_5
REMARK    3  A    between atoms: N_8  and  S_9
REMARK    4  A    between atoms: S_9  and  C_12
REMARK    5  A    between atoms: C_12  and  C_13
REMARK                            x       y       z     vdW  Elec       q    Type
REMARK                         _______ _______ _______ _____ _____    ______ ____
ROOT
ATOM      1  N   UNL     1       5.883  -5.068  22.447  0.00  0.00    +0.000 NA
ATOM      2  C   UNL     1       5.968  -3.756  21.823  0.00  0.00    +0.000 C 
ATOM      3  C   UNL     1       7.272  -3.060  22.238  0.00  0.00    +0.000 C 
ATOM      4  N   UNL     1       7.601  -3.449  23.588  0.00  0.00    +0.000 NA
ATOM      5  C   UNL     1       7.923  -4.852  23.760  0.00  0.00    +0.000 C 
ATOM      6  C   UNL     1       7.171  -5.669  22.699  0.00  0.00    +0.000 C 
ENDROOT
BRANCH   4   7
ATOM      7  S   UNL     1       8.456  -2.357  24.528  0.00  0.00    +0.000 S 
ATOM      8  O   UNL     1       8.893  -3.004  25.733  0.00  0.00    +0.000 OA
ATOM      9  O   UNL     1       7.672  -1.162  24.635  0.00  0.00    +0.000 OA
BRANCH   7  10
ATOM     10  C   UNL     1       9.923  -2.029  23.492  0.00  0.00    +0.000 C 
BRANCH  10  11
ATOM     11  C   UNL     1      10.037  -0.560  23.297  0.00  0.00    +0.000 C 
ATOM     12  C   UNL     1      10.564   0.256  24.288  0.00  0.00    +0.000 C 
ATOM     13  C   UNL     1      10.685   1.620  24.087  0.00  0.00    +0.000 C 
ATOM     14  C   UNL     1      10.295   2.179  22.882  0.00  0.00    +0.000 C 
ATOM     15  C   UNL     1       9.783   1.369  21.880  0.00  0.00    +0.000 C 
ATOM     16  C   UNL     1       9.650   0.007  22.086  0.00  0.00    +0.000 C 
ENDBRANCH  10  11
ENDBRANCH   7  10
ENDBRANCH   4   7
BRANCH   1  18
ATOM     17  O   UNL     1       3.688  -4.792  22.838  0.00  0.00    +0.000 OA
ATOM     18  C   UNL     1       4.702  -5.430  23.006  0.00  0.00    +0.000 C 
BRANCH  18  19
ATOM     19  C   UNL     1       4.733  -6.726  23.814  0.00  0.00    +0.000 C 
ATOM     20 CL   UNL     1       5.027  -6.355  25.522  0.00  0.00    +0.000 Cl
ENDBRANCH  18  19
ENDBRANCH   1  18
TORSDOF 5
ENDMDL
MODEL 5
REMARK VINA RESULT:      -5.9      1.520      2.021
REMARK  Name = 
REMARK  5 active torsions:
REMARK  status: ('A' for Active; 'I' for Inactive)
REMARK    1  A    between atoms: C_2  and  C_3
REMARK    2  A    between atoms: C_2  and  N_5
REMARK    3  A    between atoms: N_8  and  S_9
REMARK    4  A    between atoms: S_9  and  C_12
REMARK    5  A    between atoms: C_12  and  C_13
REMARK                            x       y       z     vdW  Elec       q    Type
REMARK                         _______ _______ _______ _____ _____    ______ ____
ROOT
ATOM      1  N   UNL     1       6.258  -4.963  24.182  0.00  0.00    +0.000 NA
ATOM      2  C   UNL     1       5.096  -4.337  23.568  0.00  0.00    +0.000 C 
ATOM      3  C   UNL     1       5.540  -3.423  22.417  0.00  0.00    +0.000 C 
ATOM      4  N   UNL     1       6.819  -2.843  22.745  0.00  0.00    +0.000 NA
ATOM      5  C   UNL     1       7.914  -3.788  22.838  0.00  0.00    +0.000 C 
ATOM      6  C   UNL     1       7.358  -5.154  23.268  0.00  0.00    +0.000 C 
ENDROOT
BRANCH   4   7
ATOM      7  S   UNL     1       7.176  -1.333  22.113  0.00  0.00    +0.000 S 
ATOM      8  O   UNL     1       6.864  -0.323  23.085  0.00  0.00    +0.000 OA
ATOM      9  O   UNL     1       6.575  -1.248  20.815  0.00  0.00    +0.000 OA
BRANCH   7  10
ATOM     10  C   UNL     1       8.992  -1.413  21.937  0.00  0.00    +0.000 C 
BRANCH  10  11
ATOM     11  C   UNL     1       9.575  -0.202  22.570  0.00  0.00    +0.000 C 
ATOM     12  C   UNL     1      10.106  -0.249  23.852  0.00  0.00    +0.000 C 
ATOM     13  C   UNL     1      10.667   0.879  24.424  0.00  0.00    +0.000 C 
ATOM     14  C   UNL     1      10.718   2.064  23.710  0.00  0.00    +0.000 C 
ATOM     15  C   UNL     1      10.205   2.116  22.423  0.00  0.00    +0.000 C 
ATOM     16  C   UNL     1       9.633   0.991  21.856  0.00  0.00    +0.000 C 
ENDBRANCH  10  11
ENDBRANCH   7  10
ENDBRANCH   4   7
BRANCH   1  18
ATOM     17  O   UNL     1       5.350  -4.794  26.231  0.00  0.00    +0.000 OA
ATOM     18  C   UNL     1       6.320  -4.994  25.537  0.00  0.00    +0.000 C 
BRANCH  18  19
ATOM     19  C   UNL     1       7.687  -5.352  26.118  0.00  0.00    +0.000 C 
ATOM     20 CL   UNL     1       8.578  -3.868  26.500  0.00  0.00    +0.000 Cl
ENDBRANCH  18  19
ENDBRANCH   1  18
TORSDOF 5
ENDMDL
MODEL 6
REMARK VINA RESULT:      -5.8      2.985      3.937
REMARK  Name = 
REMARK  5 active torsions:
REMARK  status: ('A' for Active; 'I' for Inactive)
REMARK    1  A    between atoms: C_2  and  C_3
REMARK    2  A    between atoms: C_2  and  N_5
REMARK    3  A    between atoms: N_8  and  S_9
REMARK    4  A    between atoms: S_9  and  C_12
REMARK    5  A    between atoms: C_12  and  C_13
REMARK                            x       y       z     vdW  Elec       q    Type
REMARK                         _______ _______ _______ _____ _____    ______ ____
ROOT
ATOM      1  N   UNL     1       7.308  -4.510  24.765  0.00  0.00    +0.000 NA
ATOM      2  C   UNL     1       8.740  -4.710  24.594  0.00  0.00    +0.000 C 
ATOM      3  C   UNL     1       9.445  -3.355  24.446  0.00  0.00    +0.000 C 
ATOM      4  N   UNL     1       8.566  -2.441  23.759  0.00  0.00    +0.000 NA
ATOM      5  C   UNL     1       7.359  -2.092  24.482  0.00  0.00    +0.000 C 
ATOM      6  C   UNL     1       6.975  -3.260  25.403  0.00  0.00    +0.000 C 
ENDROOT
BRANCH   4   7
ATOM      7  S   UNL     1       9.265  -1.235  22.830  0.00  0.00    +0.000 S 
ATOM      8  O   UNL     1       9.606  -1.763  21.540  0.00  0.00    +0.000 OA
ATOM      9  O   UNL     1      10.295  -0.619  23.614  0.00  0.00    +0.000 OA
BRANCH   7  10
ATOM     10  C   UNL     1       7.881  -0.064  22.620  0.00  0.00    +0.000 C 
BRANCH  10  11
ATOM     11  C   UNL     1       7.346  -0.217  21.242  0.00  0.00    +0.000 C 
ATOM     12  C   UNL     1       7.832   0.553  20.194  0.00  0.00    +0.000 C 
ATOM     13  C   UNL     1       7.343   0.386  18.910  0.00  0.00    +0.000 C 
ATOM     14  C   UNL     1       6.371  -0.569  18.659  0.00  0.00    +0.000 C 
ATOM     15  C   UNL     1       5.892  -1.353  19.696  0.00  0.00    +0.000 C 
ATOM     16  C   UNL     1       6.372  -1.178  20.982  0.00  0.00    +0.000 C 
ENDBRANCH  10  11
ENDBRANCH   7  10
ENDBRANCH   4   7
BRANCH   1  18
ATOM     17  O   UNL     1       5.380  -5.625  24.470  0.00  0.00    +0.000 OA
ATOM     18  C   UNL     1       6.468  -5.301  24.053  0.00  0.00    +0.000 C 
BRANCH  18  19
ATOM     19  C   UNL     1       6.970  -5.705  22.667  0.00  0.00    +0.000 C 
ATOM     20 CL   UNL     1       6.198  -4.691  21.436  0.00  0.00    +0.000 Cl
ENDBRANCH  18  19
ENDBRANCH   1  18
TORSDOF 5
ENDMDL
MODEL 7
REMARK VINA RESULT:      -5.7      2.620      2.896
REMARK  Name = 
REMARK  5 active torsions:
REMARK  status: ('A' for Active; 'I' for Inactive)
REMARK    1  A    between atoms: C_2  and  C_3
REMARK    2  A    between atoms: C_2  and  N_5
REMARK    3  A    between atoms: N_8  and  S_9
REMARK    4  A    between atoms: S_9  and  C_12
REMARK    5  A    between atoms: C_12  and  C_13
REMARK                            x       y       z     vdW  Elec       q    Type
REMARK                         _______ _______ _______ _____ _____    ______ ____
ROOT
ATOM      1  N   UNL     1       5.678  -5.720  23.516  0.00  0.00    +0.000 NA
ATOM      2  C   UNL     1       6.364  -5.683  22.232  0.00  0.00    +0.000 C 
ATOM      3  C   UNL     1       7.320  -4.484  22.181  0.00  0.00    +0.000 C 
ATOM      4  N   UNL     1       6.750  -3.397  22.939  0.00  0.00    +0.000 NA
ATOM      5  C   UNL     1       6.626  -3.642  24.363  0.00  0.00    +0.000 C 
ATOM      6  C   UNL     1       6.450  -5.151  24.594  0.00  0.00    +0.000 C 
ENDROOT
BRANCH   4   7
ATOM      7  S   UNL     1       7.133  -1.834  22.473  0.00  0.00    +0.000 S 
ATOM      8  O   UNL     1       6.816  -0.927  23.539  0.00  0.00    +0.000 OA
ATOM      9  O   UNL     1       6.554  -1.607  21.182  0.00  0.00    +0.000 OA
BRANCH   7  10
ATOM     10  C   UNL     1       8.950  -1.918  22.316  0.00  0.00    +0.000 C 
BRANCH  10  11
ATOM     11  C   UNL     1       9.505  -0.570  22.606  0.00  0.00    +0.000 C 
ATOM     12  C   UNL     1       9.410   0.459  21.679  0.00  0.00    +0.000 C 
ATOM     13  C   UNL     1       9.910   1.716  21.969  0.00  0.00    +0.000 C 
ATOM     14  C   UNL     1      10.497   1.961  23.199  0.00  0.00    +0.000 C 
ATOM     15  C   UNL     1      10.582   0.944  24.136  0.00  0.00    +0.000 C 
ATOM     16  C   UNL     1      10.093  -0.317  23.842  0.00  0.00    +0.000 C 
ENDBRANCH  10  11
ENDBRANCH   7  10
ENDBRANCH   4   7
BRANCH   1  18
ATOM     17  O   UNL     1       3.580  -5.338  22.809  0.00  0.00    +0.000 OA
ATOM     18  C   UNL     1       4.343  -5.955  23.516  0.00  0.00    +0.000 C 
BRANCH  18  19
ATOM     19  C   UNL     1       3.881  -7.089  24.430  0.00  0.00    +0.000 C 
ATOM     20 CL   UNL     1       2.294  -7.673  23.898  0.00  0.00    +0.000 Cl
ENDBRANCH  18  19
ENDBRANCH   1  18
TORSDOF 5
ENDMDL
MODEL 8
REMARK VINA RESULT:      -5.7      2.270      3.034
REMARK  Name = 
REMARK  5 active torsions:
REMARK  status: ('A' for Active; 'I' for Inactive)
REMARK    1  A    between atoms: C_2  and  C_3
REMARK    2  A    between atoms: C_2  and  N_5
REMARK    3  A    between atoms: N_8  and  S_9
REMARK    4  A    between atoms: S_9  and  C_12
REMARK    5  A    between atoms: C_12  and  C_13
REMARK                            x       y       z     vdW  Elec       q    Type
REMARK                         _______ _______ _______ _____ _____    ______ ____
ROOT
ATOM      1  N   UNL     1       7.652  -5.355  25.695  0.00  0.00    +0.000 NA
ATOM      2  C   UNL     1       6.777  -5.098  24.560  0.00  0.00    +0.000 C 
ATOM      3  C   UNL     1       7.540  -4.327  23.473  0.00  0.00    +0.000 C 
ATOM      4  N   UNL     1       8.493  -3.448  24.104  0.00  0.00    +0.000 NA
ATOM      5  C   UNL     1       9.559  -4.116  24.824  0.00  0.00    +0.000 C 
ATOM      6  C   UNL     1       9.044  -5.471  25.332  0.00  0.00    +0.000 C 
ENDROOT
BRANCH   4   7
ATOM      7  S   UNL     1       8.894  -2.030  23.306  0.00  0.00    +0.000 S 
ATOM      8  O   UNL     1       9.363  -2.342  21.986  0.00  0.00    +0.000 OA
ATOM      9  O   UNL     1       9.740  -1.264  24.173  0.00  0.00    +0.000 OA
BRANCH   7  10
ATOM     10  C   UNL     1       7.273  -1.205  23.156  0.00  0.00    +0.000 C 
BRANCH  10  11
ATOM     11  C   UNL     1       7.066  -0.840  21.731  0.00  0.00    +0.000 C 
ATOM     12  C   UNL     1       7.791   0.187  21.141  0.00  0.00    +0.000 C 
ATOM     13  C   UNL     1       7.606   0.503  19.806  0.00  0.00    +0.000 C 
ATOM     14  C   UNL     1       6.704  -0.218  19.043  0.00  0.00    +0.000 C 
ATOM     15  C   UNL     1       5.988  -1.255  19.619  0.00  0.00    +0.000 C 
ATOM     16  C   UNL     1       6.164  -1.564  20.957  0.00  0.00    +0.000 C 
ENDBRANCH  10  11
ENDBRANCH   7  10
ENDBRANCH   4   7
BRANCH   1  18
ATOM     17  O   UNL     1       7.421  -5.859  27.872  0.00  0.00    +0.000 OA
ATOM     18  C   UNL     1       7.158  -5.136  26.938  0.00  0.00    +0.000 C 
BRANCH  18  19
ATOM     19  C   UNL     1       6.295  -3.884  27.086  0.00  0.00    +0.000 C 
ATOM     20 CL   UNL     1       5.082  -4.144  28.351  0.00  0.00    +0.000 Cl
ENDBRANCH  18  19
ENDBRANCH   1  18
TORSDOF 5
ENDMDL
MODEL 9
REMARK VINA RESULT:      -5.7      2.539      3.369
REMARK  Name = 
REMARK  5 active torsions:
REMARK  status: ('A' for Active; 'I' for Inactive)
REMARK    1  A    between atoms: C_2  and  C_3
REMARK    2  A    between atoms: C_2  and  N_5
REMARK    3  A    between atoms: N_8  and  S_9
REMARK    4  A    between atoms: S_9  and  C_12
REMARK    5  A    between atoms: C_12  and  C_13
REMARK                            x       y       z     vdW  Elec       q    Type
REMARK                         _______ _______ _______ _____ _____    ______ ____
ROOT
ATOM      1  N   UNL     1       5.426  -4.596  24.327  0.00  0.00    +0.000 NA
ATOM      2  C   UNL     1       6.582  -5.273  24.896  0.00  0.00    +0.000 C 
ATOM      3  C   UNL     1       7.669  -4.249  25.250  0.00  0.00    +0.000 C 
ATOM      4  N   UNL     1       7.626  -3.171  24.293  0.00  0.00    +0.000 NA
ATOM      5  C   UNL     1       6.417  -2.372  24.325  0.00  0.00    +0.000 C 
ATOM      6  C   UNL     1       5.254  -3.249  24.812  0.00  0.00    +0.000 C 
ENDROOT
BRANCH   4   7
ATOM      7  S   UNL     1       9.057  -2.363  23.963  0.00  0.00    +0.000 S 
ATOM      8  O   UNL     1      10.155  -3.282  24.053  0.00  0.00    +0.000 OA
ATOM      9  O   UNL     1       9.086  -1.177  24.767  0.00  0.00    +0.000 OA
BRANCH   7  10
ATOM     10  C   UNL     1       8.839  -1.902  22.210  0.00  0.00    +0.000 C 
BRANCH  10  11
ATOM     11  C   UNL     1       8.777  -0.419  22.123  0.00  0.00    +0.000 C 
ATOM     12  C   UNL     1       9.935   0.345  22.065  0.00  0.00    +0.000 C 
ATOM     13  C   UNL     1       9.864   1.723  21.961  0.00  0.00    +0.000 C 
ATOM     14  C   UNL     1       8.632   2.350  21.896  0.00  0.00    +0.000 C 
ATOM     15  C   UNL     1       7.471   1.594  21.936  0.00  0.00    +0.000 C 
ATOM     16  C   UNL     1       7.541   0.217  22.053  0.00  0.00    +0.000 C 
ENDBRANCH  10  11
ENDBRANCH   7  10
ENDBRANCH   4   7
BRANCH   1  18
ATOM     17  O   UNL     1       3.793  -4.751  22.792  0.00  0.00    +0.000 OA
ATOM     18  C   UNL     1       4.858  -5.133  23.218  0.00  0.00    +0.000 C 
BRANCH  18  19
ATOM     19  C   UNL     1       5.685  -6.212  22.519  0.00  0.00    +0.000 C 
ATOM     20 CL   UNL     1       6.675  -5.473  21.250  0.00  0.00    +0.000 Cl
ENDBRANCH  18  19
ENDBRANCH   1  18
TORSDOF 5
ENDMDL
