MODEL 1
REMARK VINA RESULT:      -6.8      0.000      0.000
REMARK  Name = 
REMARK  4 active torsions:
REMARK  status: ('A' for Active; 'I' for Inactive)
REMARK    1  A    between atoms: C_2  and  C_3
REMARK    2  A    between atoms: N_8  and  S_9
REMARK    3  A    between atoms: S_9  and  C_12
REMARK    4  A    between atoms: C_16  and  N_17
REMARK                            x       y       z     vdW  Elec       q    Type
REMARK                         _______ _______ _______ _____ _____    ______ ____
ROOT
ATOM      1  S   UNL     1       8.415  -0.940  24.714  0.00  0.00    +0.000 S 
ATOM      2  O   UNL     1       8.666  -1.171  26.130  0.00  0.00    +0.000 OA
ATOM      3  O   UNL     1       7.444   0.058  24.320  0.00  0.00    +0.000 OA
ENDROOT
BRANCH   1   9
ATOM      4  O   UNL     1       7.921   2.401  21.765  0.00  0.00    +0.000 OA
ATOM      5  C   UNL     1       8.136   1.245  21.392  0.00  0.00    +0.000 C 
ATOM      6  N   UNL     1       9.379   0.659  21.625  0.00  0.00    +0.000 N 
ATOM      7  C   UNL     1       9.646  -0.793  21.593  0.00  0.00    +0.000 C 
ATOM      8  C   UNL     1      10.339  -1.260  22.900  0.00  0.00    +0.000 C 
ATOM      9  N   UNL     1       9.874  -0.407  24.049  0.00  0.00    +0.000 NA
ATOM     10  C   UNL     1      10.326   0.999  23.894  0.00  0.00    +0.000 C 
ATOM     11  C   UNL     1      10.361   1.420  22.404  0.00  0.00    +0.000 C 
BRANCH   5  12
ATOM     12  C   UNL     1       7.059   0.395  20.734  0.00  0.00    +0.000 C 
ATOM     13 CL   UNL     1       7.339   0.265  18.983  0.00  0.00    +0.000 Cl
ENDBRANCH   5  12
ENDBRANCH   1   9
BRANCH   1  14
ATOM     14  C   UNL     1       7.792  -2.505  24.152  0.00  0.00    +0.000 A 
ATOM     15  C   UNL     1       8.418  -3.631  24.731  0.00  0.00    +0.000 A 
ATOM     16  C   UNL     1       8.299  -4.902  24.160  0.00  0.00    +0.000 A 
ATOM     17  C   UNL     1       7.533  -5.074  23.014  0.00  0.00    +0.000 A 
ATOM     18  C   UNL     1       6.878  -3.964  22.476  0.00  0.00    +0.000 A 
ATOM     19  C   UNL     1       7.001  -2.677  23.020  0.00  0.00    +0.000 A 
BRANCH  18  20
ATOM     20  N   UNL     1       6.079  -4.146  21.280  0.00  0.00    +0.000 N 
ATOM     21  O   UNL     1       6.000  -5.298  20.836  0.00  0.00    +0.000 OA
ATOM     22  O   UNL     1       5.575  -3.132  20.781  0.00  0.00    +0.000 OA
ENDBRANCH  18  20
ENDBRANCH   1  14
TORSDOF 4
ENDMDL
MODEL 2
REMARK VINA RESULT:      -6.6      2.596      5.047
REMARK  Name = 
REMARK  4 active torsions:
REMARK  status: ('A' for Active; 'I' for Inactive)
REMARK    1  A    between atoms: C_2  and  C_3
REMARK    2  A    between atoms: N_8  and  S_9
REMARK    3  A    between atoms: S_9  and  C_12
REMARK    4  A    between atoms: C_16  and  N_17
REMARK                            x       y       z     vdW  Elec       q    Type
REMARK                         _______ _______ _______ _____ _____    ______ ____
ROOT
ATOM      1  S   UNL     1       9.558  -1.048  24.059  0.00  0.00    +0.000 S 
ATOM      2  O   UNL     1      10.542  -0.174  24.680  0.00  0.00    +0.000 OA
ATOM      3  O   UNL     1       9.993  -2.291  23.457  0.00  0.00    +0.000 OA
ENDROOT
BRANCH   1   9
ATOM      4  O   UNL     1       8.495  -5.403  23.947  0.00  0.00    +0.000 OA
ATOM      5  C   UNL     1       7.709  -4.542  23.543  0.00  0.00    +0.000 C 
ATOM      6  N   UNL     1       7.107  -3.670  24.448  0.00  0.00    +0.000 N 
ATOM      7  C   UNL     1       6.476  -2.384  24.088  0.00  0.00    +0.000 C 
ATOM      8  C   UNL     1       7.051  -1.225  24.943  0.00  0.00    +0.000 C 
ATOM      9  N   UNL     1       8.489  -1.512  25.281  0.00  0.00    +0.000 NA
ATOM     10  C   UNL     1       8.605  -2.697  26.171  0.00  0.00    +0.000 C 
ATOM     11  C   UNL     1       7.516  -3.750  25.853  0.00  0.00    +0.000 C 
BRANCH   5  12
ATOM     12  C   UNL     1       7.415  -4.348  22.062  0.00  0.00    +0.000 C 
ATOM     13 CL   UNL     1       6.761  -5.839  21.347  0.00  0.00    +0.000 Cl
ENDBRANCH   5  12
ENDBRANCH   1   9
BRANCH   1  14
ATOM     14  C   UNL     1       8.902  -0.051  22.744  0.00  0.00    +0.000 A 
ATOM     15  C   UNL     1       8.588   1.277  23.111  0.00  0.00    +0.000 A 
ATOM     16  C   UNL     1       7.757   2.074  22.317  0.00  0.00    +0.000 A 
ATOM     17  C   UNL     1       7.245   1.566  21.130  0.00  0.00    +0.000 A 
ATOM     18  C   UNL     1       7.600   0.270  20.750  0.00  0.00    +0.000 A 
ATOM     19  C   UNL     1       8.413  -0.554  21.542  0.00  0.00    +0.000 A 
BRANCH  18  20
ATOM     20  N   UNL     1       7.065  -0.258  19.510  0.00  0.00    +0.000 N 
ATOM     21  O   UNL     1       7.688   0.017  18.476  0.00  0.00    +0.000 OA
ATOM     22  O   UNL     1       6.012  -0.904  19.581  0.00  0.00    +0.000 OA
ENDBRANCH  18  20
ENDBRANCH   1  14
TORSDOF 4
ENDMDL
MODEL 3
REMARK VINA RESULT:      -6.5      3.501      5.846
REMARK  Name = 
REMARK  4 active torsions:
REMARK  status: ('A' for Active; 'I' for Inactive)
REMARK    1  A    between atoms: C_2  and  C_3
REMARK    2  A    between atoms: N_8  and  S_9
REMARK    3  A    between atoms: S_9  and  C_12
REMARK    4  A    between atoms: C_16  and  N_17
REMARK                            x       y       z     vdW  Elec       q    Type
REMARK                         _______ _______ _______ _____ _____    ______ ____
ROOT
ATOM      1  S   UNL     1       6.635  -2.760  22.975  0.00  0.00    +0.000 S 
ATOM      2  O   UNL     1       7.553  -3.887  22.886  0.00  0.00    +0.000 OA
ATOM      3  O   UNL     1       5.213  -2.994  22.853  0.00  0.00    +0.000 OA
ENDROOT
BRANCH   1   9
ATOM      4  O   UNL     1       7.511  -5.821  26.132  0.00  0.00    +0.000 OA
ATOM      5  C   UNL     1       6.390  -5.316  26.024  0.00  0.00    +0.000 C 
ATOM      6  N   UNL     1       6.199  -3.973  26.346  0.00  0.00    +0.000 N 
ATOM      7  C   UNL     1       5.049  -3.156  25.909  0.00  0.00    +0.000 C 
ATOM      8  C   UNL     1       5.525  -1.851  25.219  0.00  0.00    +0.000 C 
ATOM      9  N   UNL     1       6.833  -2.100  24.517  0.00  0.00    +0.000 NA
ATOM     10  C   UNL     1       7.916  -2.401  25.488  0.00  0.00    +0.000 C 
ATOM     11  C   UNL     1       7.377  -3.181  26.712  0.00  0.00    +0.000 C 
BRANCH   5  12
ATOM     12  C   UNL     1       5.201  -6.096  25.482  0.00  0.00    +0.000 C 
ATOM     13 CL   UNL     1       5.289  -6.232  23.711  0.00  0.00    +0.000 Cl
ENDBRANCH   5  12
ENDBRANCH   1   9
BRANCH   1  14
ATOM     14  C   UNL     1       7.103  -1.747  21.593  0.00  0.00    +0.000 A 
ATOM     15  C   UNL     1       8.308  -1.031  21.768  0.00  0.00    +0.000 A 
ATOM     16  C   UNL     1       8.634   0.055  20.949  0.00  0.00    +0.000 A 
ATOM     17  C   UNL     1       7.773   0.428  19.925  0.00  0.00    +0.000 A 
ATOM     18  C   UNL     1       6.608  -0.317  19.727  0.00  0.00    +0.000 A 
ATOM     19  C   UNL     1       6.251  -1.394  20.551  0.00  0.00    +0.000 A 
BRANCH  18  20
ATOM     20  N   UNL     1       5.711   0.074  18.658  0.00  0.00    +0.000 N 
ATOM     21  O   UNL     1       5.863  -0.497  17.570  0.00  0.00    +0.000 OA
ATOM     22  O   UNL     1       4.897   0.972  18.906  0.00  0.00    +0.000 OA
ENDBRANCH  18  20
ENDBRANCH   1  14
TORSDOF 4
ENDMDL
MODEL 4
REMARK VINA RESULT:      -6.4      2.156      2.489
REMARK  Name = 
REMARK  4 active torsions:
REMARK  status: ('A' for Active; 'I' for Inactive)
REMARK    1  A    between atoms: C_2  and  C_3
REMARK    2  A    between atoms: N_8  and  S_9
REMARK    3  A    between atoms: S_9  and  C_12
REMARK    4  A    between atoms: C_16  and  N_17
REMARK                            x       y       z     vdW  Elec       q    Type
REMARK                         _______ _______ _______ _____ _____    ______ ____
ROOT
ATOM      1  S   UNL     1       8.429  -0.086  25.034  0.00  0.00    +0.000 S 
ATOM      2  O   UNL     1       8.680  -0.250  26.458  0.00  0.00    +0.000 OA
ATOM      3  O   UNL     1       7.362   0.790  24.599  0.00  0.00    +0.000 OA
ENDROOT
BRANCH   1   9
ATOM      4  O   UNL     1       7.634   2.793  21.689  0.00  0.00    +0.000 OA
ATOM      5  C   UNL     1       8.035   1.647  21.466  0.00  0.00    +0.000 C 
ATOM      6  N   UNL     1       9.333   1.285  21.819  0.00  0.00    +0.000 N 
ATOM      7  C   UNL     1       9.809  -0.106  21.972  0.00  0.00    +0.000 C 
ATOM      8  C   UNL     1      10.482  -0.314  23.353  0.00  0.00    +0.000 C 
ATOM      9  N   UNL     1       9.832   0.582  24.372  0.00  0.00    +0.000 NA
ATOM     10  C   UNL     1      10.085   2.014  24.069  0.00  0.00    +0.000 C 
ATOM     11  C   UNL     1      10.147   2.266  22.543  0.00  0.00    +0.000 C 
BRANCH   5  12
ATOM     12  C   UNL     1       7.133   0.577  20.869  0.00  0.00    +0.000 C 
ATOM     13 CL   UNL     1       7.539   0.287  19.162  0.00  0.00    +0.000 Cl
ENDBRANCH   5  12
ENDBRANCH   1   9
BRANCH   1  14
ATOM     14  C   UNL     1       7.986  -1.724  24.510  0.00  0.00    +0.000 A 
ATOM     15  C   UNL     1       6.789  -1.802  23.765  0.00  0.00    +0.000 A 
ATOM     16  C   UNL     1       6.125  -3.019  23.580  0.00  0.00    +0.000 A 
ATOM     17  C   UNL     1       6.659  -4.183  24.117  0.00  0.00    +0.000 A 
ATOM     18  C   UNL     1       7.868  -4.105  24.810  0.00  0.00    +0.000 A 
ATOM     19  C   UNL     1       8.539  -2.893  25.026  0.00  0.00    +0.000 A 
BRANCH  18  20
ATOM     20  N   UNL     1       8.424  -5.322  25.369  0.00  0.00    +0.000 N 
ATOM     21  O   UNL     1       7.843  -5.795  26.355  0.00  0.00    +0.000 OA
ATOM     22  O   UNL     1       9.452  -5.765  24.843  0.00  0.00    +0.000 OA
ENDBRANCH  18  20
ENDBRANCH   1  14
TORSDOF 4
ENDMDL
MODEL 5
REMARK VINA RESULT:      -6.4      2.678      5.533
REMARK  Name = 
REMARK  4 active torsions:
REMARK  status: ('A' for Active; 'I' for Inactive)
REMARK    1  A    between atoms: C_2  and  C_3
REMARK    2  A    between atoms: N_8  and  S_9
REMARK    3  A    between atoms: S_9  and  C_12
REMARK    4  A    between atoms: C_16  and  N_17
REMARK                            x       y       z     vdW  Elec       q    Type
REMARK                         _______ _______ _______ _____ _____    ______ ____
ROOT
ATOM      1  S   UNL     1       9.354  -1.309  24.409  0.00  0.00    +0.000 S 
ATOM      2  O   UNL     1      10.100  -0.223  25.028  0.00  0.00    +0.000 OA
ATOM      3  O   UNL     1      10.073  -2.427  23.837  0.00  0.00    +0.000 OA
ENDROOT
BRANCH   1   9
ATOM      4  O   UNL     1       8.583  -5.689  23.840  0.00  0.00    +0.000 OA
ATOM      5  C   UNL     1       7.717  -4.848  23.582  0.00  0.00    +0.000 C 
ATOM      6  N   UNL     1       7.115  -4.133  24.616  0.00  0.00    +0.000 N 
ATOM      7  C   UNL     1       6.377  -2.864  24.445  0.00  0.00    +0.000 C 
ATOM      8  C   UNL     1       6.924  -1.771  25.398  0.00  0.00    +0.000 C 
ATOM      9  N   UNL     1       8.396  -1.988  25.623  0.00  0.00    +0.000 NA
ATOM     10  C   UNL     1       8.647  -3.254  26.359  0.00  0.00    +0.000 C 
ATOM     11  C   UNL     1       7.614  -4.342  25.977  0.00  0.00    +0.000 C 
BRANCH   5  12
ATOM     12  C   UNL     1       7.320  -4.509  22.153  0.00  0.00    +0.000 C 
ATOM     13 CL   UNL     1       6.302  -5.791  21.459  0.00  0.00    +0.000 Cl
ENDBRANCH   5  12
ENDBRANCH   1   9
BRANCH   1  14
ATOM     14  C   UNL     1       8.512  -0.507  23.066  0.00  0.00    +0.000 A 
ATOM     15  C   UNL     1       8.787  -1.047  21.791  0.00  0.00    +0.000 A 
ATOM     16  C   UNL     1       8.496  -0.336  20.622  0.00  0.00    +0.000 A 
ATOM     17  C   UNL     1       7.901   0.917  20.708  0.00  0.00    +0.000 A 
ATOM     18  C   UNL     1       7.587   1.422  21.971  0.00  0.00    +0.000 A 
ATOM     19  C   UNL     1       7.892   0.736  23.156  0.00  0.00    +0.000 A 
BRANCH  18  20
ATOM     20  N   UNL     1       6.967   2.729  22.058  0.00  0.00    +0.000 N 
ATOM     21  O   UNL     1       5.757   2.787  21.802  0.00  0.00    +0.000 OA
ATOM     22  O   UNL     1       7.702   3.683  22.340  0.00  0.00    +0.000 OA
ENDBRANCH  18  20
ENDBRANCH   1  14
TORSDOF 4
ENDMDL
MODEL 6
REMARK VINA RESULT:      -6.2      2.536      2.876
REMARK  Name = 
REMARK  4 active torsions:
REMARK  status: ('A' for Active; 'I' for Inactive)
REMARK    1  A    between atoms: C_2  and  C_3
REMARK    2  A    between atoms: N_8  and  S_9
REMARK    3  A    between atoms: S_9  and  C_12
REMARK    4  A    between atoms: C_16  and  N_17
REMARK                            x       y       z     vdW  Elec       q    Type
REMARK                         _______ _______ _______ _____ _____    ______ ____
ROOT
ATOM      1  S   UNL     1       7.751  -1.966  23.497  0.00  0.00    +0.000 S 
ATOM      2  O   UNL     1       6.405  -1.459  23.269  0.00  0.00    +0.000 OA
ATOM      3  O   UNL     1       8.424  -2.689  22.440  0.00  0.00    +0.000 OA
ENDROOT
BRANCH   1   9
ATOM      4  O   UNL     1       6.481   1.690  21.232  0.00  0.00    +0.000 OA
ATOM      5  C   UNL     1       7.454   1.020  20.873  0.00  0.00    +0.000 C 
ATOM      6  N   UNL     1       8.614   1.011  21.646  0.00  0.00    +0.000 N 
ATOM      7  C   UNL     1       9.676  -0.011  21.560  0.00  0.00    +0.000 C 
ATOM      8  C   UNL     1       9.981  -0.615  22.956  0.00  0.00    +0.000 C 
ATOM      9  N   UNL     1       8.728  -0.619  23.789  0.00  0.00    +0.000 NA
ATOM     10  C   UNL     1       8.280   0.764  24.093  0.00  0.00    +0.000 C 
ATOM     11  C   UNL     1       8.593   1.729  22.924  0.00  0.00    +0.000 C 
BRANCH   5  12
ATOM     12  C   UNL     1       7.415   0.139  19.634  0.00  0.00    +0.000 C 
ATOM     13 CL   UNL     1       6.017  -0.959  19.682  0.00  0.00    +0.000 Cl
ENDBRANCH   5  12
ENDBRANCH   1   9
BRANCH   1  14
ATOM     14  C   UNL     1       7.530  -3.112  24.836  0.00  0.00    +0.000 A 
ATOM     15  C   UNL     1       8.642  -3.232  25.699  0.00  0.00    +0.000 A 
ATOM     16  C   UNL     1       8.770  -4.316  26.573  0.00  0.00    +0.000 A 
ATOM     17  C   UNL     1       7.777  -5.287  26.616  0.00  0.00    +0.000 A 
ATOM     18  C   UNL     1       6.658  -5.135  25.795  0.00  0.00    +0.000 A 
ATOM     19  C   UNL     1       6.520  -4.068  24.896  0.00  0.00    +0.000 A 
BRANCH  18  20
ATOM     20  N   UNL     1       5.623  -6.149  25.843  0.00  0.00    +0.000 N 
ATOM     21  O   UNL     1       4.884  -6.233  24.853  0.00  0.00    +0.000 OA
ATOM     22  O   UNL     1       5.538  -6.818  26.879  0.00  0.00    +0.000 OA
ENDBRANCH  18  20
ENDBRANCH   1  14
TORSDOF 4
ENDMDL
MODEL 7
REMARK VINA RESULT:      -6.2      2.656      5.071
REMARK  Name = 
REMARK  4 active torsions:
REMARK  status: ('A' for Active; 'I' for Inactive)
REMARK    1  A    between atoms: C_2  and  C_3
REMARK    2  A    between atoms: N_8  and  S_9
REMARK    3  A    between atoms: S_9  and  C_12
REMARK    4  A    between atoms: C_16  and  N_17
REMARK                            x       y       z     vdW  Elec       q    Type
REMARK                         _______ _______ _______ _____ _____    ______ ____
ROOT
ATOM      1  S   UNL     1       7.369  -1.623  25.669  0.00  0.00    +0.000 S 
ATOM      2  O   UNL     1       5.945  -1.434  25.432  0.00  0.00    +0.000 OA
ATOM      3  O   UNL     1       8.112  -0.599  26.372  0.00  0.00    +0.000 OA
ENDROOT
BRANCH   1   9
ATOM      4  O   UNL     1       8.366  -5.327  23.348  0.00  0.00    +0.000 OA
ATOM      5  C   UNL     1       7.222  -5.121  23.763  0.00  0.00    +0.000 C 
ATOM      6  N   UNL     1       6.961  -5.169  25.131  0.00  0.00    +0.000 N 
ATOM      7  C   UNL     1       5.776  -4.577  25.785  0.00  0.00    +0.000 C 
ATOM      8  C   UNL     1       6.193  -3.641  26.949  0.00  0.00    +0.000 C 
ATOM      9  N   UNL     1       7.518  -3.002  26.632  0.00  0.00    +0.000 NA
ATOM     10  C   UNL     1       8.606  -4.013  26.587  0.00  0.00    +0.000 C 
ATOM     11  C   UNL     1       8.094  -5.368  26.040  0.00  0.00    +0.000 C 
BRANCH   5  12
ATOM     12  C   UNL     1       6.080  -4.745  22.831  0.00  0.00    +0.000 C 
ATOM     13 CL   UNL     1       6.153  -5.692  21.327  0.00  0.00    +0.000 Cl
ENDBRANCH   5  12
ENDBRANCH   1   9
BRANCH   1  14
ATOM     14  C   UNL     1       8.045  -1.703  24.029  0.00  0.00    +0.000 A 
ATOM     15  C   UNL     1       9.445  -1.884  23.975  0.00  0.00    +0.000 A 
ATOM     16  C   UNL     1      10.168  -1.624  22.807  0.00  0.00    +0.000 A 
ATOM     17  C   UNL     1       9.501  -1.201  21.664  0.00  0.00    +0.000 A 
ATOM     18  C   UNL     1       8.111  -1.072  21.711  0.00  0.00    +0.000 A 
ATOM     19  C   UNL     1       7.370  -1.306  22.878  0.00  0.00    +0.000 A 
BRANCH  18  20
ATOM     20  N   UNL     1       7.418  -0.630  20.517  0.00  0.00    +0.000 N 
ATOM     21  O   UNL     1       8.001   0.205  19.814  0.00  0.00    +0.000 OA
ATOM     22  O   UNL     1       6.287  -1.092  20.320  0.00  0.00    +0.000 OA
ENDBRANCH  18  20
ENDBRANCH   1  14
TORSDOF 4
ENDMDL
MODEL 8
REMARK VINA RESULT:      -6.1      1.576      2.043
REMARK  Name = 
REMARK  4 active torsions:
REMARK  status: ('A' for Active; 'I' for Inactive)
REMARK    1  A    between atoms: C_2  and  C_3
REMARK    2  A    between atoms: N_8  and  S_9
REMARK    3  A    between atoms: S_9  and  C_12
REMARK    4  A    between atoms: C_16  and  N_17
REMARK                            x       y       z     vdW  Elec       q    Type
REMARK                         _______ _______ _______ _____ _____    ______ ____
ROOT
ATOM      1  S   UNL     1       8.997  -2.226  24.734  0.00  0.00    +0.000 S 
ATOM      2  O   UNL     1      10.075  -2.668  23.861  0.00  0.00    +0.000 OA
ATOM      3  O   UNL     1       8.845  -2.839  26.036  0.00  0.00    +0.000 OA
ENDROOT
BRANCH   1   9
ATOM      4  O   UNL     1       6.675   0.545  22.082  0.00  0.00    +0.000 OA
ATOM      5  C   UNL     1       7.878   0.341  21.897  0.00  0.00    +0.000 C 
ATOM      6  N   UNL     1       8.813   0.823  22.811  0.00  0.00    +0.000 N 
ATOM      7  C   UNL     1      10.203   0.338  22.931  0.00  0.00    +0.000 C 
ATOM      8  C   UNL     1      10.524  -0.071  24.392  0.00  0.00    +0.000 C 
ATOM      9  N   UNL     1       9.278  -0.592  25.056  0.00  0.00    +0.000 NA
ATOM     10  C   UNL     1       8.260   0.479  25.206  0.00  0.00    +0.000 C 
ATOM     11  C   UNL     1       8.313   1.477  24.024  0.00  0.00    +0.000 C 
BRANCH   5  12
ATOM     12  C   UNL     1       8.386  -0.486  20.726  0.00  0.00    +0.000 C 
ATOM     13 CL   UNL     1       7.758   0.145  19.186  0.00  0.00    +0.000 Cl
ENDBRANCH   5  12
ENDBRANCH   1   9
BRANCH   1  14
ATOM     14  C   UNL     1       7.536  -2.630  23.809  0.00  0.00    +0.000 A 
ATOM     15  C   UNL     1       6.322  -2.278  24.440  0.00  0.00    +0.000 A 
ATOM     16  C   UNL     1       5.103  -2.825  24.028  0.00  0.00    +0.000 A 
ATOM     17  C   UNL     1       5.072  -3.715  22.962  0.00  0.00    +0.000 A 
ATOM     18  C   UNL     1       6.270  -4.019  22.312  0.00  0.00    +0.000 A 
ATOM     19  C   UNL     1       7.506  -3.500  22.723  0.00  0.00    +0.000 A 
BRANCH  18  20
ATOM     20  N   UNL     1       6.235  -4.948  21.199  0.00  0.00    +0.000 N 
ATOM     21  O   UNL     1       6.638  -6.097  21.425  0.00  0.00    +0.000 OA
ATOM     22  O   UNL     1       5.847  -4.509  20.111  0.00  0.00    +0.000 OA
ENDBRANCH  18  20
ENDBRANCH   1  14
TORSDOF 4
ENDMDL
MODEL 9
REMARK VINA RESULT:      -6.1      3.526      4.350
REMARK  Name = 
REMARK  4 active torsions:
REMARK  status: ('A' for Active; 'I' for Inactive)
REMARK    1  A    between atoms: C_2  and  C_3
REMARK    2  A    between atoms: N_8  and  S_9
REMARK    3  A    between atoms: S_9  and  C_12
REMARK    4  A    between atoms: C_16  and  N_17
REMARK                            x       y       z     vdW  Elec       q    Type
REMARK                         _______ _______ _______ _____ _____    ______ ____
ROOT
ATOM      1  S   UNL     1       7.155  -3.686  24.007  0.00  0.00    +0.000 S 
ATOM      2  O   UNL     1       6.023  -2.781  23.863  0.00  0.00    +0.000 OA
ATOM      3  O   UNL     1       7.772  -4.242  22.823  0.00  0.00    +0.000 OA
ENDROOT
BRANCH   1   9
ATOM      4  O   UNL     1       7.034   0.699  23.075  0.00  0.00    +0.000 OA
ATOM      5  C   UNL     1       7.856  -0.048  22.536  0.00  0.00    +0.000 C 
ATOM      6  N   UNL     1       8.889  -0.602  23.289  0.00  0.00    +0.000 N 
ATOM      7  C   UNL     1       9.685  -1.780  22.890  0.00  0.00    +0.000 C 
ATOM      8  C   UNL     1       9.686  -2.855  24.008  0.00  0.00    +0.000 C 
ATOM      9  N   UNL     1       8.383  -2.803  24.759  0.00  0.00    +0.000 NA
ATOM     10  C   UNL     1       8.241  -1.523  25.501  0.00  0.00    +0.000 C 
ATOM     11  C   UNL     1       8.898  -0.350  24.733  0.00  0.00    +0.000 C 
BRANCH   5  12
ATOM     12  C   UNL     1       7.748  -0.446  21.071  0.00  0.00    +0.000 C 
ATOM     13 CL   UNL     1       6.350  -1.513  20.808  0.00  0.00    +0.000 Cl
ENDBRANCH   5  12
ENDBRANCH   1   9
BRANCH   1  14
ATOM     14  C   UNL     1       6.469  -5.051  24.911  0.00  0.00    +0.000 A 
ATOM     15  C   UNL     1       5.450  -5.756  24.233  0.00  0.00    +0.000 A 
ATOM     16  C   UNL     1       4.581  -6.614  24.914  0.00  0.00    +0.000 A 
ATOM     17  C   UNL     1       4.730  -6.801  26.283  0.00  0.00    +0.000 A 
ATOM     18  C   UNL     1       5.771  -6.138  26.937  0.00  0.00    +0.000 A 
ATOM     19  C   UNL     1       6.639  -5.257  26.277  0.00  0.00    +0.000 A 
BRANCH  18  20
ATOM     20  N   UNL     1       5.925  -6.335  28.366  0.00  0.00    +0.000 N 
ATOM     21  O   UNL     1       6.196  -5.331  29.037  0.00  0.00    +0.000 OA
ATOM     22  O   UNL     1       5.813  -7.492  28.790  0.00  0.00    +0.000 OA
ENDBRANCH  18  20
ENDBRANCH   1  14
TORSDOF 4
ENDMDL
