
 OpenBabel06082022513D

 37 38  0  0  0  0  0  0  0  0999 V2000
    9.2088    7.3533    3.5212 O   0  0  0  0  0  0  0  0  0  0  0  0
    8.7849    8.4658    3.8339 C   0  0  0  0  0  0  0  0  0  0  0  0
    9.4993    9.7525    3.4507 C   0  0  0  0  0  0  0  0  0  0  0  0
   11.1636    9.4517    2.9150 Cl  0  0  0  0  0  0  0  0  0  0  0  0
    7.6093    8.5974    4.5791 N   0  0  0  0  0  0  0  0  0  0  0  0
    7.0443    7.3841    5.1755 C   0  0  0  0  0  0  0  0  0  0  0  0
    5.8771    7.6391    6.1363 C   0  0  0  0  0  0  0  0  0  0  0  0
    6.1662    8.7909    7.0168 N   0  0  0  0  0  0  0  0  0  0  0  0
    6.0605    8.6852    8.6724 S   0  0  0  0  0  0  0  0  0  0  0  0
    5.0207    7.7256    8.9756 O   0  0  0  0  0  0  0  0  0  0  0  0
    5.9311   10.0617    9.1538 O   0  0  0  0  0  0  0  0  0  0  0  0
    7.6104    8.0418    9.3525 C   0  0  0  0  0  0  0  0  0  0  0  0
    8.7775    8.0832    8.4034 C   0  0  0  0  0  0  0  0  0  0  0  0
    9.2240    6.9036    7.7948 C   0  0  0  0  0  0  0  0  0  0  0  0
   10.2349    6.9422    6.8305 C   0  0  0  0  0  0  0  0  0  0  0  0
   10.8334    8.1492    6.4946 C   0  0  0  0  0  0  0  0  0  0  0  0
   10.4548    9.3182    7.1548 C   0  0  0  0  0  0  0  0  0  0  0  0
    9.4531    9.2778    8.1248 C   0  0  0  0  0  0  0  0  0  0  0  0
    6.6339   10.0327    6.3675 C   0  0  0  0  0  0  0  0  0  0  0  0
    6.9036    9.8505    4.8647 C   0  0  0  0  0  0  0  0  0  0  0  0
    9.5668   10.4137    4.3075 H   0  0  0  0  0  0  0  0  0  0  0  0
    8.9600   10.2371    2.6343 H   0  0  0  0  0  0  0  0  0  0  0  0
    7.8432    6.8875    5.7120 H   0  0  0  0  0  0  0  0  0  0  0  0
    6.7512    6.6907    4.3710 H   0  0  0  0  0  0  0  0  0  0  0  0
    5.6714    6.7274    6.7071 H   0  0  0  0  0  0  0  0  0  0  0  0
    4.9716    7.8717    5.5639 H   0  0  0  0  0  0  0  0  0  0  0  0
    7.4078    7.0090    9.6678 H   0  0  0  0  0  0  0  0  0  0  0  0
    7.8372    8.6183   10.2541 H   0  0  0  0  0  0  0  0  0  0  0  0
    8.7526    5.9481    8.0171 H   0  0  0  0  0  0  0  0  0  0  0  0
   10.5159    6.0344    6.2986 H   0  0  0  0  0  0  0  0  0  0  0  0
   11.5774    8.1805    5.7051 H   0  0  0  0  0  0  0  0  0  0  0  0
   10.9347   10.2615    6.8999 H   0  0  0  0  0  0  0  0  0  0  0  0
    9.1710   10.2028    8.6318 H   0  0  0  0  0  0  0  0  0  0  0  0
    7.5499   10.3762    6.8406 H   0  0  0  0  0  0  0  0  0  0  0  0
    5.8871   10.8187    6.4995 H   0  0  0  0  0  0  0  0  0  0  0  0
    5.9484    9.7897    4.3267 H   0  0  0  0  0  0  0  0  0  0  0  0
    7.4293   10.7130    4.4696 H   0  0  0  0  0  0  0  0  0  0  0  0
  1  2  2  0  0  0  0
  2  3  1  0  0  0  0
  2  5  1  0  0  0  0
  3  4  1  0  0  0  0
  3 21  1  0  0  0  0
  3 22  1  0  0  0  0
  5  6  1  0  0  0  0
  5 20  1  0  0  0  0
  6  7  1  0  0  0  0
  6 23  1  0  0  0  0
  6 24  1  0  0  0  0
  7  8  1  0  0  0  0
  7 25  1  0  0  0  0
  7 26  1  0  0  0  0
  8  9  1  0  0  0  0
  8 19  1  0  0  0  0
  9 10  2  0  0  0  0
  9 11  2  0  0  0  0
  9 12  1  0  0  0  0
 12 13  1  0  0  0  0
 12 27  1  0  0  0  0
 12 28  1  0  0  0  0
 13 14  1  0  0  0  0
 13 18  2  0  0  0  0
 14 15  2  0  0  0  0
 14 29  1  0  0  0  0
 15 16  1  0  0  0  0
 15 30  1  0  0  0  0
 16 17  2  0  0  0  0
 16 31  1  0  0  0  0
 17 18  1  0  0  0  0
 17 32  1  0  0  0  0
 18 33  1  0  0  0  0
 19 20  1  0  0  0  0
 19 34  1  0  0  0  0
 19 35  1  0  0  0  0
 20 36  1  0  0  0  0
 20 37  1  0  0  0  0
M  END
>  <name>


>  <Energy>
72.7456

$$$$
