
  xtb     06082023253D
xtb: 6.2.3 (830e466)
 41 43  0     0  0            999 V2000
    8.2816    7.1163    5.2650 O   0  0  0  0  0  0  0  0  0  0  0  0
    7.5349    8.0613    5.1017 C   0  0  0  0  0  0  0  0  0  0  0  0
    7.6732    8.9350    3.8630 C   0  0  0  0  0  0  0  0  0  0  0  0
    6.1925    8.9039    2.8749 Cl  0  0  0  0  0  0  0  0  0  0  0  0
    6.5546    8.3730    5.9755 N   0  0  0  0  0  0  0  0  0  0  0  0
    5.6791    9.5268    5.8962 C   0  0  0  0  0  0  0  0  0  0  0  0
    5.2504    9.9449    7.3112 C   0  0  0  0  0  0  0  0  0  0  0  0
    6.3788    9.7870    8.1878 N   0  0  0  0  0  0  0  0  0  0  0  0
    6.5594   10.8427    9.4641 S   0  0  0  0  0  0  0  0  0  0  0  0
    6.1247   12.1246    8.9938 O   0  0  0  0  0  0  0  0  0  0  0  0
    7.8965   10.6819    9.9464 O   0  0  0  0  0  0  0  0  0  0  0  0
    5.4159   10.2328   10.6963 C   0  0  0  0  0  0  0  0  0  0  0  0
    4.0853   10.5930   10.6135 C   0  0  0  0  0  0  0  0  0  0  0  0
    3.1738   10.0734   11.5235 C   0  0  0  0  0  0  0  0  0  0  0  0
    3.6257    9.1934   12.4888 C   0  0  0  0  0  0  0  0  0  0  0  0
    4.9735    8.8374   12.5617 C   0  0  0  0  0  0  0  0  0  0  0  0
    5.8832    9.3565   11.6622 C   0  0  0  0  0  0  0  0  0  0  0  0
    5.2078    7.8952   13.7038 C   0  0  0  0  0  0  0  0  0  0  0  0
    3.7940    7.3992   14.0485 C   0  0  0  0  0  0  0  0  0  0  0  0
    2.8495    8.5177   13.5790 C   0  0  0  0  0  0  0  0  0  0  0  0
    6.7918    8.4181    8.4075 C   0  0  0  0  0  0  0  0  0  0  0  0
    6.4198    7.5794    7.1775 C   0  0  0  0  0  0  0  0  0  0  0  0
    8.4802    8.5293    3.2526 H   0  0  0  0  0  0  0  0  0  0  0  0
    7.8847    9.9738    4.1189 H   0  0  0  0  0  0  0  0  0  0  0  0
    4.7946    9.2953    5.2907 H   0  0  0  0  0  0  0  0  0  0  0  0
    6.2105   10.3580    5.4320 H   0  0  0  0  0  0  0  0  0  0  0  0
    4.3871    9.3539    7.6523 H   0  0  0  0  0  0  0  0  0  0  0  0
    4.9822   11.0010    7.3241 H   0  0  0  0  0  0  0  0  0  0  0  0
    3.7829   11.2922    9.8504 H   0  0  0  0  0  0  0  0  0  0  0  0
    2.1323   10.3535   11.4753 H   0  0  0  0  0  0  0  0  0  0  0  0
    6.9355    9.1219   11.6942 H   0  0  0  0  0  0  0  0  0  0  0  0
    5.6443    8.4447   14.5418 H   0  0  0  0  0  0  0  0  0  0  0  0
    5.8875    7.0837   13.4469 H   0  0  0  0  0  0  0  0  0  0  0  0
    3.6798    7.1798   15.1081 H   0  0  0  0  0  0  0  0  0  0  0  0
    3.5827    6.4870   13.4884 H   0  0  0  0  0  0  0  0  0  0  0  0
    1.8866    8.1387   13.2376 H   0  0  0  0  0  0  0  0  0  0  0  0
    2.6611    9.2328   14.3845 H   0  0  0  0  0  0  0  0  0  0  0  0
    6.3098    7.9921    9.3008 H   0  0  0  0  0  0  0  0  0  0  0  0
    7.8719    8.4302    8.5660 H   0  0  0  0  0  0  0  0  0  0  0  0
    7.0850    6.7200    7.0849 H   0  0  0  0  0  0  0  0  0  0  0  0
    5.3864    7.2270    7.2529 H   0  0  0  0  0  0  0  0  0  0  0  0
  1  2  1  0  0  0  0
  2  3  1  0  0  0  0
  2  5  1  0  0  0  0
  3  4  1  0  0  0  0
  3 23  1  0  0  0  0
  3 24  1  0  0  0  0
  5  6  1  0  0  0  0
  5 22  1  0  0  0  0
  6  7  1  0  0  0  0
  6 25  1  0  0  0  0
  6 26  1  0  0  0  0
  7  8  1  0  0  0  0
  7 27  1  0  0  0  0
  7 28  1  0  0  0  0
  8  9  1  0  0  0  0
  8 21  1  0  0  0  0
  9 10  1  0  0  0  0
  9 11  1  0  0  0  0
  9 12  1  0  0  0  0
 12 13  1  0  0  0  0
 12 17  1  0  0  0  0
 13 14  1  0  0  0  0
 13 29  1  0  0  0  0
 14 15  1  0  0  0  0
 14 30  1  0  0  0  0
 15 16  1  0  0  0  0
 15 20  1  0  0  0  0
 16 17  1  0  0  0  0
 16 18  1  0  0  0  0
 17 31  1  0  0  0  0
 18 19  1  0  0  0  0
 18 32  1  0  0  0  0
 18 33  1  0  0  0  0
 19 20  1  0  0  0  0
 19 34  1  0  0  0  0
 19 35  1  0  0  0  0
 20 36  1  0  0  0  0
 20 37  1  0  0  0  0
 21 22  1  0  0  0  0
 21 38  1  0  0  0  0
 21 39  1  0  0  0  0
 22 40  1  0  0  0  0
 22 41  1  0  0  0  0
M  END
>  <name>


>  <Energy>
64.8278

> <total energy / Eh>
    -67.691986687012

> <gradient norm / Eh/a0>
      0.000694069745

$$$$
