
  xtb     06082023263D
xtb: 6.2.3 (830e466)
 34 35  0     0  0            999 V2000
    8.7106    8.9489    9.1131 O   0  0  0  0  0  0  0  0  0  0  0  0
    8.2383    8.0010    9.7078 C   0  0  0  0  0  0  0  0  0  0  0  0
    7.3380    8.2171   10.9156 C   0  0  0  0  0  0  0  0  0  0  0  0
    5.6427    7.8819   10.4553 Cl  0  0  0  0  0  0  0  0  0  0  0  0
    8.4826    6.7212    9.3534 N   0  0  0  0  0  0  0  0  0  0  0  0
    9.2349    6.4673    8.1396 C   0  0  0  0  0  0  0  0  0  0  0  0
    8.4000    5.6134    7.1925 C   0  0  0  0  0  0  0  0  0  0  0  0
    8.0006    4.3799    7.8469 N   0  0  0  0  0  0  0  0  0  0  0  0
    6.5839    3.6871    7.2982 S   0  0  0  0  0  0  0  0  0  0  0  0
    6.4533    2.4362    7.9852 O   0  0  0  0  0  0  0  0  0  0  0  0
    6.6509    3.7079    5.8696 O   0  0  0  0  0  0  0  0  0  0  0  0
    5.2566    4.7723    7.8298 C   0  0  0  0  0  0  0  0  0  0  0  0
    4.8501    5.8089    7.0125 C   0  0  0  0  0  0  0  0  0  0  0  0
    3.8456    6.6589    7.4486 C   0  0  0  0  0  0  0  0  0  0  0  0
    3.2554    6.4546    8.6853 C   0  0  0  0  0  0  0  0  0  0  0  0
    3.6585    5.3995    9.4894 C   0  0  0  0  0  0  0  0  0  0  0  0
    4.6688    4.5545    9.0617 C   0  0  0  0  0  0  0  0  0  0  0  0
    8.2889    4.2850    9.2534 C   0  0  0  0  0  0  0  0  0  0  0  0
    7.9137    5.5592   10.0168 C   0  0  0  0  0  0  0  0  0  0  0  0
    7.3906    9.2663   11.2036 H   0  0  0  0  0  0  0  0  0  0  0  0
    7.5877    7.5726   11.7562 H   0  0  0  0  0  0  0  0  0  0  0  0
   10.1771    5.9671    8.3799 H   0  0  0  0  0  0  0  0  0  0  0  0
    9.4552    7.4358    7.6871 H   0  0  0  0  0  0  0  0  0  0  0  0
    8.9691    5.3657    6.2921 H   0  0  0  0  0  0  0  0  0  0  0  0
    7.5106    6.1779    6.8908 H   0  0  0  0  0  0  0  0  0  0  0  0
    5.3016    5.9188    6.0389 H   0  0  0  0  0  0  0  0  0  0  0  0
    3.5222    7.4761    6.8223 H   0  0  0  0  0  0  0  0  0  0  0  0
    2.4719    7.1162    9.0226 H   0  0  0  0  0  0  0  0  0  0  0  0
    3.1872    5.2367   10.4465 H   0  0  0  0  0  0  0  0  0  0  0  0
    4.9940    3.7133    9.6538 H   0  0  0  0  0  0  0  0  0  0  0  0
    9.3538    4.0656    9.3858 H   0  0  0  0  0  0  0  0  0  0  0  0
    7.7209    3.4335    9.6289 H   0  0  0  0  0  0  0  0  0  0  0  0
    6.8235    5.6516   10.0579 H   0  0  0  0  0  0  0  0  0  0  0  0
    8.2974    5.4849   11.0415 H   0  0  0  0  0  0  0  0  0  0  0  0
  1  2  1  0  0  0  0
  2  3  1  0  0  0  0
  2  5  1  0  0  0  0
  3  4  1  0  0  0  0
  3 20  1  0  0  0  0
  3 21  1  0  0  0  0
  5  6  1  0  0  0  0
  5 19  1  0  0  0  0
  6  7  1  0  0  0  0
  6 22  1  0  0  0  0
  6 23  1  0  0  0  0
  7  8  1  0  0  0  0
  7 24  1  0  0  0  0
  7 25  1  0  0  0  0
  8  9  1  0  0  0  0
  8 18  1  0  0  0  0
  9 10  1  0  0  0  0
  9 11  1  0  0  0  0
  9 12  1  0  0  0  0
 12 13  1  0  0  0  0
 12 17  1  0  0  0  0
 13 14  1  0  0  0  0
 13 26  1  0  0  0  0
 14 15  1  0  0  0  0
 14 27  1  0  0  0  0
 15 16  1  0  0  0  0
 15 28  1  0  0  0  0
 16 17  1  0  0  0  0
 16 29  1  0  0  0  0
 17 30  1  0  0  0  0
 18 19  1  0  0  0  0
 18 31  1  0  0  0  0
 18 32  1  0  0  0  0
 19 33  1  0  0  0  0
 19 34  1  0  0  0  0
M  END
>  <name>


>  <Energy>
47.6039

> <total energy / Eh>
    -59.202251735103

> <gradient norm / Eh/a0>
      0.000540974628

$$$$
