MODEL 1
REMARK VINA RESULT:      -7.0      0.000      0.000
REMARK  Name = 
REMARK  5 active torsions:
REMARK  status: ('A' for Active; 'I' for Inactive)
REMARK    1  A    between atoms: C_2  and  C_3
REMARK    2  A    between atoms: C_2  and  N_5
REMARK    3  A    between atoms: N_8  and  S_9
REMARK    4  A    between atoms: S_9  and  C_12
REMARK    5  A    between atoms: C_15  and  N_16
REMARK                            x       y       z     vdW  Elec       q    Type
REMARK                         _______ _______ _______ _____ _____    ______ ____
ROOT
ATOM      1  S   UNL     1       9.431  -1.860  23.053  0.00  0.00    +0.000 S 
ATOM      2  O   UNL     1      10.755  -1.879  22.513  0.00  0.00    +0.000 OA
ATOM      3  O   UNL     1       8.862  -3.045  23.609  0.00  0.00    +0.000 OA
ENDROOT
BRANCH   1   7
ATOM      4  N   UNL     1       9.015   2.071  24.169  0.00  0.00    +0.000 NA
ATOM      5  C   UNL     1      10.290   1.540  23.720  0.00  0.00    +0.000 C 
ATOM      6  C   UNL     1      10.543   0.172  24.367  0.00  0.00    +0.000 C 
ATOM      7  N   UNL     1       9.412  -0.707  24.248  0.00  0.00    +0.000 NA
ATOM      8  C   UNL     1       8.117  -0.148  24.594  0.00  0.00    +0.000 C 
ATOM      9  C   UNL     1       8.281   1.270  25.130  0.00  0.00    +0.000 C 
BRANCH   4  11
ATOM     10  O   UNL     1       8.343   4.217  24.293  0.00  0.00    +0.000 OA
ATOM     11  C   UNL     1       8.424   3.180  23.669  0.00  0.00    +0.000 C 
BRANCH  11  12
ATOM     12  C   UNL     1       7.860   3.079  22.259  0.00  0.00    +0.000 C 
ATOM     13 CL   UNL     1       6.270   2.273  22.320  0.00  0.00    +0.000 Cl
ENDBRANCH  11  12
ENDBRANCH   4  11
ENDBRANCH   1   7
BRANCH   1  14
ATOM     14  C   UNL     1       8.318  -1.249  21.772  0.00  0.00    +0.000 C 
ATOM     15  C   UNL     1       8.756  -0.271  20.896  0.00  0.00    +0.000 C 
ATOM     16  C   UNL     1       7.912   0.158  19.885  0.00  0.00    +0.000 C 
ATOM     17  C   UNL     1       6.643  -0.397  19.786  0.00  0.00    +0.000 C 
ATOM     18  C   UNL     1       6.194  -1.360  20.684  0.00  0.00    +0.000 C 
ATOM     19  C   UNL     1       7.047  -1.791  21.682  0.00  0.00    +0.000 C 
BRANCH  17  20
ATOM     20  N   UNL     1       5.761   0.039  18.723  0.00  0.00    +0.000 NA
ATOM     21  O   UNL     1       4.934   0.879  18.995  0.00  0.00    +0.000 OA
ATOM     22  O   UNL     1       5.909  -0.466  17.633  0.00  0.00    +0.000 OA
ENDBRANCH  17  20
ENDBRANCH   1  14
TORSDOF 5
ENDMDL
MODEL 2
REMARK VINA RESULT:      -6.8      2.730      4.439
REMARK  Name = 
REMARK  5 active torsions:
REMARK  status: ('A' for Active; 'I' for Inactive)
REMARK    1  A    between atoms: C_2  and  C_3
REMARK    2  A    between atoms: C_2  and  N_5
REMARK    3  A    between atoms: N_8  and  S_9
REMARK    4  A    between atoms: S_9  and  C_12
REMARK    5  A    between atoms: C_15  and  N_16
REMARK                            x       y       z     vdW  Elec       q    Type
REMARK                         _______ _______ _______ _____ _____    ______ ____
ROOT
ATOM      1  S   UNL     1       8.923   1.129  23.359  0.00  0.00    +0.000 S 
ATOM      2  O   UNL     1       8.286   2.241  23.994  0.00  0.00    +0.000 OA
ATOM      3  O   UNL     1      10.335   1.130  23.152  0.00  0.00    +0.000 OA
ENDROOT
BRANCH   1   7
ATOM      4  N   UNL     1       7.314  -2.641  23.614  0.00  0.00    +0.000 NA
ATOM      5  C   UNL     1       6.491  -1.453  23.760  0.00  0.00    +0.000 C 
ATOM      6  C   UNL     1       7.201  -0.433  24.659  0.00  0.00    +0.000 C 
ATOM      7  N   UNL     1       8.568  -0.215  24.266  0.00  0.00    +0.000 NA
ATOM      8  C   UNL     1       9.367  -1.402  24.015  0.00  0.00    +0.000 C 
ATOM      9  C   UNL     1       8.566  -2.657  24.346  0.00  0.00    +0.000 C 
BRANCH   4  11
ATOM     10  O   UNL     1       6.490  -3.498  21.701  0.00  0.00    +0.000 OA
ATOM     11  C   UNL     1       7.051  -3.660  22.764  0.00  0.00    +0.000 C 
BRANCH  11  12
ATOM     12  C   UNL     1       7.501  -5.048  23.200  0.00  0.00    +0.000 C 
ATOM     13 CL   UNL     1       7.115  -6.221  21.912  0.00  0.00    +0.000 Cl
ENDBRANCH  11  12
ENDBRANCH   4  11
ENDBRANCH   1   7
BRANCH   1  14
ATOM     14  C   UNL     1       8.120   0.865  21.766  0.00  0.00    +0.000 C 
ATOM     15  C   UNL     1       6.965   1.562  21.459  0.00  0.00    +0.000 C 
ATOM     16  C   UNL     1       6.381   1.391  20.215  0.00  0.00    +0.000 C 
ATOM     17  C   UNL     1       6.966   0.511  19.313  0.00  0.00    +0.000 C 
ATOM     18  C   UNL     1       8.112  -0.210  19.632  0.00  0.00    +0.000 C 
ATOM     19  C   UNL     1       8.693  -0.022  20.872  0.00  0.00    +0.000 C 
BRANCH  17  20
ATOM     20  N   UNL     1       6.367   0.337  18.005  0.00  0.00    +0.000 NA
ATOM     21  O   UNL     1       5.984  -0.772  17.711  0.00  0.00    +0.000 OA
ATOM     22  O   UNL     1       6.290   1.312  17.293  0.00  0.00    +0.000 OA
ENDBRANCH  17  20
ENDBRANCH   1  14
TORSDOF 5
ENDMDL
MODEL 3
REMARK VINA RESULT:      -6.4      3.944      5.469
REMARK  Name = 
REMARK  5 active torsions:
REMARK  status: ('A' for Active; 'I' for Inactive)
REMARK    1  A    between atoms: C_2  and  C_3
REMARK    2  A    between atoms: C_2  and  N_5
REMARK    3  A    between atoms: N_8  and  S_9
REMARK    4  A    between atoms: S_9  and  C_12
REMARK    5  A    between atoms: C_15  and  N_16
REMARK                            x       y       z     vdW  Elec       q    Type
REMARK                         _______ _______ _______ _____ _____    ______ ____
ROOT
ATOM      1  S   UNL     1       8.001  -1.959  23.356  0.00  0.00    +0.000 S 
ATOM      2  O   UNL     1       7.572  -1.043  24.367  0.00  0.00    +0.000 OA
ATOM      3  O   UNL     1       9.367  -2.364  23.283  0.00  0.00    +0.000 OA
ENDROOT
BRANCH   1   7
ATOM      4  N   UNL     1       6.796  -5.116  25.691  0.00  0.00    +0.000 NA
ATOM      5  C   UNL     1       8.021  -5.171  24.911  0.00  0.00    +0.000 C 
ATOM      6  C   UNL     1       7.772  -4.608  23.507  0.00  0.00    +0.000 C 
ATOM      7  N   UNL     1       7.096  -3.339  23.538  0.00  0.00    +0.000 NA
ATOM      8  C   UNL     1       5.931  -3.246  24.400  0.00  0.00    +0.000 C 
ATOM      9  C   UNL     1       5.619  -4.607  25.013  0.00  0.00    +0.000 C 
BRANCH   4  11
ATOM     10  O   UNL     1       7.673  -5.720  27.676  0.00  0.00    +0.000 OA
ATOM     11  C   UNL     1       6.713  -5.388  27.013  0.00  0.00    +0.000 C 
BRANCH  11  12
ATOM     12  C   UNL     1       5.339  -5.252  27.654  0.00  0.00    +0.000 C 
ATOM     13 CL   UNL     1       4.533  -6.843  27.659  0.00  0.00    +0.000 Cl
ENDBRANCH  11  12
ENDBRANCH   4  11
ENDBRANCH   1   7
BRANCH   1  14
ATOM     14  C   UNL     1       7.529  -1.277  21.754  0.00  0.00    +0.000 C 
ATOM     15  C   UNL     1       8.340  -0.334  21.147  0.00  0.00    +0.000 C 
ATOM     16  C   UNL     1       7.997   0.149  19.895  0.00  0.00    +0.000 C 
ATOM     17  C   UNL     1       6.838  -0.318  19.289  0.00  0.00    +0.000 C 
ATOM     18  C   UNL     1       6.009  -1.246  19.911  0.00  0.00    +0.000 C 
ATOM     19  C   UNL     1       6.367  -1.731  21.155  0.00  0.00    +0.000 C 
BRANCH  17  20
ATOM     20  N   UNL     1       6.480   0.174  17.974  0.00  0.00    +0.000 NA
ATOM     21  O   UNL     1       5.645  -0.445  17.356  0.00  0.00    +0.000 OA
ATOM     22  O   UNL     1       7.041   1.172  17.580  0.00  0.00    +0.000 OA
ENDBRANCH  17  20
ENDBRANCH   1  14
TORSDOF 5
ENDMDL
MODEL 4
REMARK VINA RESULT:      -6.3      2.915      4.324
REMARK  Name = 
REMARK  5 active torsions:
REMARK  status: ('A' for Active; 'I' for Inactive)
REMARK    1  A    between atoms: C_2  and  C_3
REMARK    2  A    between atoms: C_2  and  N_5
REMARK    3  A    between atoms: N_8  and  S_9
REMARK    4  A    between atoms: S_9  and  C_12
REMARK    5  A    between atoms: C_15  and  N_16
REMARK                            x       y       z     vdW  Elec       q    Type
REMARK                         _______ _______ _______ _____ _____    ______ ____
ROOT
ATOM      1  S   UNL     1       8.207  -0.636  24.402  0.00  0.00    +0.000 S 
ATOM      2  O   UNL     1       9.461  -1.097  24.913  0.00  0.00    +0.000 OA
ATOM      3  O   UNL     1       7.253  -0.029  25.273  0.00  0.00    +0.000 OA
ENDROOT
BRANCH   1   7
ATOM      4  N   UNL     1       8.069   0.454  20.445  0.00  0.00    +0.000 NA
ATOM      5  C   UNL     1       9.142  -0.374  20.967  0.00  0.00    +0.000 C 
ATOM      6  C   UNL     1       9.631   0.189  22.308  0.00  0.00    +0.000 C 
ATOM      7  N   UNL     1       8.547   0.470  23.211  0.00  0.00    +0.000 NA
ATOM      8  C   UNL     1       7.422   1.206  22.664  0.00  0.00    +0.000 C 
ATOM      9  C   UNL     1       7.712   1.623  21.226  0.00  0.00    +0.000 C 
BRANCH   4  11
ATOM     10  O   UNL     1       7.791  -0.005  18.257  0.00  0.00    +0.000 OA
ATOM     11  C   UNL     1       7.317   0.147  19.363  0.00  0.00    +0.000 C 
BRANCH  11  12
ATOM     12  C   UNL     1       5.820  -0.011  19.593  0.00  0.00    +0.000 C 
ATOM     13 CL   UNL     1       4.975   1.429  18.969  0.00  0.00    +0.000 Cl
ENDBRANCH  11  12
ENDBRANCH   4  11
ENDBRANCH   1   7
BRANCH   1  14
ATOM     14  C   UNL     1       7.406  -2.019  23.566  0.00  0.00    +0.000 C 
ATOM     15  C   UNL     1       8.160  -3.113  23.180  0.00  0.00    +0.000 C 
ATOM     16  C   UNL     1       7.530  -4.192  22.582  0.00  0.00    +0.000 C 
ATOM     17  C   UNL     1       6.157  -4.139  22.374  0.00  0.00    +0.000 C 
ATOM     18  C   UNL     1       5.405  -3.027  22.738  0.00  0.00    +0.000 C 
ATOM     19  C   UNL     1       6.041  -1.961  23.345  0.00  0.00    +0.000 C 
BRANCH  17  20
ATOM     20  N   UNL     1       5.491  -5.270  21.760  0.00  0.00    +0.000 NA
ATOM     21  O   UNL     1       4.528  -5.727  22.333  0.00  0.00    +0.000 OA
ATOM     22  O   UNL     1       5.940  -5.682  20.715  0.00  0.00    +0.000 OA
ENDBRANCH  17  20
ENDBRANCH   1  14
TORSDOF 5
ENDMDL
MODEL 5
REMARK VINA RESULT:      -5.9      2.984      4.795
REMARK  Name = 
REMARK  5 active torsions:
REMARK  status: ('A' for Active; 'I' for Inactive)
REMARK    1  A    between atoms: C_2  and  C_3
REMARK    2  A    between atoms: C_2  and  N_5
REMARK    3  A    between atoms: N_8  and  S_9
REMARK    4  A    between atoms: S_9  and  C_12
REMARK    5  A    between atoms: C_15  and  N_16
REMARK                            x       y       z     vdW  Elec       q    Type
REMARK                         _______ _______ _______ _____ _____    ______ ____
ROOT
ATOM      1  S   UNL     1       7.310   0.154  24.344  0.00  0.00    +0.000 S 
ATOM      2  O   UNL     1       6.122  -0.398  24.917  0.00  0.00    +0.000 OA
ATOM      3  O   UNL     1       7.730   1.475  24.688  0.00  0.00    +0.000 OA
ENDROOT
BRANCH   1   7
ATOM      4  N   UNL     1       8.761  -3.668  24.741  0.00  0.00    +0.000 NA
ATOM      5  C   UNL     1       8.009  -3.026  25.806  0.00  0.00    +0.000 C 
ATOM      6  C   UNL     1       8.488  -1.581  25.986  0.00  0.00    +0.000 C 
ATOM      7  N   UNL     1       8.558  -0.868  24.739  0.00  0.00    +0.000 NA
ATOM      8  C   UNL     1       9.216  -1.549  23.638  0.00  0.00    +0.000 C 
ATOM      9  C   UNL     1       9.801  -2.875  24.113  0.00  0.00    +0.000 C 
BRANCH   4  11
ATOM     10  O   UNL     1       9.263  -5.812  24.271  0.00  0.00    +0.000 OA
ATOM     11  C   UNL     1       8.480  -4.887  24.227  0.00  0.00    +0.000 C 
BRANCH  11  12
ATOM     12  C   UNL     1       7.111  -5.060  23.586  0.00  0.00    +0.000 C 
ATOM     13 CL   UNL     1       7.300  -5.874  22.010  0.00  0.00    +0.000 Cl
ENDBRANCH  11  12
ENDBRANCH   4  11
ENDBRANCH   1   7
BRANCH   1  14
ATOM     14  C   UNL     1       7.156   0.061  22.550  0.00  0.00    +0.000 C 
ATOM     15  C   UNL     1       6.700  -1.105  21.963  0.00  0.00    +0.000 C 
ATOM     16  C   UNL     1       6.538  -1.153  20.588  0.00  0.00    +0.000 C 
ATOM     17  C   UNL     1       6.852  -0.030  19.834  0.00  0.00    +0.000 C 
ATOM     18  C   UNL     1       7.336   1.134  20.423  0.00  0.00    +0.000 C 
ATOM     19  C   UNL     1       7.483   1.175  21.796  0.00  0.00    +0.000 C 
BRANCH  17  20
ATOM     20  N   UNL     1       6.673  -0.069  18.397  0.00  0.00    +0.000 NA
ATOM     21  O   UNL     1       6.136  -1.046  17.929  0.00  0.00    +0.000 OA
ATOM     22  O   UNL     1       7.072   0.879  17.760  0.00  0.00    +0.000 OA
ENDBRANCH  17  20
ENDBRANCH   1  14
TORSDOF 5
ENDMDL
MODEL 6
REMARK VINA RESULT:      -5.9      3.507      5.453
REMARK  Name = 
REMARK  5 active torsions:
REMARK  status: ('A' for Active; 'I' for Inactive)
REMARK    1  A    between atoms: C_2  and  C_3
REMARK    2  A    between atoms: C_2  and  N_5
REMARK    3  A    between atoms: N_8  and  S_9
REMARK    4  A    between atoms: S_9  and  C_12
REMARK    5  A    between atoms: C_15  and  N_16
REMARK                            x       y       z     vdW  Elec       q    Type
REMARK                         _______ _______ _______ _____ _____    ______ ____
ROOT
ATOM      1  S   UNL     1       9.122  -2.214  23.479  0.00  0.00    +0.000 S 
ATOM      2  O   UNL     1       8.171  -1.914  22.454  0.00  0.00    +0.000 OA
ATOM      3  O   UNL     1      10.433  -2.664  23.136  0.00  0.00    +0.000 OA
ENDROOT
BRANCH   1   7
ATOM      4  N   UNL     1       9.079   1.885  23.733  0.00  0.00    +0.000 NA
ATOM      5  C   UNL     1      10.262   1.163  23.297  0.00  0.00    +0.000 C 
ATOM      6  C   UNL     1      10.497  -0.051  24.203  0.00  0.00    +0.000 C 
ATOM      7  N   UNL     1       9.306  -0.836  24.387  0.00  0.00    +0.000 NA
ATOM      8  C   UNL     1       8.094  -0.108  24.719  0.00  0.00    +0.000 C 
ATOM      9  C   UNL     1       8.405   1.373  24.911  0.00  0.00    +0.000 C 
BRANCH   4  11
ATOM     10  O   UNL     1       8.057   2.785  21.939  0.00  0.00    +0.000 OA
ATOM     11  C   UNL     1       8.508   2.909  23.058  0.00  0.00    +0.000 C 
BRANCH  11  12
ATOM     12  C   UNL     1       8.447   4.251  23.774  0.00  0.00    +0.000 C 
ATOM     13 CL   UNL     1      10.080   4.965  23.822  0.00  0.00    +0.000 Cl
ENDBRANCH  11  12
ENDBRANCH   4  11
ENDBRANCH   1   7
BRANCH   1  14
ATOM     14  C   UNL     1       8.382  -3.430  24.585  0.00  0.00    +0.000 C 
ATOM     15  C   UNL     1       9.127  -3.945  25.631  0.00  0.00    +0.000 C 
ATOM     16  C   UNL     1       8.536  -4.842  26.506  0.00  0.00    +0.000 C 
ATOM     17  C   UNL     1       7.213  -5.210  26.300  0.00  0.00    +0.000 C 
ATOM     18  C   UNL     1       6.473  -4.712  25.233  0.00  0.00    +0.000 C 
ATOM     19  C   UNL     1       7.067  -3.809  24.373  0.00  0.00    +0.000 C 
BRANCH  17  20
ATOM     20  N   UNL     1       6.585  -6.138  27.219  0.00  0.00    +0.000 NA
ATOM     21  O   UNL     1       5.631  -6.762  26.815  0.00  0.00    +0.000 OA
ATOM     22  O   UNL     1       7.057  -6.228  28.330  0.00  0.00    +0.000 OA
ENDBRANCH  17  20
ENDBRANCH   1  14
TORSDOF 5
ENDMDL
MODEL 7
REMARK VINA RESULT:      -5.9      3.491      5.367
REMARK  Name = 
REMARK  5 active torsions:
REMARK  status: ('A' for Active; 'I' for Inactive)
REMARK    1  A    between atoms: C_2  and  C_3
REMARK    2  A    between atoms: C_2  and  N_5
REMARK    3  A    between atoms: N_8  and  S_9
REMARK    4  A    between atoms: S_9  and  C_12
REMARK    5  A    between atoms: C_15  and  N_16
REMARK                            x       y       z     vdW  Elec       q    Type
REMARK                         _______ _______ _______ _____ _____    ______ ____
ROOT
ATOM      1  S   UNL     1       7.579  -1.137  23.027  0.00  0.00    +0.000 S 
ATOM      2  O   UNL     1       6.736  -0.073  23.478  0.00  0.00    +0.000 OA
ATOM      3  O   UNL     1       7.500  -1.596  21.678  0.00  0.00    +0.000 OA
ENDROOT
BRANCH   1   7
ATOM      4  N   UNL     1      10.349   1.882  23.309  0.00  0.00    +0.000 NA
ATOM      5  C   UNL     1       9.989   1.298  22.028  0.00  0.00    +0.000 C 
ATOM      6  C   UNL     1       9.924  -0.229  22.150  0.00  0.00    +0.000 C 
ATOM      7  N   UNL     1       9.147  -0.655  23.283  0.00  0.00    +0.000 NA
ATOM      8  C   UNL     1       9.429   0.003  24.547  0.00  0.00    +0.000 C 
ATOM      9  C   UNL     1      10.610   0.955  24.393  0.00  0.00    +0.000 C 
BRANCH   4  11
ATOM     10  O   UNL     1       9.386   3.766  24.082  0.00  0.00    +0.000 OA
ATOM     11  C   UNL     1      10.339   3.207  23.581  0.00  0.00    +0.000 C 
BRANCH  11  12
ATOM     12  C   UNL     1      11.600   3.986  23.233  0.00  0.00    +0.000 C 
ATOM     13 CL   UNL     1      11.424   5.668  23.799  0.00  0.00    +0.000 Cl
ENDBRANCH  11  12
ENDBRANCH   4  11
ENDBRANCH   1   7
BRANCH   1  14
ATOM     14  C   UNL     1       7.321  -2.549  24.118  0.00  0.00    +0.000 C 
ATOM     15  C   UNL     1       8.115  -3.674  23.979  0.00  0.00    +0.000 C 
ATOM     16  C   UNL     1       7.943  -4.736  24.852  0.00  0.00    +0.000 C 
ATOM     17  C   UNL     1       6.967  -4.647  25.836  0.00  0.00    +0.000 C 
ATOM     18  C   UNL     1       6.151  -3.527  25.958  0.00  0.00    +0.000 C 
ATOM     19  C   UNL     1       6.338  -2.468  25.090  0.00  0.00    +0.000 C 
BRANCH  17  20
ATOM     20  N   UNL     1       6.792  -5.749  26.760  0.00  0.00    +0.000 NA
ATOM     21  O   UNL     1       7.561  -5.824  27.690  0.00  0.00    +0.000 OA
ATOM     22  O   UNL     1       5.887  -6.522  26.540  0.00  0.00    +0.000 OA
ENDBRANCH  17  20
ENDBRANCH   1  14
TORSDOF 5
ENDMDL
MODEL 8
REMARK VINA RESULT:      -5.9      2.661      4.972
REMARK  Name = 
REMARK  5 active torsions:
REMARK  status: ('A' for Active; 'I' for Inactive)
REMARK    1  A    between atoms: C_2  and  C_3
REMARK    2  A    between atoms: C_2  and  N_5
REMARK    3  A    between atoms: N_8  and  S_9
REMARK    4  A    between atoms: S_9  and  C_12
REMARK    5  A    between atoms: C_15  and  N_16
REMARK                            x       y       z     vdW  Elec       q    Type
REMARK                         _______ _______ _______ _____ _____    ______ ____
ROOT
ATOM      1  S   UNL     1       8.862   1.030  24.831  0.00  0.00    +0.000 S 
ATOM      2  O   UNL     1      10.247   1.357  24.975  0.00  0.00    +0.000 OA
ATOM      3  O   UNL     1       7.934   1.354  25.866  0.00  0.00    +0.000 OA
ENDROOT
BRANCH   1   7
ATOM      4  N   UNL     1       7.614   0.784  20.926  0.00  0.00    +0.000 NA
ATOM      5  C   UNL     1       9.024   0.855  21.270  0.00  0.00    +0.000 C 
ATOM      6  C   UNL     1       9.245   1.921  22.350  0.00  0.00    +0.000 C 
ATOM      7  N   UNL     1       8.329   1.783  23.450  0.00  0.00    +0.000 NA
ATOM      8  C   UNL     1       6.929   1.605  23.109  0.00  0.00    +0.000 C 
ATOM      9  C   UNL     1       6.735   1.719  21.601  0.00  0.00    +0.000 C 
BRANCH   4  11
ATOM     10  O   UNL     1       6.486  -1.130  20.558  0.00  0.00    +0.000 OA
ATOM     11  C   UNL     1       7.064  -0.156  20.124  0.00  0.00    +0.000 C 
BRANCH  11  12
ATOM     12  C   UNL     1       7.193   0.064  18.623  0.00  0.00    +0.000 C 
ATOM     13 CL   UNL     1       5.571   0.321  17.926  0.00  0.00    +0.000 Cl
ENDBRANCH  11  12
ENDBRANCH   4  11
ENDBRANCH   1   7
BRANCH   1  14
ATOM     14  C   UNL     1       8.740  -0.737  24.498  0.00  0.00    +0.000 C 
ATOM     15  C   UNL     1       9.863  -1.436  24.091  0.00  0.00    +0.000 C 
ATOM     16  C   UNL     1       9.773  -2.802  23.884  0.00  0.00    +0.000 C 
ATOM     17  C   UNL     1       8.551  -3.433  24.078  0.00  0.00    +0.000 C 
ATOM     18  C   UNL     1       7.416  -2.726  24.460  0.00  0.00    +0.000 C 
ATOM     19  C   UNL     1       7.519  -1.365  24.676  0.00  0.00    +0.000 C 
BRANCH  17  20
ATOM     20  N   UNL     1       8.453  -4.864  23.874  0.00  0.00    +0.000 NA
ATOM     21  O   UNL     1       9.285  -5.561  24.409  0.00  0.00    +0.000 OA
ATOM     22  O   UNL     1       7.546  -5.268  23.183  0.00  0.00    +0.000 OA
ENDBRANCH  17  20
ENDBRANCH   1  14
TORSDOF 5
ENDMDL
MODEL 9
REMARK VINA RESULT:      -5.8      4.051      5.904
REMARK  Name = 
REMARK  5 active torsions:
REMARK  status: ('A' for Active; 'I' for Inactive)
REMARK    1  A    between atoms: C_2  and  C_3
REMARK    2  A    between atoms: C_2  and  N_5
REMARK    3  A    between atoms: N_8  and  S_9
REMARK    4  A    between atoms: S_9  and  C_12
REMARK    5  A    between atoms: C_15  and  N_16
REMARK                            x       y       z     vdW  Elec       q    Type
REMARK                         _______ _______ _______ _____ _____    ______ ____
ROOT
ATOM      1  S   UNL     1       8.919  -2.644  24.554  0.00  0.00    +0.000 S 
ATOM      2  O   UNL     1      10.051  -3.285  23.960  0.00  0.00    +0.000 OA
ATOM      3  O   UNL     1       9.101  -1.633  25.545  0.00  0.00    +0.000 OA
ENDROOT
BRANCH   1   7
ATOM      4  N   UNL     1       7.942   0.665  22.326  0.00  0.00    +0.000 NA
ATOM      5  C   UNL     1       7.276   0.372  23.584  0.00  0.00    +0.000 C 
ATOM      6  C   UNL     1       6.928  -1.120  23.656  0.00  0.00    +0.000 C 
ATOM      7  N   UNL     1       8.046  -1.959  23.319  0.00  0.00    +0.000 NA
ATOM      8  C   UNL     1       8.783  -1.607  22.118  0.00  0.00    +0.000 C 
ATOM      9  C   UNL     1       8.102  -0.444  21.404  0.00  0.00    +0.000 C 
BRANCH   4  11
ATOM     10  O   UNL     1       7.871   2.845  21.766  0.00  0.00    +0.000 OA
ATOM     11  C   UNL     1       8.516   1.850  22.017  0.00  0.00    +0.000 C 
BRANCH  11  12
ATOM     12  C   UNL     1      10.038   1.889  22.004  0.00  0.00    +0.000 C 
ATOM     13 CL   UNL     1      10.615   2.745  23.458  0.00  0.00    +0.000 Cl
ENDBRANCH  11  12
ENDBRANCH   4  11
ENDBRANCH   1   7
BRANCH   1  14
ATOM     14  C   UNL     1       7.856  -3.926  25.247  0.00  0.00    +0.000 C 
ATOM     15  C   UNL     1       7.917  -4.207  26.600  0.00  0.00    +0.000 C 
ATOM     16  C   UNL     1       7.063  -5.158  27.134  0.00  0.00    +0.000 C 
ATOM     17  C   UNL     1       6.177  -5.815  26.290  0.00  0.00    +0.000 C 
ATOM     18  C   UNL     1       6.135  -5.551  24.925  0.00  0.00    +0.000 C 
ATOM     19  C   UNL     1       6.982  -4.592  24.405  0.00  0.00    +0.000 C 
BRANCH  17  20
ATOM     20  N   UNL     1       5.272  -6.802  26.844  0.00  0.00    +0.000 NA
ATOM     21  O   UNL     1       5.542  -7.255  27.933  0.00  0.00    +0.000 OA
ATOM     22  O   UNL     1       4.308  -7.109  26.181  0.00  0.00    +0.000 OA
ENDBRANCH  17  20
ENDBRANCH   1  14
TORSDOF 5
ENDMDL
