
 OpenBabel06082022513D

 40 41  0  0  0  0  0  0  0  0999 V2000
   11.2591    6.2589    8.7397 C   0  0  0  0  0  0  0  0  0  0  0  0
    9.8128    6.1767    8.3379 C   0  0  0  0  0  0  0  0  0  0  0  0
    9.3208    7.1920    7.4950 C   0  0  0  0  0  0  0  0  0  0  0  0
    7.9733    7.2478    7.1294 C   0  0  0  0  0  0  0  0  0  0  0  0
    7.1124    6.2726    7.6140 C   0  0  0  0  0  0  0  0  0  0  0  0
    5.3585    6.4125    7.3846 S   0  0  0  0  0  0  0  0  0  0  0  0
    5.1257    6.9659    6.0631 O   0  0  0  0  0  0  0  0  0  0  0  0
    4.7631    5.1576    7.7909 O   0  0  0  0  0  0  0  0  0  0  0  0
    4.9300    7.5690    8.5506 N   0  0  0  0  0  0  0  0  0  0  0  0
    4.8534    8.9926    8.1390 C   0  0  0  0  0  0  0  0  0  0  0  0
    5.5821    9.9428    9.0920 C   0  0  0  0  0  0  0  0  0  0  0  0
    6.7892    9.3363    9.6440 N   0  0  0  0  0  0  0  0  0  0  0  0
    8.0460    9.9366    9.7027 C   0  0  0  0  0  0  0  0  0  0  0  0
    8.8980    9.5351   10.4956 O   0  0  0  0  0  0  0  0  0  0  0  0
    8.3121   11.0422    8.6875 C   0  0  0  0  0  0  0  0  0  0  0  0
    9.9688   11.6701    8.8086 Cl  0  0  0  0  0  0  0  0  0  0  0  0
    6.5680    8.1038   10.4038 C   0  0  0  0  0  0  0  0  0  0  0  0
    5.3062    7.3235    9.9720 C   0  0  0  0  0  0  0  0  0  0  0  0
    7.5942    5.2153    8.3926 C   0  0  0  0  0  0  0  0  0  0  0  0
    8.9341    5.1819    8.8093 C   0  0  0  0  0  0  0  0  0  0  0  0
    9.3220    4.0713    9.7453 C   0  0  0  0  0  0  0  0  0  0  0  0
   11.3973    7.0827    9.4526 H   0  0  0  0  0  0  0  0  0  0  0  0
   11.8861    6.4467    7.8612 H   0  0  0  0  0  0  0  0  0  0  0  0
   11.6347    5.3438    9.1972 H   0  0  0  0  0  0  0  0  0  0  0  0
    9.9915    7.9772    7.1485 H   0  0  0  0  0  0  0  0  0  0  0  0
    7.6070    8.0643    6.5137 H   0  0  0  0  0  0  0  0  0  0  0  0
    3.7960    9.2755    8.0838 H   0  0  0  0  0  0  0  0  0  0  0  0
    5.2728    9.1329    7.1384 H   0  0  0  0  0  0  0  0  0  0  0  0
    4.9392   10.1844    9.9482 H   0  0  0  0  0  0  0  0  0  0  0  0
    5.7865   10.8860    8.5835 H   0  0  0  0  0  0  0  0  0  0  0  0
    7.6379   11.8859    8.8417 H   0  0  0  0  0  0  0  0  0  0  0  0
    8.1904   10.6363    7.6788 H   0  0  0  0  0  0  0  0  0  0  0  0
    6.4887    8.3729   11.4638 H   0  0  0  0  0  0  0  0  0  0  0  0
    7.4602    7.4753   10.3135 H   0  0  0  0  0  0  0  0  0  0  0  0
    5.4401    6.2554   10.1764 H   0  0  0  0  0  0  0  0  0  0  0  0
    4.4574    7.6354   10.5912 H   0  0  0  0  0  0  0  0  0  0  0  0
    6.9087    4.4423    8.7396 H   0  0  0  0  0  0  0  0  0  0  0  0
   10.2422    4.2757   10.2925 H   0  0  0  0  0  0  0  0  0  0  0  0
    9.4290    3.1340    9.1928 H   0  0  0  0  0  0  0  0  0  0  0  0
    8.5409    3.9451   10.5044 H   0  0  0  0  0  0  0  0  0  0  0  0
  1  2  1  0  0  0  0
  1 22  1  0  0  0  0
  1 23  1  0  0  0  0
  1 24  1  0  0  0  0
  2  3  1  0  0  0  0
  2 20  2  0  0  0  0
  3  4  2  0  0  0  0
  3 25  1  0  0  0  0
  4  5  1  0  0  0  0
  4 26  1  0  0  0  0
  5  6  1  0  0  0  0
  5 19  2  0  0  0  0
  6  7  2  0  0  0  0
  6  8  2  0  0  0  0
  6  9  1  0  0  0  0
  9 10  1  0  0  0  0
  9 18  1  0  0  0  0
 10 11  1  0  0  0  0
 10 27  1  0  0  0  0
 10 28  1  0  0  0  0
 11 12  1  0  0  0  0
 11 29  1  0  0  0  0
 11 30  1  0  0  0  0
 12 13  1  0  0  0  0
 12 17  1  0  0  0  0
 13 14  2  0  0  0  0
 13 15  1  0  0  0  0
 15 16  1  0  0  0  0
 15 31  1  0  0  0  0
 15 32  1  0  0  0  0
 17 18  1  0  0  0  0
 17 33  1  0  0  0  0
 17 34  1  0  0  0  0
 18 35  1  0  0  0  0
 18 36  1  0  0  0  0
 19 20  1  0  0  0  0
 19 37  1  0  0  0  0
 20 21  1  0  0  0  0
 21 38  1  0  0  0  0
 21 39  1  0  0  0  0
 21 40  1  0  0  0  0
M  END
>  <name>


>  <Energy>
56.155

$$$$
