MODEL 1
REMARK VINA RESULT:      -6.2      0.000      0.000
REMARK  Name = 
REMARK  4 active torsions:
REMARK  status: ('A' for Active; 'I' for Inactive)
REMARK    1  A    between atoms: C_2  and  C_3
REMARK    2  A    between atoms: C_2  and  N_5
REMARK    3  A    between atoms: N_8  and  S_9
REMARK    4  A    between atoms: S_9  and  C_12
REMARK                            x       y       z     vdW  Elec       q    Type
REMARK                         _______ _______ _______ _____ _____    ______ ____
ROOT
ATOM      1  N   UNL     1       7.139  -2.508  22.774  0.00  0.00    +0.000 NA
ATOM      2  C   UNL     1       6.595  -1.660  23.815  0.00  0.00    +0.000 C 
ATOM      3  C   UNL     1       6.738  -0.197  23.408  0.00  0.00    +0.000 C 
ATOM      4  N   UNL     1       8.130   0.113  23.133  0.00  0.00    +0.000 NA
ATOM      5  C   UNL     1       9.037  -1.003  23.110  0.00  0.00    +0.000 C 
ATOM      6  C   UNL     1       8.485  -2.193  22.320  0.00  0.00    +0.000 C 
ENDROOT
BRANCH   4   7
ATOM      7  S   UNL     1       8.401   1.354  22.049  0.00  0.00    +0.000 S 
ATOM      8  O   UNL     1       9.764   1.231  21.626  0.00  0.00    +0.000 OA
ATOM      9  O   UNL     1       7.963   2.554  22.692  0.00  0.00    +0.000 OA
BRANCH   7  10
ATOM     10  C   UNL     1       7.335   1.031  20.642  0.00  0.00    +0.000 C 
ATOM     11  C   UNL     1       7.713   0.099  19.695  0.00  0.00    +0.000 C 
ATOM     12  C   UNL     1       6.897  -0.118  18.596  0.00  0.00    +0.000 C 
ATOM     13  C   UNL     1       5.711   0.587  18.465  0.00  0.00    +0.000 C 
ATOM     14  C   UNL     1       5.333   1.507  19.432  0.00  0.00    +0.000 C 
ATOM     15  C   UNL     1       6.151   1.735  20.525  0.00  0.00    +0.000 C 
ENDBRANCH   7  10
ENDBRANCH   4   7
BRANCH   1  17
ATOM     16  O   UNL     1       5.581  -3.158  21.283  0.00  0.00    +0.000 OA
ATOM     17  C   UNL     1       6.334  -3.427  22.198  0.00  0.00    +0.000 C 
BRANCH  17  18
ATOM     18  C   UNL     1       6.395  -4.840  22.760  0.00  0.00    +0.000 C 
ATOM     19 CL   UNL     1       7.077  -5.936  21.522  0.00  0.00    +0.000 Cl
ENDBRANCH  17  18
ENDBRANCH   1  17
TORSDOF 4
ENDMDL
MODEL 2
REMARK VINA RESULT:      -6.2      3.310      5.904
REMARK  Name = 
REMARK  4 active torsions:
REMARK  status: ('A' for Active; 'I' for Inactive)
REMARK    1  A    between atoms: C_2  and  C_3
REMARK    2  A    between atoms: C_2  and  N_5
REMARK    3  A    between atoms: N_8  and  S_9
REMARK    4  A    between atoms: S_9  and  C_12
REMARK                            x       y       z     vdW  Elec       q    Type
REMARK                         _______ _______ _______ _____ _____    ______ ____
ROOT
ATOM      1  N   UNL     1       7.944  -1.227  22.812  0.00  0.00    +0.000 NA
ATOM      2  C   UNL     1       9.352  -1.099  23.130  0.00  0.00    +0.000 C 
ATOM      3  C   UNL     1       9.850  -2.392  23.767  0.00  0.00    +0.000 C 
ATOM      4  N   UNL     1       9.059  -2.711  24.942  0.00  0.00    +0.000 NA
ATOM      5  C   UNL     1       7.895  -1.895  25.164  0.00  0.00    +0.000 C 
ATOM      6  C   UNL     1       7.076  -1.680  23.888  0.00  0.00    +0.000 C 
ENDROOT
BRANCH   4   7
ATOM      7  S   UNL     1       8.957  -4.330  25.337  0.00  0.00    +0.000 S 
ATOM      8  O   UNL     1       8.643  -4.386  26.734  0.00  0.00    +0.000 OA
ATOM      9  O   UNL     1      10.158  -4.939  24.856  0.00  0.00    +0.000 OA
BRANCH   7  10
ATOM     10  C   UNL     1       7.566  -4.985  24.412  0.00  0.00    +0.000 C 
ATOM     11  C   UNL     1       6.364  -5.216  25.053  0.00  0.00    +0.000 C 
ATOM     12  C   UNL     1       5.306  -5.751  24.335  0.00  0.00    +0.000 C 
ATOM     13  C   UNL     1       5.459  -6.037  22.988  0.00  0.00    +0.000 C 
ATOM     14  C   UNL     1       6.665  -5.784  22.351  0.00  0.00    +0.000 C 
ATOM     15  C   UNL     1       7.727  -5.259  23.067  0.00  0.00    +0.000 C 
ENDBRANCH   7  10
ENDBRANCH   4   7
BRANCH   1  17
ATOM     16  O   UNL     1       6.535  -1.558  21.086  0.00  0.00    +0.000 OA
ATOM     17  C   UNL     1       7.551  -1.061  21.531  0.00  0.00    +0.000 C 
BRANCH  17  18
ATOM     18  C   UNL     1       8.455  -0.222  20.639  0.00  0.00    +0.000 C 
ATOM     19 CL   UNL     1       7.625   0.092  19.087  0.00  0.00    +0.000 Cl
ENDBRANCH  17  18
ENDBRANCH   1  17
TORSDOF 4
ENDMDL
MODEL 3
REMARK VINA RESULT:      -6.1      1.656      2.090
REMARK  Name = 
REMARK  4 active torsions:
REMARK  status: ('A' for Active; 'I' for Inactive)
REMARK    1  A    between atoms: C_2  and  C_3
REMARK    2  A    between atoms: C_2  and  N_5
REMARK    3  A    between atoms: N_8  and  S_9
REMARK    4  A    between atoms: S_9  and  C_12
REMARK                            x       y       z     vdW  Elec       q    Type
REMARK                         _______ _______ _______ _____ _____    ______ ____
ROOT
ATOM      1  N   UNL     1       8.165  -3.233  24.135  0.00  0.00    +0.000 NA
ATOM      2  C   UNL     1       6.918  -2.516  23.958  0.00  0.00    +0.000 C 
ATOM      3  C   UNL     1       7.074  -1.489  22.842  0.00  0.00    +0.000 C 
ATOM      4  N   UNL     1       8.175  -0.590  23.139  0.00  0.00    +0.000 NA
ATOM      5  C   UNL     1       8.990  -0.935  24.273  0.00  0.00    +0.000 C 
ATOM      6  C   UNL     1       9.360  -2.421  24.300  0.00  0.00    +0.000 C 
ENDROOT
BRANCH   4   7
ATOM      7  S   UNL     1       8.936   0.094  21.818  0.00  0.00    +0.000 S 
ATOM      8  O   UNL     1       9.714  -0.947  21.215  0.00  0.00    +0.000 OA
ATOM      9  O   UNL     1       9.582   1.278  22.293  0.00  0.00    +0.000 OA
BRANCH   7  10
ATOM     10  C   UNL     1       7.632   0.566  20.679  0.00  0.00    +0.000 C 
ATOM     11  C   UNL     1       6.688   1.498  21.064  0.00  0.00    +0.000 C 
ATOM     12  C   UNL     1       5.668   1.829  20.187  0.00  0.00    +0.000 C 
ATOM     13  C   UNL     1       5.612   1.238  18.935  0.00  0.00    +0.000 C 
ATOM     14  C   UNL     1       6.577   0.318  18.552  0.00  0.00    +0.000 C 
ATOM     15  C   UNL     1       7.591  -0.025  19.429  0.00  0.00    +0.000 C 
ENDBRANCH   7  10
ENDBRANCH   4   7
BRANCH   1  17
ATOM     16  O   UNL     1       9.118  -5.267  24.303  0.00  0.00    +0.000 OA
ATOM     17  C   UNL     1       8.166  -4.577  23.996  0.00  0.00    +0.000 C 
BRANCH  17  18
ATOM     18  C   UNL     1       6.908  -5.207  23.415  0.00  0.00    +0.000 C 
ATOM     19 CL   UNL     1       7.294  -5.938  21.830  0.00  0.00    +0.000 Cl
ENDBRANCH  17  18
ENDBRANCH   1  17
TORSDOF 4
ENDMDL
MODEL 4
REMARK VINA RESULT:      -6.1      3.392      4.463
REMARK  Name = 
REMARK  4 active torsions:
REMARK  status: ('A' for Active; 'I' for Inactive)
REMARK    1  A    between atoms: C_2  and  C_3
REMARK    2  A    between atoms: C_2  and  N_5
REMARK    3  A    between atoms: N_8  and  S_9
REMARK    4  A    between atoms: S_9  and  C_12
REMARK                            x       y       z     vdW  Elec       q    Type
REMARK                         _______ _______ _______ _____ _____    ______ ____
ROOT
ATOM      1  N   UNL     1       6.587  -4.612  25.652  0.00  0.00    +0.000 NA
ATOM      2  C   UNL     1       5.975  -3.312  25.463  0.00  0.00    +0.000 C 
ATOM      3  C   UNL     1       6.718  -2.552  24.371  0.00  0.00    +0.000 C 
ATOM      4  N   UNL     1       8.127  -2.440  24.707  0.00  0.00    +0.000 NA
ATOM      5  C   UNL     1       8.569  -3.192  25.850  0.00  0.00    +0.000 C 
ATOM      6  C   UNL     1       8.027  -4.625  25.856  0.00  0.00    +0.000 C 
ENDROOT
BRANCH   4   7
ATOM      7  S   UNL     1       9.177  -2.304  23.415  0.00  0.00    +0.000 S 
ATOM      8  O   UNL     1       8.423  -2.639  22.243  0.00  0.00    +0.000 OA
ATOM      9  O   UNL     1      10.336  -3.069  23.755  0.00  0.00    +0.000 OA
BRANCH   7  10
ATOM     10  C   UNL     1       9.635  -0.571  23.323  0.00  0.00    +0.000 C 
ATOM     11  C   UNL     1      10.003   0.103  24.471  0.00  0.00    +0.000 C 
ATOM     12  C   UNL     1      10.324   1.449  24.391  0.00  0.00    +0.000 C 
ATOM     13  C   UNL     1      10.287   2.098  23.168  0.00  0.00    +0.000 C 
ATOM     14  C   UNL     1       9.934   1.406  22.018  0.00  0.00    +0.000 C 
ATOM     15  C   UNL     1       9.603   0.064  22.095  0.00  0.00    +0.000 C 
ENDBRANCH   7  10
ENDBRANCH   4   7
BRANCH   1  17
ATOM     16  O   UNL     1       5.678  -6.546  26.362  0.00  0.00    +0.000 OA
ATOM     17  C   UNL     1       5.828  -5.717  25.487  0.00  0.00    +0.000 C 
BRANCH  17  18
ATOM     18  C   UNL     1       5.164  -5.896  24.129  0.00  0.00    +0.000 C 
ATOM     19 CL   UNL     1       6.417  -5.882  22.854  0.00  0.00    +0.000 Cl
ENDBRANCH  17  18
ENDBRANCH   1  17
TORSDOF 4
ENDMDL
MODEL 5
REMARK VINA RESULT:      -5.9      3.524      4.608
REMARK  Name = 
REMARK  4 active torsions:
REMARK  status: ('A' for Active; 'I' for Inactive)
REMARK    1  A    between atoms: C_2  and  C_3
REMARK    2  A    between atoms: C_2  and  N_5
REMARK    3  A    between atoms: N_8  and  S_9
REMARK    4  A    between atoms: S_9  and  C_12
REMARK                            x       y       z     vdW  Elec       q    Type
REMARK                         _______ _______ _______ _____ _____    ______ ____
ROOT
ATOM      1  N   UNL     1       6.617  -4.519  25.878  0.00  0.00    +0.000 NA
ATOM      2  C   UNL     1       5.917  -3.307  25.500  0.00  0.00    +0.000 C 
ATOM      3  C   UNL     1       6.654  -2.630  24.350  0.00  0.00    +0.000 C 
ATOM      4  N   UNL     1       8.032  -2.363  24.725  0.00  0.00    +0.000 NA
ATOM      5  C   UNL     1       8.472  -2.928  25.972  0.00  0.00    +0.000 C 
ATOM      6  C   UNL     1       8.042  -4.389  26.139  0.00  0.00    +0.000 C 
ENDROOT
BRANCH   4   7
ATOM      7  S   UNL     1       9.132  -2.303  23.469  0.00  0.00    +0.000 S 
ATOM      8  O   UNL     1       8.418  -2.688  22.288  0.00  0.00    +0.000 OA
ATOM      9  O   UNL     1      10.267  -3.064  23.891  0.00  0.00    +0.000 OA
BRANCH   7  10
ATOM     10  C   UNL     1       9.616  -0.583  23.309  0.00  0.00    +0.000 C 
ATOM     11  C   UNL     1       9.447   0.067  22.101  0.00  0.00    +0.000 C 
ATOM     12  C   UNL     1       9.855   1.387  21.981  0.00  0.00    +0.000 C 
ATOM     13  C   UNL     1      10.411   2.041  23.068  0.00  0.00    +0.000 C 
ATOM     14  C   UNL     1      10.558   1.384  24.281  0.00  0.00    +0.000 C 
ATOM     15  C   UNL     1      10.162   0.062  24.403  0.00  0.00    +0.000 C 
ENDBRANCH   7  10
ENDBRANCH   4   7
BRANCH   1  17
ATOM     16  O   UNL     1       5.935  -6.479  26.754  0.00  0.00    +0.000 OA
ATOM     17  C   UNL     1       5.953  -5.694  25.826  0.00  0.00    +0.000 C 
BRANCH  17  18
ATOM     18  C   UNL     1       5.223  -6.012  24.529  0.00  0.00    +0.000 C 
ATOM     19 CL   UNL     1       3.938  -7.212  24.856  0.00  0.00    +0.000 Cl
ENDBRANCH  17  18
ENDBRANCH   1  17
TORSDOF 4
ENDMDL
MODEL 6
REMARK VINA RESULT:      -5.9      2.035      2.299
REMARK  Name = 
REMARK  4 active torsions:
REMARK  status: ('A' for Active; 'I' for Inactive)
REMARK    1  A    between atoms: C_2  and  C_3
REMARK    2  A    between atoms: C_2  and  N_5
REMARK    3  A    between atoms: N_8  and  S_9
REMARK    4  A    between atoms: S_9  and  C_12
REMARK                            x       y       z     vdW  Elec       q    Type
REMARK                         _______ _______ _______ _____ _____    ______ ____
ROOT
ATOM      1  N   UNL     1       8.550  -1.815  24.553  0.00  0.00    +0.000 NA
ATOM      2  C   UNL     1       7.668  -1.015  25.380  0.00  0.00    +0.000 C 
ATOM      3  C   UNL     1       7.550   0.387  24.792  0.00  0.00    +0.000 C 
ATOM      4  N   UNL     1       8.864   0.991  24.666  0.00  0.00    +0.000 NA
ATOM      5  C   UNL     1       9.987   0.129  24.924  0.00  0.00    +0.000 C 
ATOM      6  C   UNL     1       9.848  -1.237  24.244  0.00  0.00    +0.000 C 
ENDROOT
BRANCH   4   7
ATOM      7  S   UNL     1       9.028   2.137  23.463  0.00  0.00    +0.000 S 
ATOM      8  O   UNL     1      10.434   2.257  23.207  0.00  0.00    +0.000 OA
ATOM      9  O   UNL     1       8.286   3.281  23.891  0.00  0.00    +0.000 OA
BRANCH   7  10
ATOM     10  C   UNL     1       8.240   1.449  22.004  0.00  0.00    +0.000 C 
ATOM     11  C   UNL     1       8.883   0.468  21.275  0.00  0.00    +0.000 C 
ATOM     12  C   UNL     1       8.278  -0.032  20.134  0.00  0.00    +0.000 C 
ATOM     13  C   UNL     1       7.037   0.443  19.744  0.00  0.00    +0.000 C 
ATOM     14  C   UNL     1       6.392   1.416  20.494  0.00  0.00    +0.000 C 
ATOM     15  C   UNL     1       6.998   1.926  21.629  0.00  0.00    +0.000 C 
ENDBRANCH   7  10
ENDBRANCH   4   7
BRANCH   1  17
ATOM     16  O   UNL     1       7.834  -3.947  24.672  0.00  0.00    +0.000 OA
ATOM     17  C   UNL     1       8.073  -2.956  24.011  0.00  0.00    +0.000 C 
BRANCH  17  18
ATOM     18  C   UNL     1       7.853  -2.960  22.505  0.00  0.00    +0.000 C 
ATOM     19 CL   UNL     1       6.276  -2.200  22.138  0.00  0.00    +0.000 Cl
ENDBRANCH  17  18
ENDBRANCH   1  17
TORSDOF 4
ENDMDL
MODEL 7
REMARK VINA RESULT:      -5.8      3.118      4.830
REMARK  Name = 
REMARK  4 active torsions:
REMARK  status: ('A' for Active; 'I' for Inactive)
REMARK    1  A    between atoms: C_2  and  C_3
REMARK    2  A    between atoms: C_2  and  N_5
REMARK    3  A    between atoms: N_8  and  S_9
REMARK    4  A    between atoms: S_9  and  C_12
REMARK                            x       y       z     vdW  Elec       q    Type
REMARK                         _______ _______ _______ _____ _____    ______ ____
ROOT
ATOM      1  N   UNL     1       8.440   2.034  24.123  0.00  0.00    +0.000 NA
ATOM      2  C   UNL     1       9.864   1.914  24.367  0.00  0.00    +0.000 C 
ATOM      3  C   UNL     1      10.403   0.684  23.645  0.00  0.00    +0.000 C 
ATOM      4  N   UNL     1       9.682  -0.503  24.068  0.00  0.00    +0.000 NA
ATOM      5  C   UNL     1       8.529  -0.284  24.900  0.00  0.00    +0.000 C 
ATOM      6  C   UNL     1       7.637   0.849  24.382  0.00  0.00    +0.000 C 
ENDROOT
BRANCH   4   7
ATOM      7  S   UNL     1       9.610  -1.749  22.958  0.00  0.00    +0.000 S 
ATOM      8  O   UNL     1       9.101  -2.889  23.662  0.00  0.00    +0.000 OA
ATOM      9  O   UNL     1      10.897  -1.814  22.339  0.00  0.00    +0.000 OA
BRANCH   7  10
ATOM     10  C   UNL     1       8.402  -1.253  21.727  0.00  0.00    +0.000 C 
ATOM     11  C   UNL     1       8.734  -0.297  20.787  0.00  0.00    +0.000 C 
ATOM     12  C   UNL     1       7.782   0.100  19.861  0.00  0.00    +0.000 C 
ATOM     13  C   UNL     1       6.519  -0.470  19.879  0.00  0.00    +0.000 C 
ATOM     14  C   UNL     1       6.203  -1.443  20.816  0.00  0.00    +0.000 C 
ATOM     15  C   UNL     1       7.148  -1.835  21.749  0.00  0.00    +0.000 C 
ENDBRANCH   7  10
ENDBRANCH   4   7
BRANCH   1  17
ATOM     16  O   UNL     1       7.763   4.181  24.177  0.00  0.00    +0.000 OA
ATOM     17  C   UNL     1       7.974   3.163  23.548  0.00  0.00    +0.000 C 
BRANCH  17  18
ATOM     18  C   UNL     1       7.704   3.109  22.051  0.00  0.00    +0.000 C 
ATOM     19 CL   UNL     1       5.999   2.644  21.777  0.00  0.00    +0.000 Cl
ENDBRANCH  17  18
ENDBRANCH   1  17
TORSDOF 4
ENDMDL
MODEL 8
REMARK VINA RESULT:      -5.8      2.584      3.594
REMARK  Name = 
REMARK  4 active torsions:
REMARK  status: ('A' for Active; 'I' for Inactive)
REMARK    1  A    between atoms: C_2  and  C_3
REMARK    2  A    between atoms: C_2  and  N_5
REMARK    3  A    between atoms: N_8  and  S_9
REMARK    4  A    between atoms: S_9  and  C_12
REMARK                            x       y       z     vdW  Elec       q    Type
REMARK                         _______ _______ _______ _____ _____    ______ ____
ROOT
ATOM      1  N   UNL     1       7.422  -2.912  23.560  0.00  0.00    +0.000 NA
ATOM      2  C   UNL     1       6.301  -2.627  22.687  0.00  0.00    +0.000 C 
ATOM      3  C   UNL     1       6.736  -1.649  21.601  0.00  0.00    +0.000 C 
ATOM      4  N   UNL     1       7.274  -0.441  22.200  0.00  0.00    +0.000 NA
ATOM      5  C   UNL     1       7.464  -0.468  23.626  0.00  0.00    +0.000 C 
ATOM      6  C   UNL     1       8.127  -1.763  24.106  0.00  0.00    +0.000 C 
ENDROOT
BRANCH   4   7
ATOM      7  S   UNL     1       8.396   0.390  21.285  0.00  0.00    +0.000 S 
ATOM      8  O   UNL     1       7.717   0.811  20.095  0.00  0.00    +0.000 OA
ATOM      9  O   UNL     1       9.543  -0.458  21.184  0.00  0.00    +0.000 OA
BRANCH   7  10
ATOM     10  C   UNL     1       8.838   1.848  22.235  0.00  0.00    +0.000 C 
ATOM     11  C   UNL     1       7.909   2.854  22.419  0.00  0.00    +0.000 C 
ATOM     12  C   UNL     1       8.272   3.988  23.128  0.00  0.00    +0.000 C 
ATOM     13  C   UNL     1       9.549   4.096  23.653  0.00  0.00    +0.000 C 
ATOM     14  C   UNL     1      10.468   3.071  23.478  0.00  0.00    +0.000 C 
ATOM     15  C   UNL     1      10.113   1.941  22.761  0.00  0.00    +0.000 C 
ENDBRANCH   7  10
ENDBRANCH   4   7
BRANCH   1  17
ATOM     16  O   UNL     1       8.943  -4.492  24.078  0.00  0.00    +0.000 OA
ATOM     17  C   UNL     1       7.828  -4.193  23.697  0.00  0.00    +0.000 C 
BRANCH  17  18
ATOM     18  C   UNL     1       6.819  -5.274  23.337  0.00  0.00    +0.000 C 
ATOM     19 CL   UNL     1       7.240  -5.964  21.742  0.00  0.00    +0.000 Cl
ENDBRANCH  17  18
ENDBRANCH   1  17
TORSDOF 4
ENDMDL
MODEL 9
REMARK VINA RESULT:      -5.8      3.440      5.872
REMARK  Name = 
REMARK  4 active torsions:
REMARK  status: ('A' for Active; 'I' for Inactive)
REMARK    1  A    between atoms: C_2  and  C_3
REMARK    2  A    between atoms: C_2  and  N_5
REMARK    3  A    between atoms: N_8  and  S_9
REMARK    4  A    between atoms: S_9  and  C_12
REMARK                            x       y       z     vdW  Elec       q    Type
REMARK                         _______ _______ _______ _____ _____    ______ ____
ROOT
ATOM      1  N   UNL     1       9.452   0.591  22.200  0.00  0.00    +0.000 NA
ATOM      2  C   UNL     1       8.733  -0.191  21.214  0.00  0.00    +0.000 C 
ATOM      3  C   UNL     1       8.071  -1.384  21.893  0.00  0.00    +0.000 C 
ATOM      4  N   UNL     1       9.065  -2.180  22.591  0.00  0.00    +0.000 NA
ATOM      5  C   UNL     1      10.388  -1.619  22.668  0.00  0.00    +0.000 C 
ATOM      6  C   UNL     1      10.376  -0.137  23.055  0.00  0.00    +0.000 C 
ENDROOT
BRANCH   4   7
ATOM      7  S   UNL     1       8.514  -3.047  23.907  0.00  0.00    +0.000 S 
ATOM      8  O   UNL     1       7.919  -2.096  24.798  0.00  0.00    +0.000 OA
ATOM      9  O   UNL     1       9.613  -3.846  24.353  0.00  0.00    +0.000 OA
BRANCH   7  10
ATOM     10  C   UNL     1       7.225  -4.132  23.288  0.00  0.00    +0.000 C 
ATOM     11  C   UNL     1       7.566  -5.248  22.547  0.00  0.00    +0.000 C 
ATOM     12  C   UNL     1       6.560  -6.060  22.048  0.00  0.00    +0.000 C 
ATOM     13  C   UNL     1       5.233  -5.756  22.304  0.00  0.00    +0.000 C 
ATOM     14  C   UNL     1       4.904  -4.643  23.065  0.00  0.00    +0.000 C 
ATOM     15  C   UNL     1       5.905  -3.823  23.557  0.00  0.00    +0.000 C 
ENDBRANCH   7  10
ENDBRANCH   4   7
BRANCH   1  17
ATOM     16  O   UNL     1       9.843   2.683  22.939  0.00  0.00    +0.000 OA
ATOM     17  C   UNL     1       9.124   1.892  22.362  0.00  0.00    +0.000 C 
BRANCH  17  18
ATOM     18  C   UNL     1       7.784   2.336  21.793  0.00  0.00    +0.000 C 
ATOM     19 CL   UNL     1       7.470   4.028  22.278  0.00  0.00    +0.000 Cl
ENDBRANCH  17  18
ENDBRANCH   1  17
TORSDOF 4
ENDMDL
