MODEL 1
REMARK VINA RESULT:      -6.3      0.000      0.000
REMARK  Name = 
REMARK  3 active torsions:
REMARK  status: ('A' for Active; 'I' for Inactive)
REMARK    1  A    between atoms: C_2  and  C_3
REMARK    2  A    between atoms: N_8  and  C_9
REMARK    3  A    between atoms: C_9  and  C_10
REMARK                            x       y       z     vdW  Elec       q    Type
REMARK                         _______ _______ _______ _____ _____    ______ ____
ROOT
ATOM      1  O   UNL     1      10.422   1.925  21.840  0.00  0.00    +0.000 OA
ATOM      2  C   UNL     1       9.734   1.659  22.829  0.00  0.00    +0.000 C 
ATOM      3  N   UNL     1       8.434   1.196  22.687  0.00  0.00    +0.000 N 
ATOM      4  C   UNL     1       7.582   0.652  23.749  0.00  0.00    +0.000 C 
ATOM      5  C   UNL     1       6.665  -0.483  23.232  0.00  0.00    +0.000 C 
ATOM      6  N   UNL     1       7.131  -1.200  22.023  0.00  0.00    +0.000 NA
ATOM      7  C   UNL     1       7.297  -0.212  20.931  0.00  0.00    +0.000 C 
ATOM      8  C   UNL     1       7.813   1.187  21.359  0.00  0.00    +0.000 C 
ENDROOT
BRANCH   2   9
ATOM      9  C   UNL     1      10.289   1.903  24.227  0.00  0.00    +0.000 C 
ATOM     10 CL   UNL     1      10.848   0.375  24.944  0.00  0.00    +0.000 Cl
ENDBRANCH   2   9
BRANCH   6  11
ATOM     11  C   UNL     1       8.380  -1.994  22.165  0.00  0.00    +0.000 C 
BRANCH  11  12
ATOM     12  C   UNL     1       8.231  -3.250  22.997  0.00  0.00    +0.000 A 
ATOM     13  C   UNL     1       7.259  -4.223  22.687  0.00  0.00    +0.000 A 
ATOM     14  C   UNL     1       6.896  -5.187  23.635  0.00  0.00    +0.000 A 
ATOM     15  C   UNL     1       7.488  -5.117  24.877  0.00  0.00    +0.000 A 
ATOM     16  C   UNL     1       8.499  -4.217  25.161  0.00  0.00    +0.000 A 
ATOM     17  C   UNL     1       8.939  -3.329  24.205  0.00  0.00    +0.000 A 
ATOM     18  C   UNL     1       8.892  -4.336  26.580  0.00  0.00    +0.000 C 
ATOM     19  C   UNL     1       7.655  -5.087  27.073  0.00  0.00    +0.000 C 
ATOM     20  O   UNL     1       7.111  -5.856  25.971  0.00  0.00    +0.000 OA
ENDBRANCH  11  12
ENDBRANCH   6  11
TORSDOF 3
ENDMDL
MODEL 2
REMARK VINA RESULT:      -6.3      2.286      3.638
REMARK  Name = 
REMARK  3 active torsions:
REMARK  status: ('A' for Active; 'I' for Inactive)
REMARK    1  A    between atoms: C_2  and  C_3
REMARK    2  A    between atoms: N_8  and  C_9
REMARK    3  A    between atoms: C_9  and  C_10
REMARK                            x       y       z     vdW  Elec       q    Type
REMARK                         _______ _______ _______ _____ _____    ______ ____
ROOT
ATOM      1  O   UNL     1       7.825   2.111  21.572  0.00  0.00    +0.000 OA
ATOM      2  C   UNL     1       8.261   1.025  21.182  0.00  0.00    +0.000 C 
ATOM      3  N   UNL     1       9.346   0.427  21.807  0.00  0.00    +0.000 N 
ATOM      4  C   UNL     1       9.835  -0.937  21.587  0.00  0.00    +0.000 C 
ATOM      5  C   UNL     1      10.387  -1.571  22.887  0.00  0.00    +0.000 C 
ATOM      6  N   UNL     1       9.867  -1.015  24.157  0.00  0.00    +0.000 NA
ATOM      7  C   UNL     1      10.170   0.436  24.189  0.00  0.00    +0.000 C 
ATOM      8  C   UNL     1      10.090   1.172  22.827  0.00  0.00    +0.000 C 
ENDROOT
BRANCH   2   9
ATOM      9  C   UNL     1       7.645   0.357  19.957  0.00  0.00    +0.000 C 
ATOM     10 CL   UNL     1       6.430  -0.841  20.453  0.00  0.00    +0.000 Cl
ENDBRANCH   2   9
BRANCH   6  11
ATOM     11  C   UNL     1       8.421  -1.224  24.427  0.00  0.00    +0.000 C 
BRANCH  11  12
ATOM     12  C   UNL     1       7.938  -2.639  24.190  0.00  0.00    +0.000 A 
ATOM     13  C   UNL     1       8.606  -3.745  24.757  0.00  0.00    +0.000 A 
ATOM     14  C   UNL     1       8.377  -5.037  24.266  0.00  0.00    +0.000 A 
ATOM     15  C   UNL     1       7.522  -5.172  23.195  0.00  0.00    +0.000 A 
ATOM     16  C   UNL     1       6.804  -4.104  22.687  0.00  0.00    +0.000 A 
ATOM     17  C   UNL     1       6.940  -2.844  23.227  0.00  0.00    +0.000 A 
ATOM     18  C   UNL     1       6.023  -4.539  21.511  0.00  0.00    +0.000 C 
ATOM     19  C   UNL     1       6.781  -5.837  21.230  0.00  0.00    +0.000 C 
ATOM     20  O   UNL     1       7.338  -6.326  22.476  0.00  0.00    +0.000 OA
ENDBRANCH  11  12
ENDBRANCH   6  11
TORSDOF 3
ENDMDL
MODEL 3
REMARK VINA RESULT:      -6.2      3.028      6.644
REMARK  Name = 
REMARK  3 active torsions:
REMARK  status: ('A' for Active; 'I' for Inactive)
REMARK    1  A    between atoms: C_2  and  C_3
REMARK    2  A    between atoms: N_8  and  C_9
REMARK    3  A    between atoms: C_9  and  C_10
REMARK                            x       y       z     vdW  Elec       q    Type
REMARK                         _______ _______ _______ _____ _____    ______ ____
ROOT
ATOM      1  O   UNL     1       6.178  -5.510  23.433  0.00  0.00    +0.000 OA
ATOM      2  C   UNL     1       6.174  -5.064  24.584  0.00  0.00    +0.000 C 
ATOM      3  N   UNL     1       7.308  -4.473  25.123  0.00  0.00    +0.000 N 
ATOM      4  C   UNL     1       7.386  -3.727  26.382  0.00  0.00    +0.000 C 
ATOM      5  C   UNL     1       8.394  -2.555  26.299  0.00  0.00    +0.000 C 
ATOM      6  N   UNL     1       8.673  -2.027  24.943  0.00  0.00    +0.000 NA
ATOM      7  C   UNL     1       9.191  -3.138  24.109  0.00  0.00    +0.000 C 
ATOM      8  C   UNL     1       8.572  -4.534  24.383  0.00  0.00    +0.000 C 
ENDROOT
BRANCH   2   9
ATOM      9  C   UNL     1       4.931  -5.221  25.453  0.00  0.00    +0.000 C 
ATOM     10 CL   UNL     1       5.065  -6.676  26.465  0.00  0.00    +0.000 Cl
ENDBRANCH   2   9
BRANCH   6  11
ATOM     11  C   UNL     1       7.538  -1.371  24.243  0.00  0.00    +0.000 C 
BRANCH  11  12
ATOM     12  C   UNL     1       7.785  -1.089  22.777  0.00  0.00    +0.000 A 
ATOM     13  C   UNL     1       8.787  -0.187  22.364  0.00  0.00    +0.000 A 
ATOM     14  C   UNL     1       8.783   0.327  21.061  0.00  0.00    +0.000 A 
ATOM     15  C   UNL     1       7.749  -0.046  20.230  0.00  0.00    +0.000 A 
ATOM     16  C   UNL     1       6.811  -0.991  20.602  0.00  0.00    +0.000 A 
ATOM     17  C   UNL     1       6.862  -1.583  21.845  0.00  0.00    +0.000 A 
ATOM     18  C   UNL     1       5.799  -1.140  19.536  0.00  0.00    +0.000 C 
ATOM     19  C   UNL     1       6.097   0.160  18.788  0.00  0.00    +0.000 C 
ATOM     20  O   UNL     1       7.488   0.507  19.001  0.00  0.00    +0.000 OA
ENDBRANCH  11  12
ENDBRANCH   6  11
TORSDOF 3
ENDMDL
MODEL 4
REMARK VINA RESULT:      -6.1      2.787      3.547
REMARK  Name = 
REMARK  3 active torsions:
REMARK  status: ('A' for Active; 'I' for Inactive)
REMARK    1  A    between atoms: C_2  and  C_3
REMARK    2  A    between atoms: N_8  and  C_9
REMARK    3  A    between atoms: C_9  and  C_10
REMARK                            x       y       z     vdW  Elec       q    Type
REMARK                         _______ _______ _______ _____ _____    ______ ____
ROOT
ATOM      1  O   UNL     1       6.486   1.575  20.680  0.00  0.00    +0.000 OA
ATOM      2  C   UNL     1       7.300   0.691  20.400  0.00  0.00    +0.000 C 
ATOM      3  N   UNL     1       8.122   0.147  21.376  0.00  0.00    +0.000 N 
ATOM      4  C   UNL     1       8.978  -1.035  21.233  0.00  0.00    +0.000 C 
ATOM      5  C   UNL     1       9.058  -1.854  22.544  0.00  0.00    +0.000 C 
ATOM      6  N   UNL     1       7.924  -1.696  23.484  0.00  0.00    +0.000 NA
ATOM      7  C   UNL     1       7.815  -0.262  23.845  0.00  0.00    +0.000 C 
ATOM      8  C   UNL     1       8.147   0.746  22.714  0.00  0.00    +0.000 C 
ENDROOT
BRANCH   2   9
ATOM      9  C   UNL     1       7.455   0.234  18.954  0.00  0.00    +0.000 C 
ATOM     10 CL   UNL     1       5.866  -0.138  18.251  0.00  0.00    +0.000 Cl
ENDBRANCH   2   9
BRANCH   6  11
ATOM     11  C   UNL     1       6.603  -2.189  23.014  0.00  0.00    +0.000 C 
BRANCH  11  12
ATOM     12  C   UNL     1       6.383  -3.673  23.213  0.00  0.00    +0.000 A 
ATOM     13  C   UNL     1       5.905  -4.489  22.167  0.00  0.00    +0.000 A 
ATOM     14  C   UNL     1       5.381  -5.758  22.442  0.00  0.00    +0.000 A 
ATOM     15  C   UNL     1       5.313  -6.149  23.762  0.00  0.00    +0.000 A 
ATOM     16  C   UNL     1       5.852  -5.389  24.783  0.00  0.00    +0.000 A 
ATOM     17  C   UNL     1       6.464  -4.184  24.516  0.00  0.00    +0.000 A 
ATOM     18  C   UNL     1       5.576  -6.030  26.086  0.00  0.00    +0.000 C 
ATOM     19  C   UNL     1       4.455  -6.961  25.621  0.00  0.00    +0.000 C 
ATOM     20  O   UNL     1       4.659  -7.267  24.219  0.00  0.00    +0.000 OA
ENDBRANCH  11  12
ENDBRANCH   6  11
TORSDOF 3
ENDMDL
MODEL 5
REMARK VINA RESULT:      -6.1      2.785      3.631
REMARK  Name = 
REMARK  3 active torsions:
REMARK  status: ('A' for Active; 'I' for Inactive)
REMARK    1  A    between atoms: C_2  and  C_3
REMARK    2  A    between atoms: N_8  and  C_9
REMARK    3  A    between atoms: C_9  and  C_10
REMARK                            x       y       z     vdW  Elec       q    Type
REMARK                         _______ _______ _______ _____ _____    ______ ____
ROOT
ATOM      1  O   UNL     1       8.166   3.347  24.847  0.00  0.00    +0.000 OA
ATOM      2  C   UNL     1       8.223   3.005  23.663  0.00  0.00    +0.000 C 
ATOM      3  N   UNL     1       9.255   2.200  23.203  0.00  0.00    +0.000 N 
ATOM      4  C   UNL     1       9.339   1.556  21.889  0.00  0.00    +0.000 C 
ATOM      5  C   UNL     1      10.028   0.172  21.965  0.00  0.00    +0.000 C 
ATOM      6  N   UNL     1       9.983  -0.509  23.279  0.00  0.00    +0.000 NA
ATOM      7  C   UNL     1      10.618   0.375  24.285  0.00  0.00    +0.000 C 
ATOM      8  C   UNL     1      10.382   1.896  24.091  0.00  0.00    +0.000 C 
ENDROOT
BRANCH   2   9
ATOM      9  C   UNL     1       7.185   3.524  22.674  0.00  0.00    +0.000 C 
ATOM     10 CL   UNL     1       7.463   5.246  22.335  0.00  0.00    +0.000 Cl
ENDBRANCH   2   9
BRANCH   6  11
ATOM     11  C   UNL     1       8.640  -0.923  23.763  0.00  0.00    +0.000 C 
BRANCH  11  12
ATOM     12  C   UNL     1       7.930  -1.915  22.867  0.00  0.00    +0.000 A 
ATOM     13  C   UNL     1       6.816  -1.533  22.090  0.00  0.00    +0.000 A 
ATOM     14  C   UNL     1       5.967  -2.505  21.546  0.00  0.00    +0.000 A 
ATOM     15  C   UNL     1       6.237  -3.824  21.836  0.00  0.00    +0.000 A 
ATOM     16  C   UNL     1       7.371  -4.209  22.528  0.00  0.00    +0.000 A 
ATOM     17  C   UNL     1       8.271  -3.270  22.981  0.00  0.00    +0.000 A 
ATOM     18  C   UNL     1       7.358  -5.672  22.737  0.00  0.00    +0.000 C 
ATOM     19  C   UNL     1       5.873  -5.906  22.458  0.00  0.00    +0.000 C 
ATOM     20  O   UNL     1       5.406  -4.879  21.547  0.00  0.00    +0.000 OA
ENDBRANCH  11  12
ENDBRANCH   6  11
TORSDOF 3
ENDMDL
MODEL 6
REMARK VINA RESULT:      -6.0      2.240      3.050
REMARK  Name = 
REMARK  3 active torsions:
REMARK  status: ('A' for Active; 'I' for Inactive)
REMARK    1  A    between atoms: C_2  and  C_3
REMARK    2  A    between atoms: N_8  and  C_9
REMARK    3  A    between atoms: C_9  and  C_10
REMARK                            x       y       z     vdW  Elec       q    Type
REMARK                         _______ _______ _______ _____ _____    ______ ____
ROOT
ATOM      1  O   UNL     1       7.654   2.333  21.709  0.00  0.00    +0.000 OA
ATOM      2  C   UNL     1       7.841   1.176  21.325  0.00  0.00    +0.000 C 
ATOM      3  N   UNL     1       9.008   0.498  21.648  0.00  0.00    +0.000 N 
ATOM      4  C   UNL     1       9.274  -0.928  21.439  0.00  0.00    +0.000 C 
ATOM      5  C   UNL     1      10.148  -1.526  22.567  0.00  0.00    +0.000 C 
ATOM      6  N   UNL     1      10.110  -0.819  23.868  0.00  0.00    +0.000 NA
ATOM      7  C   UNL     1      10.540   0.582  23.649  0.00  0.00    +0.000 C 
ATOM      8  C   UNL     1      10.102   1.221  22.305  0.00  0.00    +0.000 C 
ENDROOT
BRANCH   2   9
ATOM      9  C   UNL     1       6.811   0.499  20.427  0.00  0.00    +0.000 C 
ATOM     10 CL   UNL     1       7.431   0.369  18.766  0.00  0.00    +0.000 Cl
ENDBRANCH   2   9
BRANCH   6  11
ATOM     11  C   UNL     1       8.810  -0.830  24.589  0.00  0.00    +0.000 C 
BRANCH  11  12
ATOM     12  C   UNL     1       8.112  -2.173  24.599  0.00  0.00    +0.000 A 
ATOM     13  C   UNL     1       6.905  -2.376  23.897  0.00  0.00    +0.000 A 
ATOM     14  C   UNL     1       6.098  -3.484  24.185  0.00  0.00    +0.000 A 
ATOM     15  C   UNL     1       6.505  -4.327  25.196  0.00  0.00    +0.000 A 
ATOM     16  C   UNL     1       7.725  -4.179  25.831  0.00  0.00    +0.000 A 
ATOM     17  C   UNL     1       8.577  -3.153  25.488  0.00  0.00    +0.000 A 
ATOM     18  C   UNL     1       7.858  -5.186  26.904  0.00  0.00    +0.000 C 
ATOM     19  C   UNL     1       6.380  -5.561  27.016  0.00  0.00    +0.000 C 
ATOM     20  O   UNL     1       5.747  -5.339  25.731  0.00  0.00    +0.000 OA
ENDBRANCH  11  12
ENDBRANCH   6  11
TORSDOF 3
ENDMDL
MODEL 7
REMARK VINA RESULT:      -5.8      2.541      6.294
REMARK  Name = 
REMARK  3 active torsions:
REMARK  status: ('A' for Active; 'I' for Inactive)
REMARK    1  A    between atoms: C_2  and  C_3
REMARK    2  A    between atoms: N_8  and  C_9
REMARK    3  A    between atoms: C_9  and  C_10
REMARK                            x       y       z     vdW  Elec       q    Type
REMARK                         _______ _______ _______ _____ _____    ______ ____
ROOT
ATOM      1  O   UNL     1       4.648  -3.870  25.864  0.00  0.00    +0.000 OA
ATOM      2  C   UNL     1       5.349  -4.750  25.357  0.00  0.00    +0.000 C 
ATOM      3  N   UNL     1       5.533  -4.811  23.984  0.00  0.00    +0.000 N 
ATOM      4  C   UNL     1       6.489  -5.663  23.270  0.00  0.00    +0.000 C 
ATOM      5  C   UNL     1       7.061  -4.964  22.012  0.00  0.00    +0.000 C 
ATOM      6  N   UNL     1       7.032  -3.483  22.016  0.00  0.00    +0.000 NA
ATOM      7  C   UNL     1       5.626  -3.045  22.186  0.00  0.00    +0.000 C 
ATOM      8  C   UNL     1       4.750  -3.930  23.112  0.00  0.00    +0.000 C 
ENDROOT
BRANCH   2   9
ATOM      9  C   UNL     1       5.970  -5.826  26.241  0.00  0.00    +0.000 C 
ATOM     10 CL   UNL     1       7.597  -5.335  26.761  0.00  0.00    +0.000 Cl
ENDBRANCH   2   9
BRANCH   6  11
ATOM     11  C   UNL     1       7.885  -2.809  23.030  0.00  0.00    +0.000 C 
BRANCH  11  12
ATOM     12  C   UNL     1       8.223  -1.370  22.705  0.00  0.00    +0.000 A 
ATOM     13  C   UNL     1       8.644  -0.990  21.414  0.00  0.00    +0.000 A 
ATOM     14  C   UNL     1       9.277   0.243  21.210  0.00  0.00    +0.000 A 
ATOM     15  C   UNL     1       9.507   1.033  22.315  0.00  0.00    +0.000 A 
ATOM     16  C   UNL     1       9.027   0.703  23.569  0.00  0.00    +0.000 A 
ATOM     17  C   UNL     1       8.312  -0.457  23.766  0.00  0.00    +0.000 A 
ATOM     18  C   UNL     1       9.479   1.703  24.559  0.00  0.00    +0.000 C 
ATOM     19  C   UNL     1      10.605   2.319  23.727  0.00  0.00    +0.000 C 
ATOM     20  O   UNL     1      10.277   2.170  22.323  0.00  0.00    +0.000 OA
ENDBRANCH  11  12
ENDBRANCH   6  11
TORSDOF 3
ENDMDL
MODEL 8
REMARK VINA RESULT:      -5.8      1.911      2.283
REMARK  Name = 
REMARK  3 active torsions:
REMARK  status: ('A' for Active; 'I' for Inactive)
REMARK    1  A    between atoms: C_2  and  C_3
REMARK    2  A    between atoms: N_8  and  C_9
REMARK    3  A    between atoms: C_9  and  C_10
REMARK                            x       y       z     vdW  Elec       q    Type
REMARK                         _______ _______ _______ _____ _____    ______ ____
ROOT
ATOM      1  O   UNL     1      10.827   2.319  23.558  0.00  0.00    +0.000 OA
ATOM      2  C   UNL     1       9.621   2.087  23.670  0.00  0.00    +0.000 C 
ATOM      3  N   UNL     1       9.024   1.059  22.955  0.00  0.00    +0.000 N 
ATOM      4  C   UNL     1       7.664   0.544  23.141  0.00  0.00    +0.000 C 
ATOM      5  C   UNL     1       7.585  -0.983  22.899  0.00  0.00    +0.000 C 
ATOM      6  N   UNL     1       8.846  -1.740  23.077  0.00  0.00    +0.000 NA
ATOM      7  C   UNL     1       9.859  -1.180  22.152  0.00  0.00    +0.000 C 
ATOM      8  C   UNL     1       9.796   0.354  21.928  0.00  0.00    +0.000 C 
ENDROOT
BRANCH   2   9
ATOM      9  C   UNL     1       8.756   2.980  24.554  0.00  0.00    +0.000 C 
ATOM     10 CL   UNL     1       9.283   4.672  24.424  0.00  0.00    +0.000 Cl
ENDBRANCH   2   9
BRANCH   6  11
ATOM     11  C   UNL     1       9.403  -1.780  24.455  0.00  0.00    +0.000 C 
BRANCH  11  12
ATOM     12  C   UNL     1       8.956  -2.970  25.276  0.00  0.00    +0.000 A 
ATOM     13  C   UNL     1       9.411  -4.273  24.985  0.00  0.00    +0.000 A 
ATOM     14  C   UNL     1       8.743  -5.388  25.506  0.00  0.00    +0.000 A 
ATOM     15  C   UNL     1       7.616  -5.161  26.266  0.00  0.00    +0.000 A 
ATOM     16  C   UNL     1       7.212  -3.887  26.621  0.00  0.00    +0.000 A 
ATOM     17  C   UNL     1       7.918  -2.782  26.201  0.00  0.00    +0.000 A 
ATOM     18  C   UNL     1       5.947  -3.956  27.381  0.00  0.00    +0.000 C 
ATOM     19  C   UNL     1       5.542  -5.374  26.976  0.00  0.00    +0.000 C 
ATOM     20  O   UNL     1       6.743  -6.133  26.688  0.00  0.00    +0.000 OA
ENDBRANCH  11  12
ENDBRANCH   6  11
TORSDOF 3
ENDMDL
MODEL 9
REMARK VINA RESULT:      -5.7      3.122      6.798
REMARK  Name = 
REMARK  3 active torsions:
REMARK  status: ('A' for Active; 'I' for Inactive)
REMARK    1  A    between atoms: C_2  and  C_3
REMARK    2  A    between atoms: N_8  and  C_9
REMARK    3  A    between atoms: C_9  and  C_10
REMARK                            x       y       z     vdW  Elec       q    Type
REMARK                         _______ _______ _______ _____ _____    ______ ____
ROOT
ATOM      1  O   UNL     1       3.241  -5.030  22.907  0.00  0.00    +0.000 OA
ATOM      2  C   UNL     1       3.965  -4.674  23.840  0.00  0.00    +0.000 C 
ATOM      3  N   UNL     1       5.331  -4.918  23.815  0.00  0.00    +0.000 N 
ATOM      4  C   UNL     1       6.329  -4.380  24.743  0.00  0.00    +0.000 C 
ATOM      5  C   UNL     1       7.679  -4.094  24.041  0.00  0.00    +0.000 C 
ATOM      6  N   UNL     1       7.618  -3.862  22.579  0.00  0.00    +0.000 NA
ATOM      7  C   UNL     1       7.013  -5.056  21.942  0.00  0.00    +0.000 C 
ATOM      8  C   UNL     1       5.893  -5.758  22.753  0.00  0.00    +0.000 C 
ENDROOT
BRANCH   2   9
ATOM      9  C   UNL     1       3.348  -4.017  25.070  0.00  0.00    +0.000 C 
ATOM     10 CL   UNL     1       3.118  -5.216  26.361  0.00  0.00    +0.000 Cl
ENDBRANCH   2   9
BRANCH   6  11
ATOM     11  C   UNL     1       6.894  -2.643  22.133  0.00  0.00    +0.000 C 
BRANCH  11  12
ATOM     12  C   UNL     1       7.790  -1.471  21.794  0.00  0.00    +0.000 A 
ATOM     13  C   UNL     1       9.195  -1.593  21.816  0.00  0.00    +0.000 A 
ATOM     14  C   UNL     1      10.003  -0.450  21.846  0.00  0.00    +0.000 A 
ATOM     15  C   UNL     1       9.377   0.776  21.898  0.00  0.00    +0.000 A 
ATOM     16  C   UNL     1       8.003   0.905  21.796  0.00  0.00    +0.000 A 
ATOM     17  C   UNL     1       7.200  -0.206  21.662  0.00  0.00    +0.000 A 
ATOM     18  C   UNL     1       7.621   2.325  21.944  0.00  0.00    +0.000 C 
ATOM     19  C   UNL     1       8.923   2.823  22.573  0.00  0.00    +0.000 C 
ATOM     20  O   UNL     1      10.008   1.973  22.124  0.00  0.00    +0.000 OA
ENDBRANCH  11  12
ENDBRANCH   6  11
TORSDOF 3
ENDMDL
