MODEL 1
REMARK VINA RESULT:      -6.7      0.000      0.000
REMARK  Name = 
REMARK  5 active torsions:
REMARK  status: ('A' for Active; 'I' for Inactive)
REMARK    1  A    between atoms: C_1  and  C_2
REMARK    2  A    between atoms: C_2  and  C_4
REMARK    3  A    between atoms: C_7  and  S_8
REMARK    4  A    between atoms: S_8  and  N_11
REMARK    5  A    between atoms: C_15  and  C_17
REMARK                            x       y       z     vdW  Elec       q    Type
REMARK                         _______ _______ _______ _____ _____    ______ ____
ROOT
ATOM      1  S   UNL     1       9.048  -1.670  22.750  0.00  0.00    +0.000 S 
ATOM      2  O   UNL     1       8.209  -2.633  22.064  0.00  0.00    +0.000 OA
ATOM      3  O   UNL     1      10.308  -2.102  23.312  0.00  0.00    +0.000 OA
ENDROOT
BRANCH   1   4
ATOM      4  N   UNL     1       8.172  -0.965  24.020  0.00  0.00    +0.000 NA
ATOM      5  C   UNL     1       8.760  -1.341  25.351  0.00  0.00    +0.000 C 
ATOM      6  C   UNL     1       8.453  -2.806  25.726  0.00  0.00    +0.000 C 
ATOM      7  N   UNL     1       7.253  -3.387  25.098  0.00  0.00    +0.000 N 
ATOM      8  C   UNL     1       7.141  -4.778  25.117  0.00  0.00    +0.000 C 
ATOM      9  O   UNL     1       7.957  -5.481  25.721  0.00  0.00    +0.000 OA
ATOM     10  C   UNL     1       6.229  -2.488  24.571  0.00  0.00    +0.000 C 
ATOM     11  C   UNL     1       6.706  -1.111  24.093  0.00  0.00    +0.000 C 
BRANCH   8  12
ATOM     12  C   UNL     1       5.985  -5.436  24.378  0.00  0.00    +0.000 C 
ATOM     13 CL   UNL     1       6.475  -5.804  22.714  0.00  0.00    +0.000 Cl
ENDBRANCH   8  12
ENDBRANCH   1   4
BRANCH   1  17
ATOM     14  C   UNL     1       8.025   1.955  21.538  0.00  0.00    +0.000 A 
ATOM     15  C   UNL     1       9.298   1.940  22.105  0.00  0.00    +0.000 A 
ATOM     16  C   UNL     1      10.023   0.756  22.048  0.00  0.00    +0.000 A 
ATOM     17  C   UNL     1       9.410  -0.385  21.496  0.00  0.00    +0.000 A 
ATOM     18  C   UNL     1       8.346  -0.231  20.595  0.00  0.00    +0.000 A 
ATOM     19  C   UNL     1       7.605   0.944  20.668  0.00  0.00    +0.000 A 
BRANCH  14  21
ATOM     20  C   UNL     1       7.208   4.237  22.241  0.00  0.00    +0.000 C 
ATOM     21  C   UNL     1       6.999   2.737  22.255  0.00  0.00    +0.000 C 
ATOM     22  O   UNL     1       6.020   2.185  22.749  0.00  0.00    +0.000 OA
ENDBRANCH  14  21
ENDBRANCH   1  17
TORSDOF 4
ENDMDL
MODEL 2
REMARK VINA RESULT:      -6.5      1.942      2.382
REMARK  Name = 
REMARK  5 active torsions:
REMARK  status: ('A' for Active; 'I' for Inactive)
REMARK    1  A    between atoms: C_1  and  C_2
REMARK    2  A    between atoms: C_2  and  C_4
REMARK    3  A    between atoms: C_7  and  S_8
REMARK    4  A    between atoms: S_8  and  N_11
REMARK    5  A    between atoms: C_15  and  C_17
REMARK                            x       y       z     vdW  Elec       q    Type
REMARK                         _______ _______ _______ _____ _____    ______ ____
ROOT
ATOM      1  S   UNL     1       8.390  -1.925  22.946  0.00  0.00    +0.000 S 
ATOM      2  O   UNL     1       9.543  -2.667  23.419  0.00  0.00    +0.000 OA
ATOM      3  O   UNL     1       7.692  -1.045  23.856  0.00  0.00    +0.000 OA
ENDROOT
BRANCH   1   4
ATOM      4  N   UNL     1       7.233  -3.007  22.341  0.00  0.00    +0.000 NA
ATOM      5  C   UNL     1       5.869  -2.700  22.893  0.00  0.00    +0.000 C 
ATOM      6  C   UNL     1       5.737  -3.118  24.373  0.00  0.00    +0.000 C 
ATOM      7  N   UNL     1       6.644  -4.191  24.816  0.00  0.00    +0.000 N 
ATOM      8  C   UNL     1       6.812  -4.347  26.193  0.00  0.00    +0.000 C 
ATOM      9  O   UNL     1       6.153  -3.685  27.001  0.00  0.00    +0.000 OA
ATOM     10  C   UNL     1       7.243  -5.065  23.811  0.00  0.00    +0.000 C 
ATOM     11  C   UNL     1       7.455  -4.464  22.416  0.00  0.00    +0.000 C 
BRANCH   8  12
ATOM     12  C   UNL     1       7.828  -5.358  26.702  0.00  0.00    +0.000 C 
ATOM     13 CL   UNL     1       9.468  -4.730  26.455  0.00  0.00    +0.000 Cl
ENDBRANCH   8  12
ENDBRANCH   1   4
BRANCH   1  17
ATOM     14  C   UNL     1       8.607   1.784  21.582  0.00  0.00    +0.000 A 
ATOM     15  C   UNL     1       9.850   1.314  22.001  0.00  0.00    +0.000 A 
ATOM     16  C   UNL     1      10.079  -0.056  21.954  0.00  0.00    +0.000 A 
ATOM     17  C   UNL     1       9.025  -0.903  21.564  0.00  0.00    +0.000 A 
ATOM     18  C   UNL     1       7.981  -0.393  20.779  0.00  0.00    +0.000 A 
ATOM     19  C   UNL     1       7.735   0.975  20.845  0.00  0.00    +0.000 A 
BRANCH  14  21
ATOM     20  C   UNL     1       8.788   3.265  23.618  0.00  0.00    +0.000 C 
ATOM     21  C   UNL     1       8.041   2.911  22.348  0.00  0.00    +0.000 C 
ATOM     22  O   UNL     1       7.081   3.544  21.918  0.00  0.00    +0.000 OA
ENDBRANCH  14  21
ENDBRANCH   1  17
TORSDOF 4
ENDMDL
MODEL 3
REMARK VINA RESULT:      -6.4      2.538      3.413
REMARK  Name = 
REMARK  5 active torsions:
REMARK  status: ('A' for Active; 'I' for Inactive)
REMARK    1  A    between atoms: C_1  and  C_2
REMARK    2  A    between atoms: C_2  and  C_4
REMARK    3  A    between atoms: C_7  and  S_8
REMARK    4  A    between atoms: S_8  and  N_11
REMARK    5  A    between atoms: C_15  and  C_17
REMARK                            x       y       z     vdW  Elec       q    Type
REMARK                         _______ _______ _______ _____ _____    ______ ____
ROOT
ATOM      1  S   UNL     1       7.385  -1.808  23.753  0.00  0.00    +0.000 S 
ATOM      2  O   UNL     1       7.322  -1.609  25.189  0.00  0.00    +0.000 OA
ATOM      3  O   UNL     1       6.163  -2.037  23.016  0.00  0.00    +0.000 OA
ENDROOT
BRANCH   1   4
ATOM      4  N   UNL     1       8.406  -3.118  23.411  0.00  0.00    +0.000 NA
ATOM      5  C   UNL     1       7.652  -4.220  22.722  0.00  0.00    +0.000 C 
ATOM      6  C   UNL     1       6.720  -4.978  23.691  0.00  0.00    +0.000 C 
ATOM      7  N   UNL     1       7.104  -4.931  25.112  0.00  0.00    +0.000 N 
ATOM      8  C   UNL     1       6.124  -5.282  26.043  0.00  0.00    +0.000 C 
ATOM      9  O   UNL     1       5.022  -5.709  25.687  0.00  0.00    +0.000 OA
ATOM     10  C   UNL     1       8.485  -4.603  25.458  0.00  0.00    +0.000 C 
ATOM     11  C   UNL     1       9.246  -3.712  24.469  0.00  0.00    +0.000 C 
BRANCH   8  12
ATOM     12  C   UNL     1       6.428  -5.134  27.526  0.00  0.00    +0.000 C 
ATOM     13 CL   UNL     1       5.195  -4.113  28.288  0.00  0.00    +0.000 Cl
ENDBRANCH   8  12
ENDBRANCH   1   4
BRANCH   1  17
ATOM     14  C   UNL     1       7.764   0.409  20.497  0.00  0.00    +0.000 A 
ATOM     15  C   UNL     1       6.977   1.036  21.460  0.00  0.00    +0.000 A 
ATOM     16  C   UNL     1       7.200   0.717  22.795  0.00  0.00    +0.000 A 
ATOM     17  C   UNL     1       8.150  -0.276  23.100  0.00  0.00    +0.000 A 
ATOM     18  C   UNL     1       9.173  -0.562  22.184  0.00  0.00    +0.000 A 
ATOM     19  C   UNL     1       8.940  -0.265  20.846  0.00  0.00    +0.000 A 
BRANCH  14  21
ATOM     20  C   UNL     1       5.866  -0.846  19.403  0.00  0.00    +0.000 C 
ATOM     21  C   UNL     1       7.087   0.037  19.240  0.00  0.00    +0.000 C 
ATOM     22  O   UNL     1       7.466   0.491  18.164  0.00  0.00    +0.000 OA
ENDBRANCH  14  21
ENDBRANCH   1  17
TORSDOF 4
ENDMDL
MODEL 4
REMARK VINA RESULT:      -6.4      2.429      3.283
REMARK  Name = 
REMARK  5 active torsions:
REMARK  status: ('A' for Active; 'I' for Inactive)
REMARK    1  A    between atoms: C_1  and  C_2
REMARK    2  A    between atoms: C_2  and  C_4
REMARK    3  A    between atoms: C_7  and  S_8
REMARK    4  A    between atoms: S_8  and  N_11
REMARK    5  A    between atoms: C_15  and  C_17
REMARK                            x       y       z     vdW  Elec       q    Type
REMARK                         _______ _______ _______ _____ _____    ______ ____
ROOT
ATOM      1  S   UNL     1       8.648  -2.381  24.554  0.00  0.00    +0.000 S 
ATOM      2  O   UNL     1       8.640  -2.167  25.989  0.00  0.00    +0.000 OA
ATOM      3  O   UNL     1       7.469  -2.058  23.783  0.00  0.00    +0.000 OA
ENDROOT
BRANCH   1   4
ATOM      4  N   UNL     1       9.003  -4.008  24.231  0.00  0.00    +0.000 NA
ATOM      5  C   UNL     1       7.896  -4.653  23.445  0.00  0.00    +0.000 C 
ATOM      6  C   UNL     1       6.649  -4.920  24.315  0.00  0.00    +0.000 C 
ATOM      7  N   UNL     1       6.897  -5.057  25.761  0.00  0.00    +0.000 N 
ATOM      8  C   UNL     1       5.792  -4.938  26.605  0.00  0.00    +0.000 C 
ATOM      9  O   UNL     1       4.648  -4.825  26.156  0.00  0.00    +0.000 OA
ATOM     10  C   UNL     1       8.247  -5.383  26.215  0.00  0.00    +0.000 C 
ATOM     11  C   UNL     1       9.403  -4.920  25.319  0.00  0.00    +0.000 C 
BRANCH   8  12
ATOM     12  C   UNL     1       6.009  -4.950  28.111  0.00  0.00    +0.000 C 
ATOM     13 CL   UNL     1       5.799  -6.599  28.730  0.00  0.00    +0.000 Cl
ENDBRANCH   8  12
ENDBRANCH   1   4
BRANCH   1  17
ATOM     14  C   UNL     1       9.490   0.681  22.193  0.00  0.00    +0.000 A 
ATOM     15  C   UNL     1       9.658   1.004  23.538  0.00  0.00    +0.000 A 
ATOM     16  C   UNL     1       9.970  -0.022  24.422  0.00  0.00    +0.000 A 
ATOM     17  C   UNL     1      10.022  -1.341  23.932  0.00  0.00    +0.000 A 
ATOM     18  C   UNL     1      10.260  -1.564  22.568  0.00  0.00    +0.000 A 
ATOM     19  C   UNL     1       9.925  -0.546  21.681  0.00  0.00    +0.000 A 
BRANCH  14  21
ATOM     20  C   UNL     1       7.739   0.617  20.376  0.00  0.00    +0.000 C 
ATOM     21  C   UNL     1       8.423   1.404  21.475  0.00  0.00    +0.000 C 
ATOM     22  O   UNL     1       8.087   2.534  21.820  0.00  0.00    +0.000 OA
ENDBRANCH  14  21
ENDBRANCH   1  17
TORSDOF 4
ENDMDL
MODEL 5
REMARK VINA RESULT:      -6.4      1.964      2.426
REMARK  Name = 
REMARK  5 active torsions:
REMARK  status: ('A' for Active; 'I' for Inactive)
REMARK    1  A    between atoms: C_1  and  C_2
REMARK    2  A    between atoms: C_2  and  C_4
REMARK    3  A    between atoms: C_7  and  S_8
REMARK    4  A    between atoms: S_8  and  N_11
REMARK    5  A    between atoms: C_15  and  C_17
REMARK                            x       y       z     vdW  Elec       q    Type
REMARK                         _______ _______ _______ _____ _____    ______ ____
ROOT
ATOM      1  S   UNL     1       8.614  -1.787  23.885  0.00  0.00    +0.000 S 
ATOM      2  O   UNL     1       8.840  -3.014  23.146  0.00  0.00    +0.000 OA
ATOM      3  O   UNL     1       8.429  -1.846  25.317  0.00  0.00    +0.000 OA
ENDROOT
BRANCH   1   4
ATOM      4  N   UNL     1       7.251  -0.996  23.257  0.00  0.00    +0.000 NA
ATOM      5  C   UNL     1       6.113  -1.025  24.238  0.00  0.00    +0.000 C 
ATOM      6  C   UNL     1       5.469  -2.424  24.335  0.00  0.00    +0.000 C 
ATOM      7  N   UNL     1       5.630  -3.285  23.150  0.00  0.00    +0.000 N 
ATOM      8  C   UNL     1       5.389  -4.649  23.323  0.00  0.00    +0.000 C 
ATOM      9  O   UNL     1       4.962  -5.097  24.391  0.00  0.00    +0.000 OA
ATOM     10  C   UNL     1       5.951  -2.663  21.868  0.00  0.00    +0.000 C 
ATOM     11  C   UNL     1       6.730  -1.344  21.920  0.00  0.00    +0.000 C 
BRANCH   8  12
ATOM     12  C   UNL     1       5.659  -5.598  22.165  0.00  0.00    +0.000 C 
ATOM     13 CL   UNL     1       7.381  -6.019  22.128  0.00  0.00    +0.000 Cl
ENDBRANCH   8  12
ENDBRANCH   1   4
BRANCH   1  17
ATOM     14  C   UNL     1       9.802   1.894  23.051  0.00  0.00    +0.000 A 
ATOM     15  C   UNL     1      10.169   1.513  24.340  0.00  0.00    +0.000 A 
ATOM     16  C   UNL     1      10.359   0.159  24.590  0.00  0.00    +0.000 A 
ATOM     17  C   UNL     1      10.096  -0.761  23.557  0.00  0.00    +0.000 A 
ATOM     18  C   UNL     1      10.142  -0.335  22.222  0.00  0.00    +0.000 A 
ATOM     19  C   UNL     1       9.928   1.016  21.970  0.00  0.00    +0.000 A 
BRANCH  14  21
ATOM     20  C   UNL     1       7.569   2.682  22.176  0.00  0.00    +0.000 C 
ATOM     21  C   UNL     1       8.833   3.003  22.948  0.00  0.00    +0.000 C 
ATOM     22  O   UNL     1       9.034   4.068  23.524  0.00  0.00    +0.000 OA
ENDBRANCH  14  21
ENDBRANCH   1  17
TORSDOF 4
ENDMDL
MODEL 6
REMARK VINA RESULT:      -6.2      2.789      3.498
REMARK  Name = 
REMARK  5 active torsions:
REMARK  status: ('A' for Active; 'I' for Inactive)
REMARK    1  A    between atoms: C_1  and  C_2
REMARK    2  A    between atoms: C_2  and  C_4
REMARK    3  A    between atoms: C_7  and  S_8
REMARK    4  A    between atoms: S_8  and  N_11
REMARK    5  A    between atoms: C_15  and  C_17
REMARK                            x       y       z     vdW  Elec       q    Type
REMARK                         _______ _______ _______ _____ _____    ______ ____
ROOT
ATOM      1  S   UNL     1       7.369  -1.982  22.314  0.00  0.00    +0.000 S 
ATOM      2  O   UNL     1       7.244  -1.434  23.651  0.00  0.00    +0.000 OA
ATOM      3  O   UNL     1       6.398  -1.621  21.306  0.00  0.00    +0.000 OA
ENDROOT
BRANCH   1   4
ATOM      4  N   UNL     1       7.367  -3.676  22.398  0.00  0.00    +0.000 NA
ATOM      5  C   UNL     1       6.041  -4.234  21.961  0.00  0.00    +0.000 C 
ATOM      6  C   UNL     1       4.941  -4.009  23.020  0.00  0.00    +0.000 C 
ATOM      7  N   UNL     1       5.414  -3.849  24.406  0.00  0.00    +0.000 N 
ATOM      8  C   UNL     1       4.516  -3.295  25.320  0.00  0.00    +0.000 C 
ATOM      9  O   UNL     1       3.348  -3.047  25.005  0.00  0.00    +0.000 OA
ATOM     10  C   UNL     1       6.744  -4.341  24.758  0.00  0.00    +0.000 C 
ATOM     11  C   UNL     1       7.785  -4.368  23.632  0.00  0.00    +0.000 C 
BRANCH   8  12
ATOM     12  C   UNL     1       4.992  -2.995  26.734  0.00  0.00    +0.000 C 
ATOM     13 CL   UNL     1       5.735  -1.385  26.783  0.00  0.00    +0.000 Cl
ENDBRANCH   8  12
ENDBRANCH   1   4
BRANCH   1  17
ATOM     14  C   UNL     1      10.100   0.845  22.765  0.00  0.00    +0.000 A 
ATOM     15  C   UNL     1      10.534  -0.378  23.273  0.00  0.00    +0.000 A 
ATOM     16  C   UNL     1      10.009  -1.538  22.717  0.00  0.00    +0.000 A 
ATOM     17  C   UNL     1       9.013  -1.422  21.729  0.00  0.00    +0.000 A 
ATOM     18  C   UNL     1       8.916  -0.241  20.978  0.00  0.00    +0.000 A 
ATOM     19  C   UNL     1       9.420   0.925  21.545  0.00  0.00    +0.000 A 
BRANCH  14  21
ATOM     20  C   UNL     1       8.857   1.677  24.798  0.00  0.00    +0.000 C 
ATOM     21  C   UNL     1       9.916   1.933  23.745  0.00  0.00    +0.000 C 
ATOM     22  O   UNL     1      10.640   2.925  23.727  0.00  0.00    +0.000 OA
ENDBRANCH  14  21
ENDBRANCH   1  17
TORSDOF 4
ENDMDL
MODEL 7
REMARK VINA RESULT:      -6.2      2.977      6.731
REMARK  Name = 
REMARK  5 active torsions:
REMARK  status: ('A' for Active; 'I' for Inactive)
REMARK    1  A    between atoms: C_1  and  C_2
REMARK    2  A    between atoms: C_2  and  C_4
REMARK    3  A    between atoms: C_7  and  S_8
REMARK    4  A    between atoms: S_8  and  N_11
REMARK    5  A    between atoms: C_15  and  C_17
REMARK                            x       y       z     vdW  Elec       q    Type
REMARK                         _______ _______ _______ _____ _____    ______ ____
ROOT
ATOM      1  S   UNL     1       7.605  -1.458  23.074  0.00  0.00    +0.000 S 
ATOM      2  O   UNL     1       6.705  -0.436  23.572  0.00  0.00    +0.000 OA
ATOM      3  O   UNL     1       8.827  -1.739  23.794  0.00  0.00    +0.000 OA
ENDROOT
BRANCH   1   4
ATOM      4  N   UNL     1       8.060  -1.081  21.484  0.00  0.00    +0.000 NA
ATOM      5  C   UNL     1       9.474  -0.574  21.436  0.00  0.00    +0.000 C 
ATOM      6  C   UNL     1       9.594   0.860  21.993  0.00  0.00    +0.000 C 
ATOM      7  N   UNL     1       8.366   1.672  21.932  0.00  0.00    +0.000 N 
ATOM      8  C   UNL     1       8.326   2.815  22.732  0.00  0.00    +0.000 C 
ATOM      9  O   UNL     1       9.310   3.183  23.380  0.00  0.00    +0.000 OA
ATOM     10  C   UNL     1       7.312   1.286  20.998  0.00  0.00    +0.000 C 
ATOM     11  C   UNL     1       7.216  -0.204  20.649  0.00  0.00    +0.000 C 
BRANCH   8  12
ATOM     12  C   UNL     1       7.038   3.623  22.801  0.00  0.00    +0.000 C 
ATOM     13 CL   UNL     1       7.284   5.203  22.034  0.00  0.00    +0.000 Cl
ENDBRANCH   8  12
ENDBRANCH   1   4
BRANCH   1  17
ATOM     14  C   UNL     1       7.005  -4.876  24.977  0.00  0.00    +0.000 A 
ATOM     15  C   UNL     1       5.930  -4.003  25.132  0.00  0.00    +0.000 A 
ATOM     16  C   UNL     1       5.701  -3.067  24.130  0.00  0.00    +0.000 A 
ATOM     17  C   UNL     1       6.606  -2.994  23.054  0.00  0.00    +0.000 A 
ATOM     18  C   UNL     1       7.388  -4.113  22.731  0.00  0.00    +0.000 A 
ATOM     19  C   UNL     1       7.638  -5.037  23.740  0.00  0.00    +0.000 A 
BRANCH  14  21
ATOM     20  C   UNL     1       9.067  -4.462  26.373  0.00  0.00    +0.000 C 
ATOM     21  C   UNL     1       7.759  -5.208  26.201  0.00  0.00    +0.000 C 
ATOM     22  O   UNL     1       7.294  -5.979  27.036  0.00  0.00    +0.000 OA
ENDBRANCH  14  21
ENDBRANCH   1  17
TORSDOF 4
ENDMDL
MODEL 8
REMARK VINA RESULT:      -6.2      3.000      6.427
REMARK  Name = 
REMARK  5 active torsions:
REMARK  status: ('A' for Active; 'I' for Inactive)
REMARK    1  A    between atoms: C_1  and  C_2
REMARK    2  A    between atoms: C_2  and  C_4
REMARK    3  A    between atoms: C_7  and  S_8
REMARK    4  A    between atoms: S_8  and  N_11
REMARK    5  A    between atoms: C_15  and  C_17
REMARK                            x       y       z     vdW  Elec       q    Type
REMARK                         _______ _______ _______ _____ _____    ______ ____
ROOT
ATOM      1  S   UNL     1       8.338  -1.768  24.127  0.00  0.00    +0.000 S 
ATOM      2  O   UNL     1       7.270  -0.841  24.453  0.00  0.00    +0.000 OA
ATOM      3  O   UNL     1       9.694  -1.449  24.512  0.00  0.00    +0.000 OA
ENDROOT
BRANCH   1   4
ATOM      4  N   UNL     1       8.363  -2.030  22.452  0.00  0.00    +0.000 NA
ATOM      5  C   UNL     1       9.614  -1.466  21.838  0.00  0.00    +0.000 C 
ATOM      6  C   UNL     1       9.580   0.076  21.769  0.00  0.00    +0.000 C 
ATOM      7  N   UNL     1       8.238   0.684  21.747  0.00  0.00    +0.000 N 
ATOM      8  C   UNL     1       8.156   2.045  22.045  0.00  0.00    +0.000 C 
ATOM      9  O   UNL     1       9.170   2.728  22.218  0.00  0.00    +0.000 OA
ATOM     10  C   UNL     1       7.100  -0.139  21.345  0.00  0.00    +0.000 C 
ATOM     11  C   UNL     1       7.212  -1.644  21.613  0.00  0.00    +0.000 C 
BRANCH   8  12
ATOM     12  C   UNL     1       6.785   2.695  22.155  0.00  0.00    +0.000 C 
ATOM     13 CL   UNL     1       6.968   4.456  22.258  0.00  0.00    +0.000 Cl
ENDBRANCH   8  12
ENDBRANCH   1   4
BRANCH   1  17
ATOM     14  C   UNL     1       6.265  -5.109  23.682  0.00  0.00    +0.000 A 
ATOM     15  C   UNL     1       7.638  -5.348  23.674  0.00  0.00    +0.000 A 
ATOM     16  C   UNL     1       8.459  -4.462  24.362  0.00  0.00    +0.000 A 
ATOM     17  C   UNL     1       7.875  -3.331  24.963  0.00  0.00    +0.000 A 
ATOM     18  C   UNL     1       6.513  -3.350  25.300  0.00  0.00    +0.000 A 
ATOM     19  C   UNL     1       5.688  -4.219  24.594  0.00  0.00    +0.000 A 
BRANCH  14  21
ATOM     20  C   UNL     1       6.426  -5.627  21.217  0.00  0.00    +0.000 C 
ATOM     21  C   UNL     1       5.544  -5.397  22.427  0.00  0.00    +0.000 C 
ATOM     22  O   UNL     1       4.321  -5.510  22.417  0.00  0.00    +0.000 OA
ENDBRANCH  14  21
ENDBRANCH   1  17
TORSDOF 4
ENDMDL
MODEL 9
REMARK VINA RESULT:      -6.1      2.233      2.846
REMARK  Name = 
REMARK  5 active torsions:
REMARK  status: ('A' for Active; 'I' for Inactive)
REMARK    1  A    between atoms: C_1  and  C_2
REMARK    2  A    between atoms: C_2  and  C_4
REMARK    3  A    between atoms: C_7  and  S_8
REMARK    4  A    between atoms: S_8  and  N_11
REMARK    5  A    between atoms: C_15  and  C_17
REMARK                            x       y       z     vdW  Elec       q    Type
REMARK                         _______ _______ _______ _____ _____    ______ ____
ROOT
ATOM      1  S   UNL     1       7.512  -2.021  23.054  0.00  0.00    +0.000 S 
ATOM      2  O   UNL     1       6.191  -1.958  23.651  0.00  0.00    +0.000 OA
ATOM      3  O   UNL     1       7.885  -3.184  22.281  0.00  0.00    +0.000 OA
ENDROOT
BRANCH   1   4
ATOM      4  N   UNL     1       8.686  -1.853  24.266  0.00  0.00    +0.000 NA
ATOM      5  C   UNL     1       9.492  -3.113  24.411  0.00  0.00    +0.000 C 
ATOM      6  C   UNL     1       8.691  -4.236  25.104  0.00  0.00    +0.000 C 
ATOM      7  N   UNL     1       7.592  -3.789  25.978  0.00  0.00    +0.000 N 
ATOM      8  C   UNL     1       6.636  -4.744  26.328  0.00  0.00    +0.000 C 
ATOM      9  O   UNL     1       6.761  -5.929  26.005  0.00  0.00    +0.000 OA
ATOM     10  C   UNL     1       7.608  -2.419  26.483  0.00  0.00    +0.000 C 
ATOM     11  C   UNL     1       8.314  -1.373  25.611  0.00  0.00    +0.000 C 
BRANCH   8  12
ATOM     12  C   UNL     1       5.416  -4.309  27.127  0.00  0.00    +0.000 C 
ATOM     13 CL   UNL     1       5.522  -4.956  28.775  0.00  0.00    +0.000 Cl
ENDBRANCH   8  12
ENDBRANCH   1   4
BRANCH   1  17
ATOM     14  C   UNL     1       9.285   1.479  22.541  0.00  0.00    +0.000 A 
ATOM     15  C   UNL     1       9.699   0.546  21.592  0.00  0.00    +0.000 A 
ATOM     16  C   UNL     1       8.820  -0.477  21.256  0.00  0.00    +0.000 A 
ATOM     17  C   UNL     1       7.595  -0.566  21.944  0.00  0.00    +0.000 A 
ATOM     18  C   UNL     1       7.058   0.577  22.553  0.00  0.00    +0.000 A 
ATOM     19  C   UNL     1       7.940   1.591  22.912  0.00  0.00    +0.000 A 
BRANCH  14  21
ATOM     20  C   UNL     1      10.987   0.873  24.303  0.00  0.00    +0.000 C 
ATOM     21  C   UNL     1      10.316   1.956  23.483  0.00  0.00    +0.000 C 
ATOM     22  O   UNL     1      10.635   3.141  23.518  0.00  0.00    +0.000 OA
ENDBRANCH  14  21
ENDBRANCH   1  17
TORSDOF 4
ENDMDL
