MODEL 1
REMARK VINA RESULT:      -6.4      0.000      0.000
REMARK  Name = 
REMARK  5 active torsions:
REMARK  status: ('A' for Active; 'I' for Inactive)
REMARK    1  A    between atoms: C_1  and  O_2
REMARK    2  A    between atoms: O_2  and  C_3
REMARK    3  A    between atoms: C_6  and  S_7
REMARK    4  A    between atoms: S_7  and  N_10
REMARK    5  A    between atoms: C_14  and  C_16
REMARK                            x       y       z     vdW  Elec       q    Type
REMARK                         _______ _______ _______ _____ _____    ______ ____
ROOT
ATOM      1  S   UNL     1       8.117  -2.616  23.246  0.00  0.00    +0.000 S 
ATOM      2  O   UNL     1       9.561  -2.581  23.342  0.00  0.00    +0.000 OA
ATOM      3  O   UNL     1       7.413  -3.851  23.003  0.00  0.00    +0.000 OA
ENDROOT
BRANCH   1   4
ATOM      4  N   UNL     1       7.510  -1.943  24.671  0.00  0.00    +0.000 NA
ATOM      5  C   UNL     1       6.555  -0.800  24.672  0.00  0.00    +0.000 C 
ATOM      6  C   UNL     1       7.050   0.323  25.623  0.00  0.00    +0.000 C 
ATOM      7  N   UNL     1       8.487   0.193  25.861  0.00  0.00    +0.000 N 
ATOM      8  C   UNL     1       9.459   0.784  25.058  0.00  0.00    +0.000 C 
ATOM      9  O   UNL     1      10.623   0.372  25.082  0.00  0.00    +0.000 OA
ATOM     10  C   UNL     1       8.833  -1.065  26.560  0.00  0.00    +0.000 C 
ATOM     11  C   UNL     1       8.006  -2.262  26.023  0.00  0.00    +0.000 C 
BRANCH   8  12
ATOM     12  C   UNL     1       9.174   2.046  24.266  0.00  0.00    +0.000 C 
ATOM     13 CL   UNL     1      10.435   2.480  23.109  0.00  0.00    +0.000 Cl
ENDBRANCH   8  12
ENDBRANCH   1   4
BRANCH   1  17
ATOM     14  C   UNL     1       7.279  -0.102  19.551  0.00  0.00    +0.000 A 
ATOM     15  C   UNL     1       8.328   0.272  20.388  0.00  0.00    +0.000 A 
ATOM     16  C   UNL     1       8.551  -0.438  21.576  0.00  0.00    +0.000 A 
ATOM     17  C   UNL     1       7.691  -1.486  21.923  0.00  0.00    +0.000 A 
ATOM     18  C   UNL     1       6.497  -1.654  21.214  0.00  0.00    +0.000 A 
ATOM     19  C   UNL     1       6.306  -0.988  20.004  0.00  0.00    +0.000 A 
BRANCH  14  21
ATOM     20  C   UNL     1       5.940   0.925  17.965  0.00  0.00    +0.000 C 
ATOM     21  O   UNL     1       7.240   0.403  18.280  0.00  0.00    +0.000 OA
ENDBRANCH  14  21
ENDBRANCH   1  17
TORSDOF 4
ENDMDL
MODEL 2
REMARK VINA RESULT:      -6.4      3.362      5.175
REMARK  Name = 
REMARK  5 active torsions:
REMARK  status: ('A' for Active; 'I' for Inactive)
REMARK    1  A    between atoms: C_1  and  O_2
REMARK    2  A    between atoms: O_2  and  C_3
REMARK    3  A    between atoms: C_6  and  S_7
REMARK    4  A    between atoms: S_7  and  N_10
REMARK    5  A    between atoms: C_14  and  C_16
REMARK                            x       y       z     vdW  Elec       q    Type
REMARK                         _______ _______ _______ _____ _____    ______ ____
ROOT
ATOM      1  S   UNL     1       9.239  -2.106  23.208  0.00  0.00    +0.000 S 
ATOM      2  O   UNL     1      10.354  -2.923  23.639  0.00  0.00    +0.000 OA
ATOM      3  O   UNL     1       8.556  -2.369  21.965  0.00  0.00    +0.000 OA
ENDROOT
BRANCH   1   4
ATOM      4  N   UNL     1       8.093  -2.139  24.447  0.00  0.00    +0.000 NA
ATOM      5  C   UNL     1       7.941  -3.302  25.365  0.00  0.00    +0.000 C 
ATOM      6  C   UNL     1       6.455  -3.746  25.440  0.00  0.00    +0.000 C 
ATOM      7  N   UNL     1       5.719  -3.263  24.272  0.00  0.00    +0.000 N 
ATOM      8  C   UNL     1       5.614  -3.972  23.079  0.00  0.00    +0.000 C 
ATOM      9  O   UNL     1       5.296  -3.392  22.035  0.00  0.00    +0.000 OA
ATOM     10  C   UNL     1       5.662  -1.785  24.211  0.00  0.00    +0.000 C 
ATOM     11  C   UNL     1       7.016  -1.145  24.617  0.00  0.00    +0.000 C 
BRANCH   8  12
ATOM     12  C   UNL     1       5.712  -5.485  23.043  0.00  0.00    +0.000 C 
ATOM     13 CL   UNL     1       7.027  -6.106  22.043  0.00  0.00    +0.000 Cl
ENDBRANCH   8  12
ENDBRANCH   1   4
BRANCH   1  17
ATOM     14  C   UNL     1      10.353   2.302  23.230  0.00  0.00    +0.000 A 
ATOM     15  C   UNL     1       9.959   1.721  22.027  0.00  0.00    +0.000 A 
ATOM     16  C   UNL     1       9.692   0.345  21.980  0.00  0.00    +0.000 A 
ATOM     17  C   UNL     1       9.866  -0.430  23.132  0.00  0.00    +0.000 A 
ATOM     18  C   UNL     1      10.523   0.124  24.235  0.00  0.00    +0.000 A 
ATOM     19  C   UNL     1      10.734   1.500  24.302  0.00  0.00    +0.000 A 
BRANCH  14  21
ATOM     20  C   UNL     1      11.669   4.200  23.396  0.00  0.00    +0.000 C 
ATOM     21  O   UNL     1      10.338   3.667  23.336  0.00  0.00    +0.000 OA
ENDBRANCH  14  21
ENDBRANCH   1  17
TORSDOF 4
ENDMDL
MODEL 3
REMARK VINA RESULT:      -6.4      2.329      3.293
REMARK  Name = 
REMARK  5 active torsions:
REMARK  status: ('A' for Active; 'I' for Inactive)
REMARK    1  A    between atoms: C_1  and  O_2
REMARK    2  A    between atoms: O_2  and  C_3
REMARK    3  A    between atoms: C_6  and  S_7
REMARK    4  A    between atoms: S_7  and  N_10
REMARK    5  A    between atoms: C_14  and  C_16
REMARK                            x       y       z     vdW  Elec       q    Type
REMARK                         _______ _______ _______ _____ _____    ______ ____
ROOT
ATOM      1  S   UNL     1       8.570  -2.058  22.455  0.00  0.00    +0.000 S 
ATOM      2  O   UNL     1       9.953  -1.825  22.094  0.00  0.00    +0.000 OA
ATOM      3  O   UNL     1       8.053  -3.395  22.608  0.00  0.00    +0.000 OA
ENDROOT
BRANCH   1   4
ATOM      4  N   UNL     1       8.287  -1.223  23.895  0.00  0.00    +0.000 NA
ATOM      5  C   UNL     1       9.297  -1.147  24.987  0.00  0.00    +0.000 C 
ATOM      6  C   UNL     1       8.659  -1.540  26.347  0.00  0.00    +0.000 C 
ATOM      7  N   UNL     1       7.443  -2.325  26.132  0.00  0.00    +0.000 N 
ATOM      8  C   UNL     1       7.431  -3.711  26.007  0.00  0.00    +0.000 C 
ATOM      9  O   UNL     1       6.466  -4.282  25.489  0.00  0.00    +0.000 OA
ATOM     10  C   UNL     1       6.388  -1.553  25.436  0.00  0.00    +0.000 C 
ATOM     11  C   UNL     1       6.978  -0.677  24.301  0.00  0.00    +0.000 C 
BRANCH   8  12
ATOM     12  C   UNL     1       8.503  -4.575  26.644  0.00  0.00    +0.000 C 
ATOM     13 CL   UNL     1       9.818  -5.026  25.556  0.00  0.00    +0.000 Cl
ENDBRANCH   8  12
ENDBRANCH   1   4
BRANCH   1  17
ATOM     14  C   UNL     1       6.339  -0.330  18.889  0.00  0.00    +0.000 A 
ATOM     15  C   UNL     1       7.418   0.382  19.410  0.00  0.00    +0.000 A 
ATOM     16  C   UNL     1       8.066  -0.090  20.560  0.00  0.00    +0.000 A 
ATOM     17  C   UNL     1       7.595  -1.246  21.191  0.00  0.00    +0.000 A 
ATOM     18  C   UNL     1       6.356  -1.775  20.813  0.00  0.00    +0.000 A 
ATOM     19  C   UNL     1       5.745  -1.342  19.638  0.00  0.00    +0.000 A 
BRANCH  14  21
ATOM     20  C   UNL     1       6.066   1.369  17.340  0.00  0.00    +0.000 C 
ATOM     21  O   UNL     1       5.898  -0.027  17.630  0.00  0.00    +0.000 OA
ENDBRANCH  14  21
ENDBRANCH   1  17
TORSDOF 4
ENDMDL
MODEL 4
REMARK VINA RESULT:      -6.3      2.596      3.956
REMARK  Name = 
REMARK  5 active torsions:
REMARK  status: ('A' for Active; 'I' for Inactive)
REMARK    1  A    between atoms: C_1  and  O_2
REMARK    2  A    between atoms: O_2  and  C_3
REMARK    3  A    between atoms: C_6  and  S_7
REMARK    4  A    between atoms: S_7  and  N_10
REMARK    5  A    between atoms: C_14  and  C_16
REMARK                            x       y       z     vdW  Elec       q    Type
REMARK                         _______ _______ _______ _____ _____    ______ ____
ROOT
ATOM      1  S   UNL     1       9.524  -2.327  23.374  0.00  0.00    +0.000 S 
ATOM      2  O   UNL     1      10.030  -1.741  22.151  0.00  0.00    +0.000 OA
ATOM      3  O   UNL     1      10.308  -3.273  24.130  0.00  0.00    +0.000 OA
ENDROOT
BRANCH   1   4
ATOM      4  N   UNL     1       9.116  -1.051  24.402  0.00  0.00    +0.000 NA
ATOM      5  C   UNL     1       7.717  -0.562  24.553  0.00  0.00    +0.000 C 
ATOM      6  C   UNL     1       7.657   0.980  24.377  0.00  0.00    +0.000 C 
ATOM      7  N   UNL     1       8.833   1.456  23.649  0.00  0.00    +0.000 N 
ATOM      8  C   UNL     1       8.897   1.548  22.262  0.00  0.00    +0.000 C 
ATOM      9  O   UNL     1       9.991   1.613  21.691  0.00  0.00    +0.000 OA
ATOM     10  C   UNL     1      10.093   1.215  24.390  0.00  0.00    +0.000 C 
ATOM     11  C   UNL     1      10.094  -0.175  25.077  0.00  0.00    +0.000 C 
BRANCH   8  12
ATOM     12  C   UNL     1       7.650   1.743  21.421  0.00  0.00    +0.000 C 
ATOM     13 CL   UNL     1       7.509   0.629  20.058  0.00  0.00    +0.000 Cl
ENDBRANCH   8  12
ENDBRANCH   1   4
BRANCH   1  17
ATOM     14  C   UNL     1       5.396  -4.080  22.625  0.00  0.00    +0.000 A 
ATOM     15  C   UNL     1       6.316  -4.830  23.354  0.00  0.00    +0.000 A 
ATOM     16  C   UNL     1       7.621  -4.345  23.525  0.00  0.00    +0.000 A 
ATOM     17  C   UNL     1       7.990  -3.136  22.926  0.00  0.00    +0.000 A 
ATOM     18  C   UNL     1       7.140  -2.554  21.981  0.00  0.00    +0.000 A 
ATOM     19  C   UNL     1       5.826  -3.002  21.857  0.00  0.00    +0.000 A 
BRANCH  14  21
ATOM     20  C   UNL     1       3.623  -4.472  24.063  0.00  0.00    +0.000 C 
ATOM     21  O   UNL     1       4.071  -4.413  22.700  0.00  0.00    +0.000 OA
ENDBRANCH  14  21
ENDBRANCH   1  17
TORSDOF 4
ENDMDL
MODEL 5
REMARK VINA RESULT:      -6.2      2.720      4.051
REMARK  Name = 
REMARK  5 active torsions:
REMARK  status: ('A' for Active; 'I' for Inactive)
REMARK    1  A    between atoms: C_1  and  O_2
REMARK    2  A    between atoms: O_2  and  C_3
REMARK    3  A    between atoms: C_6  and  S_7
REMARK    4  A    between atoms: S_7  and  N_10
REMARK    5  A    between atoms: C_14  and  C_16
REMARK                            x       y       z     vdW  Elec       q    Type
REMARK                         _______ _______ _______ _____ _____    ______ ____
ROOT
ATOM      1  S   UNL     1       9.882  -0.765  23.043  0.00  0.00    +0.000 S 
ATOM      2  O   UNL     1      10.704   0.249  23.670  0.00  0.00    +0.000 OA
ATOM      3  O   UNL     1      10.473  -1.870  22.328  0.00  0.00    +0.000 OA
ENDROOT
BRANCH   1   4
ATOM      4  N   UNL     1       8.878  -1.400  24.243  0.00  0.00    +0.000 NA
ATOM      5  C   UNL     1       9.045  -2.780  24.778  0.00  0.00    +0.000 C 
ATOM      6  C   UNL     1       7.692  -3.542  24.753  0.00  0.00    +0.000 C 
ATOM      7  N   UNL     1       6.775  -2.921  23.796  0.00  0.00    +0.000 N 
ATOM      8  C   UNL     1       6.714  -3.267  22.450  0.00  0.00    +0.000 C 
ATOM      9  O   UNL     1       6.197  -2.500  21.631  0.00  0.00    +0.000 OA
ATOM     10  C   UNL     1       6.414  -1.536  24.177  0.00  0.00    +0.000 C 
ATOM     11  C   UNL     1       7.639  -0.757  24.723  0.00  0.00    +0.000 C 
BRANCH   8  12
ATOM     12  C   UNL     1       7.115  -4.648  21.966  0.00  0.00    +0.000 C 
ATOM     13 CL   UNL     1       5.964  -5.924  22.371  0.00  0.00    +0.000 Cl
ENDBRANCH   8  12
ENDBRANCH   1   4
BRANCH   1  17
ATOM     14  C   UNL     1       6.777   1.171  20.343  0.00  0.00    +0.000 A 
ATOM     15  C   UNL     1       7.591   0.171  19.814  0.00  0.00    +0.000 A 
ATOM     16  C   UNL     1       8.610  -0.380  20.603  0.00  0.00    +0.000 A 
ATOM     17  C   UNL     1       8.821   0.111  21.896  0.00  0.00    +0.000 A 
ATOM     18  C   UNL     1       8.181   1.290  22.293  0.00  0.00    +0.000 A 
ATOM     19  C   UNL     1       7.130   1.801  21.533  0.00  0.00    +0.000 A 
BRANCH  14  21
ATOM     20  C   UNL     1       5.609   0.948  18.356  0.00  0.00    +0.000 C 
ATOM     21  O   UNL     1       5.626   1.500  19.682  0.00  0.00    +0.000 OA
ENDBRANCH  14  21
ENDBRANCH   1  17
TORSDOF 4
ENDMDL
MODEL 6
REMARK VINA RESULT:      -6.1      2.816      5.135
REMARK  Name = 
REMARK  5 active torsions:
REMARK  status: ('A' for Active; 'I' for Inactive)
REMARK    1  A    between atoms: C_1  and  O_2
REMARK    2  A    between atoms: O_2  and  C_3
REMARK    3  A    between atoms: C_6  and  S_7
REMARK    4  A    between atoms: S_7  and  N_10
REMARK    5  A    between atoms: C_14  and  C_16
REMARK                            x       y       z     vdW  Elec       q    Type
REMARK                         _______ _______ _______ _____ _____    ______ ____
ROOT
ATOM      1  S   UNL     1       9.297  -2.120  23.315  0.00  0.00    +0.000 S 
ATOM      2  O   UNL     1       8.383  -1.811  22.235  0.00  0.00    +0.000 OA
ATOM      3  O   UNL     1      10.690  -2.394  23.060  0.00  0.00    +0.000 OA
ENDROOT
BRANCH   1   4
ATOM      4  N   UNL     1       9.211  -0.844  24.417  0.00  0.00    +0.000 NA
ATOM      5  C   UNL     1       7.923  -0.192  24.786  0.00  0.00    +0.000 C 
ATOM      6  C   UNL     1       8.035   1.351  24.651  0.00  0.00    +0.000 C 
ATOM      7  N   UNL     1       9.142   1.706  23.763  0.00  0.00    +0.000 N 
ATOM      8  C   UNL     1       9.012   1.841  22.384  0.00  0.00    +0.000 C 
ATOM      9  O   UNL     1      10.009   1.793  21.656  0.00  0.00    +0.000 OA
ATOM     10  C   UNL     1      10.456   1.284  24.300  0.00  0.00    +0.000 C 
ATOM     11  C   UNL     1      10.381  -0.121  24.952  0.00  0.00    +0.000 C 
BRANCH   8  12
ATOM     12  C   UNL     1       7.689   2.220  21.745  0.00  0.00    +0.000 C 
ATOM     13 CL   UNL     1       7.069   1.031  20.596  0.00  0.00    +0.000 Cl
ENDBRANCH   8  12
ENDBRANCH   1   4
BRANCH   1  17
ATOM     14  C   UNL     1       7.251  -5.413  25.691  0.00  0.00    +0.000 A 
ATOM     15  C   UNL     1       8.549  -5.047  26.041  0.00  0.00    +0.000 A 
ATOM     16  C   UNL     1       9.229  -4.094  25.269  0.00  0.00    +0.000 A 
ATOM     17  C   UNL     1       8.610  -3.556  24.136  0.00  0.00    +0.000 A 
ATOM     18  C   UNL     1       7.434  -4.142  23.656  0.00  0.00    +0.000 A 
ATOM     19  C   UNL     1       6.732  -5.046  24.453  0.00  0.00    +0.000 A 
BRANCH  14  21
ATOM     20  C   UNL     1       5.136  -5.674  26.597  0.00  0.00    +0.000 C 
ATOM     21  O   UNL     1       6.502  -6.119  26.592  0.00  0.00    +0.000 OA
ENDBRANCH  14  21
ENDBRANCH   1  17
TORSDOF 4
ENDMDL
MODEL 7
REMARK VINA RESULT:      -6.0      3.075      5.057
REMARK  Name = 
REMARK  5 active torsions:
REMARK  status: ('A' for Active; 'I' for Inactive)
REMARK    1  A    between atoms: C_1  and  O_2
REMARK    2  A    between atoms: O_2  and  C_3
REMARK    3  A    between atoms: C_6  and  S_7
REMARK    4  A    between atoms: S_7  and  N_10
REMARK    5  A    between atoms: C_14  and  C_16
REMARK                            x       y       z     vdW  Elec       q    Type
REMARK                         _______ _______ _______ _____ _____    ______ ____
ROOT
ATOM      1  S   UNL     1       8.761  -2.861  24.121  0.00  0.00    +0.000 S 
ATOM      2  O   UNL     1      10.080  -3.458  24.083  0.00  0.00    +0.000 OA
ATOM      3  O   UNL     1       8.360  -2.003  25.208  0.00  0.00    +0.000 OA
ENDROOT
BRANCH   1   4
ATOM      4  N   UNL     1       8.566  -2.002  22.681  0.00  0.00    +0.000 NA
ATOM      5  C   UNL     1       9.717  -1.427  21.930  0.00  0.00    +0.000 C 
ATOM      6  C   UNL     1       9.459   0.068  21.600  0.00  0.00    +0.000 C 
ATOM      7  N   UNL     1       8.446   0.622  22.499  0.00  0.00    +0.000 N 
ATOM      8  C   UNL     1       8.740   1.199  23.731  0.00  0.00    +0.000 C 
ATOM      9  O   UNL     1       7.858   1.327  24.586  0.00  0.00    +0.000 OA
ATOM     10  C   UNL     1       7.126  -0.028  22.332  0.00  0.00    +0.000 C 
ATOM     11  C   UNL     1       7.265  -1.561  22.141  0.00  0.00    +0.000 C 
BRANCH   8  12
ATOM     12  C   UNL     1      10.087   1.841  24.005  0.00  0.00    +0.000 C 
ATOM     13 CL   UNL     1      11.304   0.735  24.647  0.00  0.00    +0.000 Cl
ENDBRANCH   8  12
ENDBRANCH   1   4
BRANCH   1  17
ATOM     14  C   UNL     1       5.465  -5.977  23.797  0.00  0.00    +0.000 A 
ATOM     15  C   UNL     1       5.785  -5.474  25.056  0.00  0.00    +0.000 A 
ATOM     16  C   UNL     1       6.854  -4.576  25.189  0.00  0.00    +0.000 A 
ATOM     17  C   UNL     1       7.608  -4.231  24.063  0.00  0.00    +0.000 A 
ATOM     18  C   UNL     1       7.442  -4.958  22.880  0.00  0.00    +0.000 A 
ATOM     19  C   UNL     1       6.345  -5.805  22.732  0.00  0.00    +0.000 A 
BRANCH  14  21
ATOM     20  C   UNL     1       3.805  -7.188  24.865  0.00  0.00    +0.000 C 
ATOM     21  O   UNL     1       4.268  -6.618  23.630  0.00  0.00    +0.000 OA
ENDBRANCH  14  21
ENDBRANCH   1  17
TORSDOF 4
ENDMDL
MODEL 8
REMARK VINA RESULT:      -5.9      3.338      4.920
REMARK  Name = 
REMARK  5 active torsions:
REMARK  status: ('A' for Active; 'I' for Inactive)
REMARK    1  A    between atoms: C_1  and  O_2
REMARK    2  A    between atoms: O_2  and  C_3
REMARK    3  A    between atoms: C_6  and  S_7
REMARK    4  A    between atoms: S_7  and  N_10
REMARK    5  A    between atoms: C_14  and  C_16
REMARK                            x       y       z     vdW  Elec       q    Type
REMARK                         _______ _______ _______ _____ _____    ______ ____
ROOT
ATOM      1  S   UNL     1       9.622  -1.345  23.280  0.00  0.00    +0.000 S 
ATOM      2  O   UNL     1      10.137  -1.539  24.619  0.00  0.00    +0.000 OA
ATOM      3  O   UNL     1      10.337  -1.833  22.127  0.00  0.00    +0.000 OA
ENDROOT
BRANCH   1   4
ATOM      4  N   UNL     1       8.068  -2.005  23.247  0.00  0.00    +0.000 NA
ATOM      5  C   UNL     1       7.103  -1.834  24.369  0.00  0.00    +0.000 C 
ATOM      6  C   UNL     1       6.512  -3.206  24.792  0.00  0.00    +0.000 C 
ATOM      7  N   UNL     1       7.384  -4.295  24.351  0.00  0.00    +0.000 N 
ATOM      8  C   UNL     1       8.439  -4.794  25.108  0.00  0.00    +0.000 C 
ATOM      9  O   UNL     1       9.339  -5.447  24.570  0.00  0.00    +0.000 OA
ATOM     10  C   UNL     1       7.487  -4.374  22.875  0.00  0.00    +0.000 C 
ATOM     11  C   UNL     1       7.589  -2.966  22.235  0.00  0.00    +0.000 C 
BRANCH   8  12
ATOM     12  C   UNL     1       8.439  -4.708  26.623  0.00  0.00    +0.000 C 
ATOM     13 CL   UNL     1       7.120  -5.585  27.402  0.00  0.00    +0.000 Cl
ENDBRANCH   8  12
ENDBRANCH   1   4
BRANCH   1  17
ATOM     14  C   UNL     1       8.653   3.090  23.020  0.00  0.00    +0.000 A 
ATOM     15  C   UNL     1       8.517   2.310  21.874  0.00  0.00    +0.000 A 
ATOM     16  C   UNL     1       8.891   0.959  21.910  0.00  0.00    +0.000 A 
ATOM     17  C   UNL     1       9.432   0.426  23.084  0.00  0.00    +0.000 A 
ATOM     18  C   UNL     1       9.812   1.290  24.116  0.00  0.00    +0.000 A 
ATOM     19  C   UNL     1       9.389   2.618  24.103  0.00  0.00    +0.000 A 
BRANCH  14  21
ATOM     20  C   UNL     1       6.764   4.229  23.727  0.00  0.00    +0.000 C 
ATOM     21  O   UNL     1       8.034   4.310  23.062  0.00  0.00    +0.000 OA
ENDBRANCH  14  21
ENDBRANCH   1  17
TORSDOF 4
ENDMDL
MODEL 9
REMARK VINA RESULT:      -5.9      3.661      5.418
REMARK  Name = 
REMARK  5 active torsions:
REMARK  status: ('A' for Active; 'I' for Inactive)
REMARK    1  A    between atoms: C_1  and  O_2
REMARK    2  A    between atoms: O_2  and  C_3
REMARK    3  A    between atoms: C_6  and  S_7
REMARK    4  A    between atoms: S_7  and  N_10
REMARK    5  A    between atoms: C_14  and  C_16
REMARK                            x       y       z     vdW  Elec       q    Type
REMARK                         _______ _______ _______ _____ _____    ______ ____
ROOT
ATOM      1  S   UNL     1       8.482  -4.213  25.473  0.00  0.00    +0.000 S 
ATOM      2  O   UNL     1       8.931  -4.356  26.842  0.00  0.00    +0.000 OA
ATOM      3  O   UNL     1       8.922  -5.123  24.444  0.00  0.00    +0.000 OA
ENDROOT
BRANCH   1   4
ATOM      4  N   UNL     1       6.794  -4.236  25.501  0.00  0.00    +0.000 NA
ATOM      5  C   UNL     1       6.004  -5.436  25.106  0.00  0.00    +0.000 C 
ATOM      6  C   UNL     1       4.909  -5.052  24.074  0.00  0.00    +0.000 C 
ATOM      7  N   UNL     1       5.249  -3.791  23.416  0.00  0.00    +0.000 N 
ATOM      8  C   UNL     1       6.019  -3.707  22.260  0.00  0.00    +0.000 C 
ATOM      9  O   UNL     1       6.562  -2.642  21.948  0.00  0.00    +0.000 OA
ATOM     10  C   UNL     1       5.284  -2.651  24.361  0.00  0.00    +0.000 C 
ATOM     11  C   UNL     1       5.945  -3.047  25.707  0.00  0.00    +0.000 C 
BRANCH   8  12
ATOM     12  C   UNL     1       6.082  -4.849  21.263  0.00  0.00    +0.000 C 
ATOM     13 CL   UNL     1       7.296  -6.075  21.635  0.00  0.00    +0.000 Cl
ENDBRANCH   8  12
ENDBRANCH   1   4
BRANCH   1  17
ATOM     14  C   UNL     1      10.207  -0.150  24.381  0.00  0.00    +0.000 A 
ATOM     15  C   UNL     1       9.447  -0.261  25.543  0.00  0.00    +0.000 A 
ATOM     16  C   UNL     1       8.835  -1.484  25.854  0.00  0.00    +0.000 A 
ATOM     17  C   UNL     1       8.965  -2.563  24.973  0.00  0.00    +0.000 A 
ATOM     18  C   UNL     1       9.491  -2.342  23.696  0.00  0.00    +0.000 A 
ATOM     19  C   UNL     1      10.148  -1.146  23.411  0.00  0.00    +0.000 A 
BRANCH  14  21
ATOM     20  C   UNL     1      10.261   2.114  23.898  0.00  0.00    +0.000 C 
ATOM     21  O   UNL     1      11.019   0.940  24.229  0.00  0.00    +0.000 OA
ENDBRANCH  14  21
ENDBRANCH   1  17
TORSDOF 4
ENDMDL
