MODEL 1
REMARK VINA RESULT:      -6.6      0.000      0.000
REMARK  Name = 
REMARK  4 active torsions:
REMARK  status: ('A' for Active; 'I' for Inactive)
REMARK    1  A    between atoms: C_1  and  C_2
REMARK    2  A    between atoms: C_7  and  C_8
REMARK    3  A    between atoms: C_8  and  N_9
REMARK    4  A    between atoms: C_13  and  C_15
REMARK                            x       y       z     vdW  Elec       q    Type
REMARK                         _______ _______ _______ _____ _____    ______ ____
ROOT
ATOM      1  N   UNL     1       8.826  -0.587  22.277  0.00  0.00    +0.000 NA
ATOM      2  C   UNL     1       7.670  -0.778  23.154  0.00  0.00    +0.000 C 
ATOM      3  C   UNL     1       7.607  -2.249  23.617  0.00  0.00    +0.000 C 
ATOM      4  N   UNL     1       8.884  -2.796  24.108  0.00  0.00    +0.000 N 
ATOM      5  C   UNL     1       8.985  -4.101  24.611  0.00  0.00    +0.000 C 
ATOM      6  O   UNL     1      10.077  -4.666  24.729  0.00  0.00    +0.000 OA
ATOM      7  C   UNL     1      10.106  -2.299  23.460  0.00  0.00    +0.000 C 
ATOM      8  C   UNL     1      10.055  -0.823  23.034  0.00  0.00    +0.000 C 
ENDROOT
BRANCH   5   9
ATOM      9  C   UNL     1       7.719  -4.825  25.031  0.00  0.00    +0.000 C 
ATOM     10 CL   UNL     1       7.830  -5.291  26.740  0.00  0.00    +0.000 Cl
ENDBRANCH   5   9
BRANCH   1  11
ATOM     11  C   UNL     1       8.817   0.648  21.507  0.00  0.00    +0.000 C 
BRANCH  11  18
ATOM     12  C   UNL     1       6.314   2.494  21.795  0.00  0.00    +0.000 C 
ATOM     13  C   UNL     1       6.517   1.540  20.647  0.00  0.00    +0.000 A 
ATOM     14  C   UNL     1       5.493   1.467  19.686  0.00  0.00    +0.000 A 
ATOM     15  C   UNL     1       5.580   0.597  18.602  0.00  0.00    +0.000 A 
ATOM     16  C   UNL     1       6.698  -0.212  18.458  0.00  0.00    +0.000 A 
ATOM     17  C   UNL     1       7.735  -0.141  19.390  0.00  0.00    +0.000 A 
ATOM     18  C   UNL     1       7.677   0.735  20.494  0.00  0.00    +0.000 A 
ENDBRANCH  11  18
ENDBRANCH   1  11
TORSDOF 3
ENDMDL
MODEL 2
REMARK VINA RESULT:      -6.0      2.066      3.582
REMARK  Name = 
REMARK  4 active torsions:
REMARK  status: ('A' for Active; 'I' for Inactive)
REMARK    1  A    between atoms: C_1  and  C_2
REMARK    2  A    between atoms: C_7  and  C_8
REMARK    3  A    between atoms: C_8  and  N_9
REMARK    4  A    between atoms: C_13  and  C_15
REMARK                            x       y       z     vdW  Elec       q    Type
REMARK                         _______ _______ _______ _____ _____    ______ ____
ROOT
ATOM      1  N   UNL     1       9.119  -2.506  23.044  0.00  0.00    +0.000 NA
ATOM      2  C   UNL     1       7.782  -2.000  23.357  0.00  0.00    +0.000 C 
ATOM      3  C   UNL     1       6.916  -3.141  23.931  0.00  0.00    +0.000 C 
ATOM      4  N   UNL     1       7.565  -3.938  24.988  0.00  0.00    +0.000 N 
ATOM      5  C   UNL     1       6.896  -4.979  25.646  0.00  0.00    +0.000 C 
ATOM      6  O   UNL     1       7.509  -5.836  26.290  0.00  0.00    +0.000 OA
ATOM      7  C   UNL     1       9.018  -4.128  24.868  0.00  0.00    +0.000 C 
ATOM      8  C   UNL     1       9.779  -2.931  24.278  0.00  0.00    +0.000 C 
ENDROOT
BRANCH   5   9
ATOM      9  C   UNL     1       5.382  -5.041  25.570  0.00  0.00    +0.000 C 
ATOM     10 CL   UNL     1       4.880  -6.489  24.675  0.00  0.00    +0.000 Cl
ENDBRANCH   5   9
BRANCH   1  11
ATOM     11  C   UNL     1       9.922  -1.639  22.196  0.00  0.00    +0.000 C 
BRANCH  11  18
ATOM     12  C   UNL     1       8.220   0.398  20.549  0.00  0.00    +0.000 C 
ATOM     13  C   UNL     1       9.046   0.781  21.748  0.00  0.00    +0.000 A 
ATOM     14  C   UNL     1       9.067   2.142  22.103  0.00  0.00    +0.000 A 
ATOM     15  C   UNL     1       9.821   2.596  23.181  0.00  0.00    +0.000 A 
ATOM     16  C   UNL     1      10.565   1.694  23.929  0.00  0.00    +0.000 A 
ATOM     17  C   UNL     1      10.543   0.335  23.606  0.00  0.00    +0.000 A 
ATOM     18  C   UNL     1       9.782  -0.153  22.523  0.00  0.00    +0.000 A 
ENDBRANCH  11  18
ENDBRANCH   1  11
TORSDOF 3
ENDMDL
MODEL 3
REMARK VINA RESULT:      -5.9      1.879      3.330
REMARK  Name = 
REMARK  4 active torsions:
REMARK  status: ('A' for Active; 'I' for Inactive)
REMARK    1  A    between atoms: C_1  and  C_2
REMARK    2  A    between atoms: C_7  and  C_8
REMARK    3  A    between atoms: C_8  and  N_9
REMARK    4  A    between atoms: C_13  and  C_15
REMARK                            x       y       z     vdW  Elec       q    Type
REMARK                         _______ _______ _______ _____ _____    ______ ____
ROOT
ATOM      1  N   UNL     1       9.157  -0.779  22.347  0.00  0.00    +0.000 NA
ATOM      2  C   UNL     1      10.284  -1.619  22.754  0.00  0.00    +0.000 C 
ATOM      3  C   UNL     1       9.826  -2.611  23.844  0.00  0.00    +0.000 C 
ATOM      4  N   UNL     1       8.570  -3.322  23.543  0.00  0.00    +0.000 N 
ATOM      5  C   UNL     1       8.044  -4.292  24.408  0.00  0.00    +0.000 C 
ATOM      6  O   UNL     1       6.867  -4.658  24.329  0.00  0.00    +0.000 OA
ATOM      7  C   UNL     1       7.559  -2.577  22.779  0.00  0.00    +0.000 C 
ATOM      8  C   UNL     1       8.128  -1.613  21.726  0.00  0.00    +0.000 C 
ENDROOT
BRANCH   5   9
ATOM      9  C   UNL     1       8.953  -4.913  25.453  0.00  0.00    +0.000 C 
ATOM     10 CL   UNL     1       8.030  -5.248  26.932  0.00  0.00    +0.000 Cl
ENDBRANCH   5   9
BRANCH   1  11
ATOM     11  C   UNL     1       9.516   0.407  21.585  0.00  0.00    +0.000 C 
BRANCH  11  18
ATOM     12  C   UNL     1       6.788   1.916  21.392  0.00  0.00    +0.000 C 
ATOM     13  C   UNL     1       7.970   2.429  22.173  0.00  0.00    +0.000 A 
ATOM     14  C   UNL     1       7.825   3.675  22.809  0.00  0.00    +0.000 A 
ATOM     15  C   UNL     1       8.870   4.242  23.533  0.00  0.00    +0.000 A 
ATOM     16  C   UNL     1      10.079   3.568  23.639  0.00  0.00    +0.000 A 
ATOM     17  C   UNL     1      10.237   2.320  23.031  0.00  0.00    +0.000 A 
ATOM     18  C   UNL     1       9.193   1.719  22.297  0.00  0.00    +0.000 A 
ENDBRANCH  11  18
ENDBRANCH   1  11
TORSDOF 3
ENDMDL
MODEL 4
REMARK VINA RESULT:      -5.8      2.744      3.990
REMARK  Name = 
REMARK  4 active torsions:
REMARK  status: ('A' for Active; 'I' for Inactive)
REMARK    1  A    between atoms: C_1  and  C_2
REMARK    2  A    between atoms: C_7  and  C_8
REMARK    3  A    between atoms: C_8  and  N_9
REMARK    4  A    between atoms: C_13  and  C_15
REMARK                            x       y       z     vdW  Elec       q    Type
REMARK                         _______ _______ _______ _____ _____    ______ ____
ROOT
ATOM      1  N   UNL     1       7.859  -0.369  21.278  0.00  0.00    +0.000 NA
ATOM      2  C   UNL     1       8.801  -1.448  21.581  0.00  0.00    +0.000 C 
ATOM      3  C   UNL     1       8.089  -2.544  22.401  0.00  0.00    +0.000 C 
ATOM      4  N   UNL     1       6.782  -2.964  21.866  0.00  0.00    +0.000 N 
ATOM      5  C   UNL     1       6.030  -3.985  22.467  0.00  0.00    +0.000 C 
ATOM      6  O   UNL     1       4.827  -4.128  22.227  0.00  0.00    +0.000 OA
ATOM      7  C   UNL     1       5.978  -1.927  21.205  0.00  0.00    +0.000 C 
ATOM      8  C   UNL     1       6.790  -0.884  20.421  0.00  0.00    +0.000 C 
ENDROOT
BRANCH   5   9
ATOM      9  C   UNL     1       6.722  -4.939  23.423  0.00  0.00    +0.000 C 
ATOM     10 CL   UNL     1       7.638  -6.152  22.506  0.00  0.00    +0.000 Cl
ENDBRANCH   5   9
BRANCH   1  11
ATOM     11  C   UNL     1       8.467   0.867  20.811  0.00  0.00    +0.000 C 
BRANCH  11  18
ATOM     12  C   UNL     1       6.433   2.921  21.995  0.00  0.00    +0.000 C 
ATOM     13  C   UNL     1       7.871   2.825  22.434  0.00  0.00    +0.000 A 
ATOM     14  C   UNL     1       8.308   3.747  23.403  0.00  0.00    +0.000 A 
ATOM     15  C   UNL     1       9.625   3.752  23.853  0.00  0.00    +0.000 A 
ATOM     16  C   UNL     1      10.529   2.829  23.345  0.00  0.00    +0.000 A 
ATOM     17  C   UNL     1      10.111   1.893  22.397  0.00  0.00    +0.000 A 
ATOM     18  C   UNL     1       8.782   1.860  21.928  0.00  0.00    +0.000 A 
ENDBRANCH  11  18
ENDBRANCH   1  11
TORSDOF 3
ENDMDL
MODEL 5
REMARK VINA RESULT:      -5.5      3.591      5.946
REMARK  Name = 
REMARK  4 active torsions:
REMARK  status: ('A' for Active; 'I' for Inactive)
REMARK    1  A    between atoms: C_1  and  C_2
REMARK    2  A    between atoms: C_7  and  C_8
REMARK    3  A    between atoms: C_8  and  N_9
REMARK    4  A    between atoms: C_13  and  C_15
REMARK                            x       y       z     vdW  Elec       q    Type
REMARK                         _______ _______ _______ _____ _____    ______ ____
ROOT
ATOM      1  N   UNL     1       7.032  -1.762  22.374  0.00  0.00    +0.000 NA
ATOM      2  C   UNL     1       7.111  -0.432  21.770  0.00  0.00    +0.000 C 
ATOM      3  C   UNL     1       7.803   0.542  22.747  0.00  0.00    +0.000 C 
ATOM      4  N   UNL     1       9.051   0.033  23.344  0.00  0.00    +0.000 N 
ATOM      5  C   UNL     1       9.826   0.813  24.214  0.00  0.00    +0.000 C 
ATOM      6  O   UNL     1      10.679   0.307  24.950  0.00  0.00    +0.000 OA
ATOM      7  C   UNL     1       9.113  -1.412  23.606  0.00  0.00    +0.000 C 
ATOM      8  C   UNL     1       8.383  -2.286  22.573  0.00  0.00    +0.000 C 
ENDROOT
BRANCH   5   9
ATOM      9  C   UNL     1       9.616   2.316  24.235  0.00  0.00    +0.000 C 
ATOM     10 CL   UNL     1      10.927   3.121  23.352  0.00  0.00    +0.000 Cl
ENDBRANCH   5   9
BRANCH   1  11
ATOM     11  C   UNL     1       6.117  -2.683  21.718  0.00  0.00    +0.000 C 
BRANCH  11  18
ATOM     12  C   UNL     1       6.547  -5.730  21.179  0.00  0.00    +0.000 C 
ATOM     13  C   UNL     1       5.774  -5.194  22.355  0.00  0.00    +0.000 A 
ATOM     14  C   UNL     1       5.191  -6.135  23.222  0.00  0.00    +0.000 A 
ATOM     15  C   UNL     1       4.438  -5.735  24.322  0.00  0.00    +0.000 A 
ATOM     16  C   UNL     1       4.259  -4.383  24.579  0.00  0.00    +0.000 A 
ATOM     17  C   UNL     1       4.845  -3.432  23.741  0.00  0.00    +0.000 A 
ATOM     18  C   UNL     1       5.619  -3.808  22.624  0.00  0.00    +0.000 A 
ENDBRANCH  11  18
ENDBRANCH   1  11
TORSDOF 3
ENDMDL
MODEL 6
REMARK VINA RESULT:      -5.5      3.249      4.540
REMARK  Name = 
REMARK  4 active torsions:
REMARK  status: ('A' for Active; 'I' for Inactive)
REMARK    1  A    between atoms: C_1  and  C_2
REMARK    2  A    between atoms: C_7  and  C_8
REMARK    3  A    between atoms: C_8  and  N_9
REMARK    4  A    between atoms: C_13  and  C_15
REMARK                            x       y       z     vdW  Elec       q    Type
REMARK                         _______ _______ _______ _____ _____    ______ ____
ROOT
ATOM      1  N   UNL     1       9.013  -1.487  23.898  0.00  0.00    +0.000 NA
ATOM      2  C   UNL     1       9.111  -2.928  24.135  0.00  0.00    +0.000 C 
ATOM      3  C   UNL     1       7.803  -3.618  23.693  0.00  0.00    +0.000 C 
ATOM      4  N   UNL     1       7.315  -3.218  22.361  0.00  0.00    +0.000 N 
ATOM      5  C   UNL     1       6.167  -3.789  21.792  0.00  0.00    +0.000 C 
ATOM      6  O   UNL     1       5.582  -3.255  20.844  0.00  0.00    +0.000 OA
ATOM      7  C   UNL     1       7.564  -1.826  21.960  0.00  0.00    +0.000 C 
ATOM      8  C   UNL     1       8.892  -1.238  22.461  0.00  0.00    +0.000 C 
ENDROOT
BRANCH   5   9
ATOM      9  C   UNL     1       5.646  -5.100  22.351  0.00  0.00    +0.000 C 
ATOM     10 CL   UNL     1       4.107  -4.827  23.192  0.00  0.00    +0.000 Cl
ENDBRANCH   5   9
BRANCH   1  11
ATOM     11  C   UNL     1      10.021  -0.682  24.569  0.00  0.00    +0.000 C 
BRANCH  11  18
ATOM     12  C   UNL     1       7.606   0.741  25.948  0.00  0.00    +0.000 C 
ATOM     13  C   UNL     1       8.625   1.460  25.103  0.00  0.00    +0.000 A 
ATOM     14  C   UNL     1       8.435   2.840  24.908  0.00  0.00    +0.000 A 
ATOM     15  C   UNL     1       9.310   3.586  24.123  0.00  0.00    +0.000 A 
ATOM     16  C   UNL     1      10.397   2.964  23.523  0.00  0.00    +0.000 A 
ATOM     17  C   UNL     1      10.614   1.598  23.720  0.00  0.00    +0.000 A 
ATOM     18  C   UNL     1       9.748   0.820  24.515  0.00  0.00    +0.000 A 
ENDBRANCH  11  18
ENDBRANCH   1  11
TORSDOF 3
ENDMDL
MODEL 7
REMARK VINA RESULT:      -5.5      2.332      3.088
REMARK  Name = 
REMARK  4 active torsions:
REMARK  status: ('A' for Active; 'I' for Inactive)
REMARK    1  A    between atoms: C_1  and  C_2
REMARK    2  A    between atoms: C_7  and  C_8
REMARK    3  A    between atoms: C_8  and  N_9
REMARK    4  A    between atoms: C_13  and  C_15
REMARK                            x       y       z     vdW  Elec       q    Type
REMARK                         _______ _______ _______ _____ _____    ______ ____
ROOT
ATOM      1  N   UNL     1       8.907  -0.499  24.975  0.00  0.00    +0.000 NA
ATOM      2  C   UNL     1       8.785  -0.996  26.346  0.00  0.00    +0.000 C 
ATOM      3  C   UNL     1       8.276  -2.453  26.327  0.00  0.00    +0.000 C 
ATOM      4  N   UNL     1       8.979  -3.340  25.382  0.00  0.00    +0.000 N 
ATOM      5  C   UNL     1       8.670  -4.704  25.278  0.00  0.00    +0.000 C 
ATOM      6  O   UNL     1       9.018  -5.373  24.300  0.00  0.00    +0.000 OA
ATOM      7  C   UNL     1       9.450  -2.727  24.132  0.00  0.00    +0.000 C 
ATOM      8  C   UNL     1       9.927  -1.272  24.267  0.00  0.00    +0.000 C 
ENDROOT
BRANCH   5   9
ATOM      9  C   UNL     1       7.903  -5.369  26.406  0.00  0.00    +0.000 C 
ATOM     10 CL   UNL     1       6.237  -5.698  25.890  0.00  0.00    +0.000 Cl
ENDBRANCH   5   9
BRANCH   1  11
ATOM     11  C   UNL     1       9.048   0.943  24.854  0.00  0.00    +0.000 C 
BRANCH  11  18
ATOM     12  C   UNL     1       9.957   1.726  21.969  0.00  0.00    +0.000 C 
ATOM     13  C   UNL     1       8.566   1.963  22.497  0.00  0.00    +0.000 A 
ATOM     14  C   UNL     1       7.657   2.608  21.640  0.00  0.00    +0.000 A 
ATOM     15  C   UNL     1       6.357   2.892  22.047  0.00  0.00    +0.000 A 
ATOM     16  C   UNL     1       5.940   2.530  23.321  0.00  0.00    +0.000 A 
ATOM     17  C   UNL     1       6.821   1.872  24.181  0.00  0.00    +0.000 A 
ATOM     18  C   UNL     1       8.142   1.565  23.793  0.00  0.00    +0.000 A 
ENDBRANCH  11  18
ENDBRANCH   1  11
TORSDOF 3
ENDMDL
MODEL 8
REMARK VINA RESULT:      -5.5      3.729      6.542
REMARK  Name = 
REMARK  4 active torsions:
REMARK  status: ('A' for Active; 'I' for Inactive)
REMARK    1  A    between atoms: C_1  and  C_2
REMARK    2  A    between atoms: C_7  and  C_8
REMARK    3  A    between atoms: C_8  and  N_9
REMARK    4  A    between atoms: C_13  and  C_15
REMARK                            x       y       z     vdW  Elec       q    Type
REMARK                         _______ _______ _______ _____ _____    ______ ____
ROOT
ATOM      1  N   UNL     1       8.605  -3.053  23.871  0.00  0.00    +0.000 NA
ATOM      2  C   UNL     1       9.941  -2.457  23.842  0.00  0.00    +0.000 C 
ATOM      3  C   UNL     1       9.908  -1.148  23.026  0.00  0.00    +0.000 C 
ATOM      4  N   UNL     1       8.803  -0.234  23.370  0.00  0.00    +0.000 N 
ATOM      5  C   UNL     1       8.660   1.018  22.755  0.00  0.00    +0.000 C 
ATOM      6  O   UNL     1       7.596   1.643  22.800  0.00  0.00    +0.000 OA
ATOM      7  C   UNL     1       7.537  -0.858  23.779  0.00  0.00    +0.000 C 
ATOM      8  C   UNL     1       7.689  -2.160  24.581  0.00  0.00    +0.000 C 
ENDROOT
BRANCH   5   9
ATOM      9  C   UNL     1       9.851   1.620  22.031  0.00  0.00    +0.000 C 
ATOM     10 CL   UNL     1      10.686   2.769  23.094  0.00  0.00    +0.000 Cl
ENDBRANCH   5   9
BRANCH   1  11
ATOM     11  C   UNL     1       8.559  -4.439  24.309  0.00  0.00    +0.000 C 
BRANCH  11  18
ATOM     12  C   UNL     1       6.868  -5.260  26.804  0.00  0.00    +0.000 C 
ATOM     13  C   UNL     1       6.414  -5.474  25.384  0.00  0.00    +0.000 A 
ATOM     14  C   UNL     1       5.176  -6.115  25.197  0.00  0.00    +0.000 A 
ATOM     15  C   UNL     1       4.685  -6.378  23.921  0.00  0.00    +0.000 A 
ATOM     16  C   UNL     1       5.422  -5.999  22.808  0.00  0.00    +0.000 A 
ATOM     17  C   UNL     1       6.645  -5.344  22.972  0.00  0.00    +0.000 A 
ATOM     18  C   UNL     1       7.163  -5.059  24.251  0.00  0.00    +0.000 A 
ENDBRANCH  11  18
ENDBRANCH   1  11
TORSDOF 3
ENDMDL
MODEL 9
REMARK VINA RESULT:      -5.5      2.656      4.042
REMARK  Name = 
REMARK  4 active torsions:
REMARK  status: ('A' for Active; 'I' for Inactive)
REMARK    1  A    between atoms: C_1  and  C_2
REMARK    2  A    between atoms: C_7  and  C_8
REMARK    3  A    between atoms: C_8  and  N_9
REMARK    4  A    between atoms: C_13  and  C_15
REMARK                            x       y       z     vdW  Elec       q    Type
REMARK                         _______ _______ _______ _____ _____    ______ ____
ROOT
ATOM      1  N   UNL     1       8.808  -2.820  24.274  0.00  0.00    +0.000 NA
ATOM      2  C   UNL     1       8.998  -3.098  25.698  0.00  0.00    +0.000 C 
ATOM      3  C   UNL     1       7.625  -3.215  26.392  0.00  0.00    +0.000 C 
ATOM      4  N   UNL     1       6.651  -4.075  25.694  0.00  0.00    +0.000 N 
ATOM      5  C   UNL     1       5.375  -4.325  26.219  0.00  0.00    +0.000 C 
ATOM      6  O   UNL     1       4.463  -4.771  25.516  0.00  0.00    +0.000 OA
ATOM      7  C   UNL     1       6.717  -4.084  24.226  0.00  0.00    +0.000 C 
ATOM      8  C   UNL     1       8.133  -3.955  23.643  0.00  0.00    +0.000 C 
ENDROOT
BRANCH   5   9
ATOM      9  C   UNL     1       5.121  -4.051  27.690  0.00  0.00    +0.000 C 
ATOM     10 CL   UNL     1       5.656  -5.436  28.662  0.00  0.00    +0.000 Cl
ENDBRANCH   5   9
BRANCH   1  11
ATOM     11  C   UNL     1       9.995  -2.356  23.573  0.00  0.00    +0.000 C 
BRANCH  11  18
ATOM     12  C   UNL     1      10.811   0.398  24.800  0.00  0.00    +0.000 C 
ATOM     13  C   UNL     1      10.143   0.250  23.459  0.00  0.00    +0.000 A 
ATOM     14  C   UNL     1       9.847   1.432  22.757  0.00  0.00    +0.000 A 
ATOM     15  C   UNL     1       9.209   1.397  21.520  0.00  0.00    +0.000 A 
ATOM     16  C   UNL     1       8.861   0.176  20.959  0.00  0.00    +0.000 A 
ATOM     17  C   UNL     1       9.163  -1.011  21.631  0.00  0.00    +0.000 A 
ATOM     18  C   UNL     1       9.815  -1.006  22.882  0.00  0.00    +0.000 A 
ENDBRANCH  11  18
ENDBRANCH   1  11
TORSDOF 3
ENDMDL
