MODEL 1
REMARK VINA RESULT:      -6.7      0.000      0.000
REMARK  Name = 
REMARK  4 active torsions:
REMARK  status: ('A' for Active; 'I' for Inactive)
REMARK    1  A    between atoms: C_2  and  C_3
REMARK    2  A    between atoms: C_2  and  N_5
REMARK    3  A    between atoms: N_8  and  S_9
REMARK    4  A    between atoms: S_9  and  C_12
REMARK                            x       y       z     vdW  Elec       q    Type
REMARK                         _______ _______ _______ _____ _____    ______ ____
ROOT
ATOM      1  S   UNL     1       7.783  -3.227  23.642  0.00  0.00    +0.000 S 
ATOM      2  O   UNL     1       8.777  -4.233  23.855  0.00  0.00    +0.000 OA
ATOM      3  O   UNL     1       6.915  -2.842  24.712  0.00  0.00    +0.000 OA
ENDROOT
BRANCH   1   4
ATOM      4  C   UNL     1       8.605  -1.745  23.037  0.00  0.00    +0.000 C 
ATOM      5  C   UNL     1       8.379  -1.332  21.739  0.00  0.00    +0.000 C 
ATOM      6  C   UNL     1       9.019  -0.197  21.270  0.00  0.00    +0.000 C 
ATOM      7  C   UNL     1       9.867   0.499  22.113  0.00  0.00    +0.000 C 
ATOM      8  F   UNL     1      10.482   1.594  21.648  0.00  0.00    +0.000 F 
ATOM      9  C   UNL     1      10.074   0.099  23.432  0.00  0.00    +0.000 C 
ATOM     10 CL   UNL     1      11.106   0.995  24.462  0.00  0.00    +0.000 Cl
ATOM     11  C   UNL     1       9.426  -1.038  23.893  0.00  0.00    +0.000 C 
ENDBRANCH   1   4
BRANCH   1  15
ATOM     12  N   UNL     1       5.041  -5.646  23.168  0.00  0.00    +0.000 NA
ATOM     13  C   UNL     1       5.769  -5.981  21.968  0.00  0.00    +0.000 C 
ATOM     14  C   UNL     1       7.043  -5.119  21.890  0.00  0.00    +0.000 C 
ATOM     15  N   UNL     1       6.801  -3.799  22.427  0.00  0.00    +0.000 NA
ATOM     16  C   UNL     1       5.437  -3.349  22.385  0.00  0.00    +0.000 C 
ATOM     17  C   UNL     1       4.499  -4.295  23.160  0.00  0.00    +0.000 C 
BRANCH  12  19
ATOM     18  O   UNL     1       4.437  -7.456  24.353  0.00  0.00    +0.000 OA
ATOM     19  C   UNL     1       4.970  -6.363  24.307  0.00  0.00    +0.000 C 
BRANCH  19  20
ATOM     20  C   UNL     1       5.672  -5.816  25.543  0.00  0.00    +0.000 C 
ATOM     21 CL   UNL     1       5.184  -6.634  27.048  0.00  0.00    +0.000 Cl
ENDBRANCH  19  20
ENDBRANCH  12  19
ENDBRANCH   1  15
TORSDOF 4
ENDMDL
MODEL 2
REMARK VINA RESULT:      -6.6      2.353      3.208
REMARK  Name = 
REMARK  4 active torsions:
REMARK  status: ('A' for Active; 'I' for Inactive)
REMARK    1  A    between atoms: C_2  and  C_3
REMARK    2  A    between atoms: C_2  and  N_5
REMARK    3  A    between atoms: N_8  and  S_9
REMARK    4  A    between atoms: S_9  and  C_12
REMARK                            x       y       z     vdW  Elec       q    Type
REMARK                         _______ _______ _______ _____ _____    ______ ____
ROOT
ATOM      1  S   UNL     1       8.828  -3.537  24.144  0.00  0.00    +0.000 S 
ATOM      2  O   UNL     1       7.840  -4.204  23.354  0.00  0.00    +0.000 OA
ATOM      3  O   UNL     1      10.059  -4.197  24.456  0.00  0.00    +0.000 OA
ENDROOT
BRANCH   1   4
ATOM      4  C   UNL     1       9.226  -1.975  23.345  0.00  0.00    +0.000 C 
ATOM      5  C   UNL     1      10.114  -1.113  23.956  0.00  0.00    +0.000 C 
ATOM      6  C   UNL     1      10.413   0.094  23.345  0.00  0.00    +0.000 C 
ATOM      7  C   UNL     1       9.818   0.407  22.136  0.00  0.00    +0.000 C 
ATOM      8  F   UNL     1      10.113   1.577  21.557  0.00  0.00    +0.000 F 
ATOM      9  C   UNL     1       8.943  -0.476  21.504  0.00  0.00    +0.000 C 
ATOM     10 CL   UNL     1       8.243  -0.076  19.995  0.00  0.00    +0.000 Cl
ATOM     11  C   UNL     1       8.653  -1.683  22.123  0.00  0.00    +0.000 C 
ENDBRANCH   1   4
BRANCH   1  15
ATOM     12  N   UNL     1       5.980  -4.687  26.186  0.00  0.00    +0.000 NA
ATOM     13  C   UNL     1       5.775  -3.273  26.392  0.00  0.00    +0.000 C 
ATOM     14  C   UNL     1       6.840  -2.486  25.607  0.00  0.00    +0.000 C 
ATOM     15  N   UNL     1       8.100  -3.194  25.600  0.00  0.00    +0.000 NA
ATOM     16  C   UNL     1       8.312  -4.098  26.697  0.00  0.00    +0.000 C 
ATOM     17  C   UNL     1       7.220  -5.183  26.764  0.00  0.00    +0.000 C 
BRANCH  12  19
ATOM     18  O   UNL     1       5.150  -6.698  25.632  0.00  0.00    +0.000 OA
ATOM     19  C   UNL     1       5.260  -5.510  25.398  0.00  0.00    +0.000 C 
BRANCH  19  20
ATOM     20  C   UNL     1       4.486  -4.896  24.239  0.00  0.00    +0.000 C 
ATOM     21 CL   UNL     1       4.779  -5.717  22.686  0.00  0.00    +0.000 Cl
ENDBRANCH  19  20
ENDBRANCH  12  19
ENDBRANCH   1  15
TORSDOF 4
ENDMDL
MODEL 3
REMARK VINA RESULT:      -6.5      2.859      3.472
REMARK  Name = 
REMARK  4 active torsions:
REMARK  status: ('A' for Active; 'I' for Inactive)
REMARK    1  A    between atoms: C_2  and  C_3
REMARK    2  A    between atoms: C_2  and  N_5
REMARK    3  A    between atoms: N_8  and  S_9
REMARK    4  A    between atoms: S_9  and  C_12
REMARK                            x       y       z     vdW  Elec       q    Type
REMARK                         _______ _______ _______ _____ _____    ______ ____
ROOT
ATOM      1  S   UNL     1       6.424  -3.932  22.837  0.00  0.00    +0.000 S 
ATOM      2  O   UNL     1       5.523  -4.133  21.744  0.00  0.00    +0.000 OA
ATOM      3  O   UNL     1       7.216  -5.020  23.321  0.00  0.00    +0.000 OA
ENDROOT
BRANCH   1   4
ATOM      4  C   UNL     1       7.539  -2.587  22.404  0.00  0.00    +0.000 C 
ATOM      5  C   UNL     1       8.827  -2.594  22.898  0.00  0.00    +0.000 C 
ATOM      6  C   UNL     1       9.682  -1.554  22.573  0.00  0.00    +0.000 C 
ATOM      7  C   UNL     1       9.227  -0.534  21.757  0.00  0.00    +0.000 C 
ATOM      8  F   UNL     1      10.062   0.467  21.450  0.00  0.00    +0.000 F 
ATOM      9  C   UNL     1       7.935  -0.541  21.233  0.00  0.00    +0.000 C 
ATOM     10 CL   UNL     1       7.408   0.719  20.202  0.00  0.00    +0.000 Cl
ATOM     11  C   UNL     1       7.088  -1.589  21.563  0.00  0.00    +0.000 C 
ENDBRANCH   1   4
BRANCH   1  15
ATOM     12  N   UNL     1       6.550  -3.835  26.521  0.00  0.00    +0.000 NA
ATOM     13  C   UNL     1       5.173  -4.251  26.411  0.00  0.00    +0.000 C 
ATOM     14  C   UNL     1       4.809  -4.415  24.924  0.00  0.00    +0.000 C 
ATOM     15  N   UNL     1       5.490  -3.427  24.118  0.00  0.00    +0.000 NA
ATOM     16  C   UNL     1       5.865  -2.218  24.799  0.00  0.00    +0.000 C 
ATOM     17  C   UNL     1       6.796  -2.500  25.994  0.00  0.00    +0.000 C 
BRANCH  12  19
ATOM     18  O   UNL     1       7.474  -5.670  27.428  0.00  0.00    +0.000 OA
ATOM     19  C   UNL     1       7.606  -4.591  26.881  0.00  0.00    +0.000 C 
BRANCH  19  20
ATOM     20  C   UNL     1       8.998  -4.109  26.494  0.00  0.00    +0.000 C 
ATOM     21 CL   UNL     1       9.863  -5.245  25.429  0.00  0.00    +0.000 Cl
ENDBRANCH  19  20
ENDBRANCH  12  19
ENDBRANCH   1  15
TORSDOF 4
ENDMDL
MODEL 4
REMARK VINA RESULT:      -6.4      2.287      2.741
REMARK  Name = 
REMARK  4 active torsions:
REMARK  status: ('A' for Active; 'I' for Inactive)
REMARK    1  A    between atoms: C_2  and  C_3
REMARK    2  A    between atoms: C_2  and  N_5
REMARK    3  A    between atoms: N_8  and  S_9
REMARK    4  A    between atoms: S_9  and  C_12
REMARK                            x       y       z     vdW  Elec       q    Type
REMARK                         _______ _______ _______ _____ _____    ______ ____
ROOT
ATOM      1  S   UNL     1       8.924  -2.952  24.775  0.00  0.00    +0.000 S 
ATOM      2  O   UNL     1       9.843  -3.991  24.427  0.00  0.00    +0.000 OA
ATOM      3  O   UNL     1       8.807  -2.528  26.137  0.00  0.00    +0.000 OA
ENDROOT
BRANCH   1   4
ATOM      4  C   UNL     1       9.307  -1.505  23.777  0.00  0.00    +0.000 C 
ATOM      5  C   UNL     1      10.145  -0.536  24.289  0.00  0.00    +0.000 C 
ATOM      6  C   UNL     1      10.432   0.583  23.524  0.00  0.00    +0.000 C 
ATOM      7  C   UNL     1       9.876   0.702  22.263  0.00  0.00    +0.000 C 
ATOM      8  F   UNL     1      10.159   1.788  21.533  0.00  0.00    +0.000 F 
ATOM      9  C   UNL     1       9.053  -0.291  21.733  0.00  0.00    +0.000 C 
ATOM     10 CL   UNL     1       8.401  -0.132  20.159  0.00  0.00    +0.000 Cl
ATOM     11  C   UNL     1       8.774  -1.408  22.507  0.00  0.00    +0.000 C 
ENDBRANCH   1   4
BRANCH   1  15
ATOM     12  N   UNL     1       6.097  -4.847  26.196  0.00  0.00    +0.000 NA
ATOM     13  C   UNL     1       6.094  -5.486  24.901  0.00  0.00    +0.000 C 
ATOM     14  C   UNL     1       7.234  -4.903  24.046  0.00  0.00    +0.000 C 
ATOM     15  N   UNL     1       7.418  -3.498  24.325  0.00  0.00    +0.000 NA
ATOM     16  C   UNL     1       6.264  -2.807  24.832  0.00  0.00    +0.000 C 
ATOM     17  C   UNL     1       5.753  -3.433  26.145  0.00  0.00    +0.000 C 
BRANCH  12  19
ATOM     18  O   UNL     1       7.696  -5.691  27.527  0.00  0.00    +0.000 OA
ATOM     19  C   UNL     1       6.536  -5.363  27.360  0.00  0.00    +0.000 C 
BRANCH  19  20
ATOM     20  C   UNL     1       5.558  -5.438  28.525  0.00  0.00    +0.000 C 
ATOM     21 CL   UNL     1       4.435  -6.816  28.411  0.00  0.00    +0.000 Cl
ENDBRANCH  19  20
ENDBRANCH  12  19
ENDBRANCH   1  15
TORSDOF 4
ENDMDL
MODEL 5
REMARK VINA RESULT:      -6.4      2.814      3.687
REMARK  Name = 
REMARK  4 active torsions:
REMARK  status: ('A' for Active; 'I' for Inactive)
REMARK    1  A    between atoms: C_2  and  C_3
REMARK    2  A    between atoms: C_2  and  N_5
REMARK    3  A    between atoms: N_8  and  S_9
REMARK    4  A    between atoms: S_9  and  C_12
REMARK                            x       y       z     vdW  Elec       q    Type
REMARK                         _______ _______ _______ _____ _____    ______ ____
ROOT
ATOM      1  S   UNL     1       9.312  -1.707  22.848  0.00  0.00    +0.000 S 
ATOM      2  O   UNL     1       8.250  -1.916  21.913  0.00  0.00    +0.000 OA
ATOM      3  O   UNL     1      10.611  -2.248  22.589  0.00  0.00    +0.000 OA
ENDROOT
BRANCH   1   4
ATOM      4  C   UNL     1       9.494   0.065  23.104  0.00  0.00    +0.000 C 
ATOM      5  C   UNL     1      10.572   0.535  23.826  0.00  0.00    +0.000 C 
ATOM      6  C   UNL     1      10.707   1.898  24.031  0.00  0.00    +0.000 C 
ATOM      7  C   UNL     1       9.761   2.759  23.504  0.00  0.00    +0.000 C 
ATOM      8  F   UNL     1       9.900   4.074  23.711  0.00  0.00    +0.000 F 
ATOM      9  C   UNL     1       8.687   2.288  22.749  0.00  0.00    +0.000 C 
ATOM     10 CL   UNL     1       7.547   3.377  22.085  0.00  0.00    +0.000 Cl
ATOM     11  C   UNL     1       8.563   0.921  22.548  0.00  0.00    +0.000 C 
ENDBRANCH   1   4
BRANCH   1  15
ATOM     12  N   UNL     1       6.740  -4.041  24.084  0.00  0.00    +0.000 NA
ATOM     13  C   UNL     1       6.610  -3.071  25.145  0.00  0.00    +0.000 C 
ATOM     14  C   UNL     1       7.580  -1.904  24.886  0.00  0.00    +0.000 C 
ATOM     15  N   UNL     1       8.804  -2.379  24.282  0.00  0.00    +0.000 NA
ATOM     16  C   UNL     1       9.137  -3.751  24.547  0.00  0.00    +0.000 C 
ATOM     17  C   UNL     1       8.031  -4.712  24.067  0.00  0.00    +0.000 C 
BRANCH  12  19
ATOM     18  O   UNL     1       5.278  -3.337  22.532  0.00  0.00    +0.000 OA
ATOM     19  C   UNL     1       5.892  -4.246  23.057  0.00  0.00    +0.000 C 
BRANCH  19  20
ATOM     20  C   UNL     1       5.788  -5.654  22.484  0.00  0.00    +0.000 C 
ATOM     21 CL   UNL     1       6.197  -5.739  20.752  0.00  0.00    +0.000 Cl
ENDBRANCH  19  20
ENDBRANCH  12  19
ENDBRANCH   1  15
TORSDOF 4
ENDMDL
MODEL 6
REMARK VINA RESULT:      -6.3      3.277      6.390
REMARK  Name = 
REMARK  4 active torsions:
REMARK  status: ('A' for Active; 'I' for Inactive)
REMARK    1  A    between atoms: C_2  and  C_3
REMARK    2  A    between atoms: C_2  and  N_5
REMARK    3  A    between atoms: N_8  and  S_9
REMARK    4  A    between atoms: S_9  and  C_12
REMARK                            x       y       z     vdW  Elec       q    Type
REMARK                         _______ _______ _______ _____ _____    ______ ____
ROOT
ATOM      1  S   UNL     1       7.821  -4.199  26.349  0.00  0.00    +0.000 S 
ATOM      2  O   UNL     1       7.026  -4.670  27.441  0.00  0.00    +0.000 OA
ATOM      3  O   UNL     1       9.233  -4.431  26.340  0.00  0.00    +0.000 OA
ENDROOT
BRANCH   1   4
ATOM      4  C   UNL     1       7.141  -4.875  24.827  0.00  0.00    +0.000 C 
ATOM      5  C   UNL     1       7.981  -5.106  23.757  0.00  0.00    +0.000 C 
ATOM      6  C   UNL     1       7.456  -5.617  22.582  0.00  0.00    +0.000 C 
ATOM      7  C   UNL     1       6.101  -5.888  22.508  0.00  0.00    +0.000 C 
ATOM      8  F   UNL     1       5.604  -6.381  21.366  0.00  0.00    +0.000 F 
ATOM      9  C   UNL     1       5.256  -5.683  23.597  0.00  0.00    +0.000 C 
ATOM     10 CL   UNL     1       3.589  -6.054  23.487  0.00  0.00    +0.000 Cl
ATOM     11  C   UNL     1       5.793  -5.173  24.770  0.00  0.00    +0.000 C 
ENDBRANCH   1   4
BRANCH   1  15
ATOM     12  N   UNL     1       8.715  -1.324  24.220  0.00  0.00    +0.000 NA
ATOM     13  C   UNL     1       9.002  -0.692  25.485  0.00  0.00    +0.000 C 
ATOM     14  C   UNL     1       8.742  -1.695  26.624  0.00  0.00    +0.000 C 
ATOM     15  N   UNL     1       7.619  -2.548  26.309  0.00  0.00    +0.000 NA
ATOM     16  C   UNL     1       6.660  -2.002  25.389  0.00  0.00    +0.000 C 
ATOM     17  C   UNL     1       7.306  -1.641  24.036  0.00  0.00    +0.000 C 
BRANCH  12  19
ATOM     18  O   UNL     1      10.442  -2.620  23.602  0.00  0.00    +0.000 OA
ATOM     19  C   UNL     1       9.603  -1.786  23.318  0.00  0.00    +0.000 C 
BRANCH  19  20
ATOM     20  C   UNL     1       9.474  -1.310  21.877  0.00  0.00    +0.000 C 
ATOM     21 CL   UNL     1       9.778   0.435  21.684  0.00  0.00    +0.000 Cl
ENDBRANCH  19  20
ENDBRANCH  12  19
ENDBRANCH   1  15
TORSDOF 4
ENDMDL
MODEL 7
REMARK VINA RESULT:      -6.3      2.186      2.572
REMARK  Name = 
REMARK  4 active torsions:
REMARK  status: ('A' for Active; 'I' for Inactive)
REMARK    1  A    between atoms: C_2  and  C_3
REMARK    2  A    between atoms: C_2  and  N_5
REMARK    3  A    between atoms: N_8  and  S_9
REMARK    4  A    between atoms: S_9  and  C_12
REMARK                            x       y       z     vdW  Elec       q    Type
REMARK                         _______ _______ _______ _____ _____    ______ ____
ROOT
ATOM      1  S   UNL     1       7.331  -1.942  24.222  0.00  0.00    +0.000 S 
ATOM      2  O   UNL     1       7.434  -1.771  25.638  0.00  0.00    +0.000 OA
ATOM      3  O   UNL     1       6.045  -1.958  23.595  0.00  0.00    +0.000 OA
ENDROOT
BRANCH   1   4
ATOM      4  C   UNL     1       8.317  -0.663  23.429  0.00  0.00    +0.000 C 
ATOM      5  C   UNL     1       8.879  -0.915  22.193  0.00  0.00    +0.000 C 
ATOM      6  C   UNL     1       9.646   0.066  21.587  0.00  0.00    +0.000 C 
ATOM      7  C   UNL     1       9.829   1.277  22.231  0.00  0.00    +0.000 C 
ATOM      8  F   UNL     1      10.574   2.217  21.636  0.00  0.00    +0.000 F 
ATOM      9  C   UNL     1       9.238   1.543  23.465  0.00  0.00    +0.000 C 
ATOM     10 CL   UNL     1       9.457   3.059  24.227  0.00  0.00    +0.000 Cl
ATOM     11  C   UNL     1       8.469   0.554  24.063  0.00  0.00    +0.000 C 
ENDBRANCH   1   4
BRANCH   1  15
ATOM     12  N   UNL     1       7.502  -5.350  25.622  0.00  0.00    +0.000 NA
ATOM     13  C   UNL     1       8.900  -5.239  25.279  0.00  0.00    +0.000 C 
ATOM     14  C   UNL     1       9.164  -3.849  24.670  0.00  0.00    +0.000 C 
ATOM     15  N   UNL     1       8.034  -3.412  23.882  0.00  0.00    +0.000 NA
ATOM     16  C   UNL     1       7.203  -4.457  23.350  0.00  0.00    +0.000 C 
ATOM     17  C   UNL     1       6.620  -5.347  24.465  0.00  0.00    +0.000 C 
BRANCH  12  19
ATOM     18  O   UNL     1       7.451  -5.833  27.814  0.00  0.00    +0.000 OA
ATOM     19  C   UNL     1       6.955  -5.279  26.851  0.00  0.00    +0.000 C 
BRANCH  19  20
ATOM     20  C   UNL     1       5.731  -4.393  27.041  0.00  0.00    +0.000 C 
ATOM     21 CL   UNL     1       4.223  -5.315  27.261  0.00  0.00    +0.000 Cl
ENDBRANCH  19  20
ENDBRANCH  12  19
ENDBRANCH   1  15
TORSDOF 4
ENDMDL
MODEL 8
REMARK VINA RESULT:      -6.3      3.884      7.077
REMARK  Name = 
REMARK  4 active torsions:
REMARK  status: ('A' for Active; 'I' for Inactive)
REMARK    1  A    between atoms: C_2  and  C_3
REMARK    2  A    between atoms: C_2  and  N_5
REMARK    3  A    between atoms: N_8  and  S_9
REMARK    4  A    between atoms: S_9  and  C_12
REMARK                            x       y       z     vdW  Elec       q    Type
REMARK                         _______ _______ _______ _____ _____    ______ ____
ROOT
ATOM      1  S   UNL     1       8.902  -2.553  23.855  0.00  0.00    +0.000 S 
ATOM      2  O   UNL     1      10.255  -3.015  23.897  0.00  0.00    +0.000 OA
ATOM      3  O   UNL     1       8.303  -2.204  22.604  0.00  0.00    +0.000 OA
ENDROOT
BRANCH   1   4
ATOM      4  C   UNL     1       7.861  -3.794  24.639  0.00  0.00    +0.000 C 
ATOM      5  C   UNL     1       8.067  -4.105  25.968  0.00  0.00    +0.000 C 
ATOM      6  C   UNL     1       7.272  -5.067  26.568  0.00  0.00    +0.000 C 
ATOM      7  C   UNL     1       6.286  -5.691  25.825  0.00  0.00    +0.000 C 
ATOM      8  F   UNL     1       5.525  -6.621  26.415  0.00  0.00    +0.000 F 
ATOM      9  C   UNL     1       6.058  -5.357  24.490  0.00  0.00    +0.000 C 
ATOM     10 CL   UNL     1       4.813  -6.124  23.602  0.00  0.00    +0.000 Cl
ATOM     11  C   UNL     1       6.858  -4.390  23.900  0.00  0.00    +0.000 C 
ENDBRANCH   1   4
BRANCH   1  15
ATOM     12  N   UNL     1       8.703   1.107  23.449  0.00  0.00    +0.000 NA
ATOM     13  C   UNL     1       9.698   1.108  24.494  0.00  0.00    +0.000 C 
ATOM     14  C   UNL     1      10.030  -0.345  24.879  0.00  0.00    +0.000 C 
ATOM     15  N   UNL     1       8.854  -1.180  24.794  0.00  0.00    +0.000 NA
ATOM     16  C   UNL     1       7.596  -0.501  24.944  0.00  0.00    +0.000 C 
ATOM     17  C   UNL     1       7.409   0.598  23.880  0.00  0.00    +0.000 C 
BRANCH  12  19
ATOM     18  O   UNL     1       9.987   1.641  21.686  0.00  0.00    +0.000 OA
ATOM     19  C   UNL     1       8.896   1.351  22.138  0.00  0.00    +0.000 C 
BRANCH  19  20
ATOM     20  C   UNL     1       7.718   1.157  21.192  0.00  0.00    +0.000 C 
ATOM     21 CL   UNL     1       8.053  -0.002  19.881  0.00  0.00    +0.000 Cl
ENDBRANCH  19  20
ENDBRANCH  12  19
ENDBRANCH   1  15
TORSDOF 4
ENDMDL
MODEL 9
REMARK VINA RESULT:      -6.3      1.909      2.334
REMARK  Name = 
REMARK  4 active torsions:
REMARK  status: ('A' for Active; 'I' for Inactive)
REMARK    1  A    between atoms: C_2  and  C_3
REMARK    2  A    between atoms: C_2  and  N_5
REMARK    3  A    between atoms: N_8  and  S_9
REMARK    4  A    between atoms: S_9  and  C_12
REMARK                            x       y       z     vdW  Elec       q    Type
REMARK                         _______ _______ _______ _____ _____    ______ ____
ROOT
ATOM      1  S   UNL     1       6.421  -2.473  22.334  0.00  0.00    +0.000 S 
ATOM      2  O   UNL     1       5.652  -2.187  23.506  0.00  0.00    +0.000 OA
ATOM      3  O   UNL     1       5.763  -2.707  21.086  0.00  0.00    +0.000 OA
ENDROOT
BRANCH   1   4
ATOM      4  C   UNL     1       7.599  -1.134  22.095  0.00  0.00    +0.000 C 
ATOM      5  C   UNL     1       8.922  -1.436  21.846  0.00  0.00    +0.000 C 
ATOM      6  C   UNL     1       9.830  -0.405  21.671  0.00  0.00    +0.000 C 
ATOM      7  C   UNL     1       9.391   0.905  21.748  0.00  0.00    +0.000 C 
ATOM      8  F   UNL     1      10.278   1.893  21.579  0.00  0.00    +0.000 F 
ATOM      9  C   UNL     1       8.049   1.211  21.971  0.00  0.00    +0.000 C 
ATOM     10 CL   UNL     1       7.527   2.840  22.032  0.00  0.00    +0.000 Cl
ATOM     11  C   UNL     1       7.147   0.171  22.141  0.00  0.00    +0.000 C 
ENDBRANCH   1   4
BRANCH   1  15
ATOM     12  N   UNL     1       5.904  -5.782  23.876  0.00  0.00    +0.000 NA
ATOM     13  C   UNL     1       7.184  -5.512  24.486  0.00  0.00    +0.000 C 
ATOM     14  C   UNL     1       7.674  -4.122  24.039  0.00  0.00    +0.000 C 
ATOM     15  N   UNL     1       7.283  -3.855  22.673  0.00  0.00    +0.000 NA
ATOM     16  C   UNL     1       7.065  -5.012  21.850  0.00  0.00    +0.000 C 
ATOM     17  C   UNL     1       5.970  -5.929  22.430  0.00  0.00    +0.000 C 
BRANCH  12  19
ATOM     18  O   UNL     1       3.909  -4.829  24.269  0.00  0.00    +0.000 OA
ATOM     19  C   UNL     1       4.693  -5.738  24.466  0.00  0.00    +0.000 C 
BRANCH  19  20
ATOM     20  C   UNL     1       4.271  -6.923  25.325  0.00  0.00    +0.000 C 
ATOM     21 CL   UNL     1       4.906  -6.847  26.987  0.00  0.00    +0.000 Cl
ENDBRANCH  19  20
ENDBRANCH  12  19
ENDBRANCH   1  15
TORSDOF 4
ENDMDL
