MODEL 1
REMARK VINA RESULT:      -7.5      0.000      0.000
REMARK  Name = 
REMARK  6 active torsions:
REMARK  status: ('A' for Active; 'I' for Inactive)
REMARK    1  A    between atoms: C_2  and  C_3
REMARK    2  A    between atoms: C_6  and  C_30
REMARK    3  A    between atoms: C_7  and  C_10
REMARK    4  A    between atoms: C_10  and  N_11
REMARK    5  A    between atoms: N_11  and  C_12
REMARK    6  A    between atoms: C_15  and  C_16
REMARK                            x       y       z     vdW  Elec       q    Type
REMARK                         _______ _______ _______ _____ _____    ______ ____
ROOT
ATOM      1  C   UNL     1       9.085  -0.384  24.321  0.00  0.00    +0.000 C 
ATOM      2  C   UNL     1       8.410   0.413  23.466  0.00  0.00    +0.000 C 
ATOM      3  C   UNL     1       6.927   0.241  23.148  0.00  0.00    +0.000 C 
ATOM      4  C   UNL     1       6.856  -0.362  21.749  0.00  0.00    +0.000 C 
ATOM      5  C   UNL     1       7.708   0.301  20.817  0.00  0.00    +0.000 C 
ATOM      6  C   UNL     1       9.339  -0.028  21.387  0.00  0.00    +0.000 C 
ATOM      7  C   UNL     1       9.053   1.146  22.301  0.00  0.00    +0.000 C 
ATOM      8  C   UNL     1       9.870   2.237  22.789  0.00  0.00    +0.000 C 
ATOM      9  N   UNL     1      10.825   1.762  23.794  0.00  0.00    +0.000 NA
ATOM     10  C   UNL     1       8.903   3.167  23.582  0.00  0.00    +0.000 C 
ATOM     11  C   UNL     1       7.682   3.559  22.871  0.00  0.00    +0.000 C 
ATOM     12  C   UNL     1       6.998   2.466  22.053  0.00  0.00    +0.000 C 
ATOM     13  C   UNL     1       7.982   1.726  21.292  0.00  0.00    +0.000 C 
ATOM     14  C   UNL     1       7.819   0.020  19.423  0.00  0.00    +0.000 C 
ENDROOT
BRANCH   4  15
ATOM     15  C   UNL     1       6.507  -1.746  21.725  0.00  0.00    +0.000 C 
ATOM     16  O   UNL     1       5.976  -2.325  20.772  0.00  0.00    +0.000 OA
ATOM     17  O   UNL     1       6.053  -2.086  22.974  0.00  0.00    +0.000 OA
ENDBRANCH   4  15
BRANCH   1  18
ATOM     18  N   UNL     1       9.927  -1.490  24.543  0.00  0.00    +0.000 NA
BRANCH  18  19
ATOM     19  C   UNL     1       9.430  -2.687  23.848  0.00  0.00    +0.000 C 
BRANCH  19  23
ATOM     20  C   UNL     1       7.782  -4.208  26.619  0.00  0.00    +0.000 C 
ATOM     21  C   UNL     1       7.405  -5.336  25.638  0.00  0.00    +0.000 C 
ATOM     22  C   UNL     1       8.380  -4.979  24.388  0.00  0.00    +0.000 C 
ATOM     23  C   UNL     1       8.483  -3.496  24.584  0.00  0.00    +0.000 C 
ATOM     24  O   UNL     1       8.790  -3.420  26.006  0.00  0.00    +0.000 OA
BRANCH  20  26
ATOM     25  O   UNL     1       5.466  -3.957  26.385  0.00  0.00    +0.000 OA
ATOM     26  C   UNL     1       6.627  -3.283  26.893  0.00  0.00    +0.000 C 
ENDBRANCH  20  26
BRANCH  22  27
ATOM     27  C   UNL     1       7.597  -5.286  23.199  0.00  0.00    +0.000 C 
ATOM     28  N   UNL     1       7.191  -5.437  22.128  0.00  0.00    +0.000 NA
ENDBRANCH  22  27
ENDBRANCH  19  23
ENDBRANCH  18  19
ENDBRANCH   1  18
TORSDOF 6
ENDMDL
MODEL 2
REMARK VINA RESULT:      -7.4      2.392      6.308
REMARK  Name = 
REMARK  6 active torsions:
REMARK  status: ('A' for Active; 'I' for Inactive)
REMARK    1  A    between atoms: C_2  and  C_3
REMARK    2  A    between atoms: C_6  and  C_30
REMARK    3  A    between atoms: C_7  and  C_10
REMARK    4  A    between atoms: C_10  and  N_11
REMARK    5  A    between atoms: N_11  and  C_12
REMARK    6  A    between atoms: C_15  and  C_16
REMARK                            x       y       z     vdW  Elec       q    Type
REMARK                         _______ _______ _______ _____ _____    ______ ____
ROOT
ATOM      1  C   UNL     1       8.935  -2.400  23.635  0.00  0.00    +0.000 C 
ATOM      2  C   UNL     1       8.138  -3.370  24.133  0.00  0.00    +0.000 C 
ATOM      3  C   UNL     1       7.780  -4.640  23.366  0.00  0.00    +0.000 C 
ATOM      4  C   UNL     1       6.335  -4.474  22.909  0.00  0.00    +0.000 C 
ATOM      5  C   UNL     1       5.477  -4.010  23.950  0.00  0.00    +0.000 C 
ATOM      6  C   UNL     1       6.046  -2.384  24.309  0.00  0.00    +0.000 C 
ATOM      7  C   UNL     1       7.049  -3.128  25.165  0.00  0.00    +0.000 C 
ATOM      8  C   UNL     1       7.641  -2.851  26.456  0.00  0.00    +0.000 C 
ATOM      9  N   UNL     1       8.619  -1.764  26.358  0.00  0.00    +0.000 NA
ATOM     10  C   UNL     1       8.492  -4.107  26.810  0.00  0.00    +0.000 C 
ATOM     11  C   UNL     1       7.796  -5.393  26.696  0.00  0.00    +0.000 C 
ATOM     12  C   UNL     1       6.877  -5.556  25.488  0.00  0.00    +0.000 C 
ATOM     13  C   UNL     1       6.074  -4.365  25.309  0.00  0.00    +0.000 C 
ATOM     14  C   UNL     1       4.066  -3.816  23.860  0.00  0.00    +0.000 C 
ENDROOT
BRANCH   4  15
ATOM     15  C   UNL     1       6.189  -4.194  21.518  0.00  0.00    +0.000 C 
ATOM     16  O   UNL     1       5.675  -3.173  21.051  0.00  0.00    +0.000 OA
ATOM     17  O   UNL     1       5.888  -5.372  20.882  0.00  0.00    +0.000 OA
ENDBRANCH   4  15
BRANCH   1  18
ATOM     18  N   UNL     1       9.078  -1.160  22.986  0.00  0.00    +0.000 NA
BRANCH  18  19
ATOM     19  C   UNL     1       8.732  -1.261  21.560  0.00  0.00    +0.000 C 
BRANCH  19  23
ATOM     20  C   UNL     1       6.805   0.745  19.330  0.00  0.00    +0.000 C 
ATOM     21  C   UNL     1       6.468   1.603  20.565  0.00  0.00    +0.000 C 
ATOM     22  C   UNL     1       7.554   1.031  21.629  0.00  0.00    +0.000 C 
ATOM     23  C   UNL     1       7.698  -0.363  21.096  0.00  0.00    +0.000 C 
ATOM     24  O   UNL     1       7.889  -0.103  19.675  0.00  0.00    +0.000 OA
BRANCH  20  26
ATOM     25  O   UNL     1       6.059  -0.748  17.688  0.00  0.00    +0.000 OA
ATOM     26  C   UNL     1       5.667  -0.160  18.938  0.00  0.00    +0.000 C 
ENDBRANCH  20  26
BRANCH  22  27
ATOM     27  C   UNL     1       6.861   1.022  22.910  0.00  0.00    +0.000 C 
ATOM     28  N   UNL     1       6.226   1.254  23.847  0.00  0.00    +0.000 NA
ENDBRANCH  22  27
ENDBRANCH  19  23
ENDBRANCH  18  19
ENDBRANCH   1  18
TORSDOF 6
ENDMDL
MODEL 3
REMARK VINA RESULT:      -7.3      2.160      6.801
REMARK  Name = 
REMARK  6 active torsions:
REMARK  status: ('A' for Active; 'I' for Inactive)
REMARK    1  A    between atoms: C_2  and  C_3
REMARK    2  A    between atoms: C_6  and  C_30
REMARK    3  A    between atoms: C_7  and  C_10
REMARK    4  A    between atoms: C_10  and  N_11
REMARK    5  A    between atoms: N_11  and  C_12
REMARK    6  A    between atoms: C_15  and  C_16
REMARK                            x       y       z     vdW  Elec       q    Type
REMARK                         _______ _______ _______ _____ _____    ______ ____
ROOT
ATOM      1  C   UNL     1       7.731  -2.853  22.381  0.00  0.00    +0.000 C 
ATOM      2  C   UNL     1       6.829  -3.381  23.236  0.00  0.00    +0.000 C 
ATOM      3  C   UNL     1       6.019  -2.547  24.224  0.00  0.00    +0.000 C 
ATOM      4  C   UNL     1       6.625  -2.801  25.600  0.00  0.00    +0.000 C 
ATOM      5  C   UNL     1       6.848  -4.186  25.858  0.00  0.00    +0.000 C 
ATOM      6  C   UNL     1       8.087  -4.664  24.703  0.00  0.00    +0.000 C 
ATOM      7  C   UNL     1       6.899  -4.800  23.773  0.00  0.00    +0.000 C 
ATOM      8  C   UNL     1       6.570  -5.745  22.727  0.00  0.00    +0.000 C 
ATOM      9  N   UNL     1       7.398  -5.517  21.540  0.00  0.00    +0.000 NA
ATOM     10  C   UNL     1       5.126  -5.381  22.268  0.00  0.00    +0.000 C 
ATOM     11  C   UNL     1       4.135  -5.255  23.342  0.00  0.00    +0.000 C 
ATOM     12  C   UNL     1       4.605  -4.549  24.612  0.00  0.00    +0.000 C 
ATOM     13  C   UNL     1       5.916  -5.029  24.991  0.00  0.00    +0.000 C 
ATOM     14  C   UNL     1       7.341  -4.752  27.071  0.00  0.00    +0.000 C 
ENDROOT
BRANCH   4  15
ATOM     15  C   UNL     1       7.409  -1.720  26.103  0.00  0.00    +0.000 C 
ATOM     16  O   UNL     1       8.633  -1.748  26.265  0.00  0.00    +0.000 OA
ATOM     17  O   UNL     1       6.679  -1.093  27.081  0.00  0.00    +0.000 OA
ENDBRANCH   4  15
BRANCH   1  18
ATOM     18  N   UNL     1       9.066  -2.535  22.066  0.00  0.00    +0.000 NA
BRANCH  18  19
ATOM     19  C   UNL     1       9.230  -1.093  21.830  0.00  0.00    +0.000 C 
BRANCH  19  23
ATOM     20  C   UNL     1       7.026   0.453  19.493  0.00  0.00    +0.000 C 
ATOM     21  C   UNL     1       6.539   1.306  20.681  0.00  0.00    +0.000 C 
ATOM     22  C   UNL     1       7.693   0.976  21.776  0.00  0.00    +0.000 C 
ATOM     23  C   UNL     1       8.068  -0.401  21.317  0.00  0.00    +0.000 C 
ATOM     24  O   UNL     1       8.231  -0.187  19.885  0.00  0.00    +0.000 OA
BRANCH  20  26
ATOM     25  O   UNL     1       6.037  -0.699  17.711  0.00  0.00    +0.000 OA
ATOM     26  C   UNL     1       6.057  -0.645  19.145  0.00  0.00    +0.000 C 
ENDBRANCH  20  26
BRANCH  22  27
ATOM     27  C   UNL     1       6.996   0.919  23.053  0.00  0.00    +0.000 C 
ATOM     28  N   UNL     1       6.281   1.050  23.951  0.00  0.00    +0.000 NA
ENDBRANCH  22  27
ENDBRANCH  19  23
ENDBRANCH  18  19
ENDBRANCH   1  18
TORSDOF 6
ENDMDL
MODEL 4
REMARK VINA RESULT:      -7.2      2.398      6.799
REMARK  Name = 
REMARK  6 active torsions:
REMARK  status: ('A' for Active; 'I' for Inactive)
REMARK    1  A    between atoms: C_2  and  C_3
REMARK    2  A    between atoms: C_6  and  C_30
REMARK    3  A    between atoms: C_7  and  C_10
REMARK    4  A    between atoms: C_10  and  N_11
REMARK    5  A    between atoms: N_11  and  C_12
REMARK    6  A    between atoms: C_15  and  C_16
REMARK                            x       y       z     vdW  Elec       q    Type
REMARK                         _______ _______ _______ _____ _____    ______ ____
ROOT
ATOM      1  C   UNL     1       5.750  -2.856  22.888  0.00  0.00    +0.000 C 
ATOM      2  C   UNL     1       5.935  -3.550  24.031  0.00  0.00    +0.000 C 
ATOM      3  C   UNL     1       6.271  -2.895  25.368  0.00  0.00    +0.000 C 
ATOM      4  C   UNL     1       7.747  -3.177  25.626  0.00  0.00    +0.000 C 
ATOM      5  C   UNL     1       8.097  -4.542  25.398  0.00  0.00    +0.000 C 
ATOM      6  C   UNL     1       7.868  -4.781  23.670  0.00  0.00    +0.000 C 
ATOM      7  C   UNL     1       6.425  -4.987  24.082  0.00  0.00    +0.000 C 
ATOM      8  C   UNL     1       5.387  -5.883  23.619  0.00  0.00    +0.000 C 
ATOM      9  N   UNL     1       4.891  -5.470  22.304  0.00  0.00    +0.000 NA
ATOM     10  C   UNL     1       4.178  -5.661  24.576  0.00  0.00    +0.000 C 
ATOM     11  C   UNL     1       4.486  -5.735  26.009  0.00  0.00    +0.000 C 
ATOM     12  C   UNL     1       5.790  -5.075  26.452  0.00  0.00    +0.000 C 
ATOM     13  C   UNL     1       6.858  -5.422  25.540  0.00  0.00    +0.000 C 
ATOM     14  C   UNL     1       9.377  -5.134  25.612  0.00  0.00    +0.000 C 
ENDROOT
BRANCH   4  15
ATOM     15  C   UNL     1       8.602  -2.051  25.431  0.00  0.00    +0.000 C 
ATOM     16  O   UNL     1       9.571  -2.022  24.667  0.00  0.00    +0.000 OA
ATOM     17  O   UNL     1       8.765  -1.433  26.645  0.00  0.00    +0.000 OA
ENDBRANCH   4  15
BRANCH   1  18
ATOM     18  N   UNL     1       6.259  -2.359  21.673  0.00  0.00    +0.000 NA
BRANCH  18  19
ATOM     19  C   UNL     1       7.645  -1.892  21.826  0.00  0.00    +0.000 C 
BRANCH  19  23
ATOM     20  C   UNL     1       7.916   1.532  22.782  0.00  0.00    +0.000 C 
ATOM     21  C   UNL     1       7.482   1.858  21.340  0.00  0.00    +0.000 C 
ATOM     22  C   UNL     1       6.971   0.397  20.847  0.00  0.00    +0.000 C 
ATOM     23  C   UNL     1       7.846  -0.464  21.709  0.00  0.00    +0.000 C 
ATOM     24  O   UNL     1       7.655   0.156  23.013  0.00  0.00    +0.000 OA
BRANCH  20  26
ATOM     25  O   UNL     1       9.630   1.431  24.374  0.00  0.00    +0.000 OA
ATOM     26  C   UNL     1       9.395   1.723  22.988  0.00  0.00    +0.000 C 
ENDBRANCH  20  26
BRANCH  22  27
ATOM     27  C   UNL     1       7.376   0.305  19.451  0.00  0.00    +0.000 C 
ATOM     28  N   UNL     1       7.457   0.337  18.299  0.00  0.00    +0.000 NA
ENDBRANCH  22  27
ENDBRANCH  19  23
ENDBRANCH  18  19
ENDBRANCH   1  18
TORSDOF 6
ENDMDL
MODEL 5
REMARK VINA RESULT:      -7.1      2.427      6.022
REMARK  Name = 
REMARK  6 active torsions:
REMARK  status: ('A' for Active; 'I' for Inactive)
REMARK    1  A    between atoms: C_2  and  C_3
REMARK    2  A    between atoms: C_6  and  C_30
REMARK    3  A    between atoms: C_7  and  C_10
REMARK    4  A    between atoms: C_10  and  N_11
REMARK    5  A    between atoms: N_11  and  C_12
REMARK    6  A    between atoms: C_15  and  C_16
REMARK                            x       y       z     vdW  Elec       q    Type
REMARK                         _______ _______ _______ _____ _____    ______ ____
ROOT
ATOM      1  C   UNL     1       7.098  -1.409  24.039  0.00  0.00    +0.000 C 
ATOM      2  C   UNL     1       7.443  -2.711  24.138  0.00  0.00    +0.000 C 
ATOM      3  C   UNL     1       8.024  -3.517  22.979  0.00  0.00    +0.000 C 
ATOM      4  C   UNL     1       6.908  -4.437  22.495  0.00  0.00    +0.000 C 
ATOM      5  C   UNL     1       6.243  -5.109  23.564  0.00  0.00    +0.000 C 
ATOM      6  C   UNL     1       5.439  -3.831  24.467  0.00  0.00    +0.000 C 
ATOM      7  C   UNL     1       6.803  -3.687  25.110  0.00  0.00    +0.000 C 
ATOM      8  C   UNL     1       7.230  -3.395  26.462  0.00  0.00    +0.000 C 
ATOM      9  N   UNL     1       6.991  -1.987  26.790  0.00  0.00    +0.000 NA
ATOM     10  C   UNL     1       8.782  -3.534  26.455  0.00  0.00    +0.000 C 
ATOM     11  C   UNL     1       9.301  -4.781  25.883  0.00  0.00    +0.000 C 
ATOM     12  C   UNL     1       8.603  -5.285  24.622  0.00  0.00    +0.000 C 
ATOM     13  C   UNL     1       7.167  -5.190  24.776  0.00  0.00    +0.000 C 
ATOM     14  C   UNL     1       5.206  -6.080  23.437  0.00  0.00    +0.000 C 
ENDROOT
BRANCH   4  15
ATOM     15  C   UNL     1       6.314  -4.038  21.261  0.00  0.00    +0.000 C 
ATOM     16  O   UNL     1       5.580  -3.056  21.113  0.00  0.00    +0.000 OA
ATOM     17  O   UNL     1       5.955  -5.175  20.581  0.00  0.00    +0.000 OA
ENDBRANCH   4  15
BRANCH   1  18
ATOM     18  N   UNL     1       6.111  -0.427  23.834  0.00  0.00    +0.000 NA
BRANCH  18  19
ATOM     19  C   UNL     1       6.705   0.915  23.738  0.00  0.00    +0.000 C 
BRANCH  19  23
ATOM     20  C   UNL     1      10.159   1.792  23.675  0.00  0.00    +0.000 C 
ATOM     21  C   UNL     1      10.080   1.560  22.153  0.00  0.00    +0.000 C 
ATOM     22  C   UNL     1       8.470   1.488  21.949  0.00  0.00    +0.000 C 
ATOM     23  C   UNL     1       8.082   0.965  23.299  0.00  0.00    +0.000 C 
ATOM     24  O   UNL     1       8.832   1.857  24.173  0.00  0.00    +0.000 OA
BRANCH  20  26
ATOM     25  O   UNL     1      10.833  -0.440  23.455  0.00  0.00    +0.000 OA
ATOM     26  C   UNL     1      10.826   0.648  24.392  0.00  0.00    +0.000 C 
ENDBRANCH  20  26
BRANCH  22  27
ATOM     27  C   UNL     1       8.265   0.471  20.926  0.00  0.00    +0.000 C 
ATOM     28  N   UNL     1       8.178  -0.141  19.950  0.00  0.00    +0.000 NA
ENDBRANCH  22  27
ENDBRANCH  19  23
ENDBRANCH  18  19
ENDBRANCH   1  18
TORSDOF 6
ENDMDL
MODEL 6
REMARK VINA RESULT:      -6.9      2.318      6.617
REMARK  Name = 
REMARK  6 active torsions:
REMARK  status: ('A' for Active; 'I' for Inactive)
REMARK    1  A    between atoms: C_2  and  C_3
REMARK    2  A    between atoms: C_6  and  C_30
REMARK    3  A    between atoms: C_7  and  C_10
REMARK    4  A    between atoms: C_10  and  N_11
REMARK    5  A    between atoms: N_11  and  C_12
REMARK    6  A    between atoms: C_15  and  C_16
REMARK                            x       y       z     vdW  Elec       q    Type
REMARK                         _______ _______ _______ _____ _____    ______ ____
ROOT
ATOM      1  C   UNL     1       7.127  -1.524  26.339  0.00  0.00    +0.000 C 
ATOM      2  C   UNL     1       6.783  -2.819  26.171  0.00  0.00    +0.000 C 
ATOM      3  C   UNL     1       7.683  -3.986  26.566  0.00  0.00    +0.000 C 
ATOM      4  C   UNL     1       8.242  -4.556  25.267  0.00  0.00    +0.000 C 
ATOM      5  C   UNL     1       7.241  -4.741  24.268  0.00  0.00    +0.000 C 
ATOM      6  C   UNL     1       6.698  -3.115  23.872  0.00  0.00    +0.000 C 
ATOM      7  C   UNL     1       5.828  -3.311  25.096  0.00  0.00    +0.000 C 
ATOM      8  C   UNL     1       4.473  -2.916  25.417  0.00  0.00    +0.000 C 
ATOM      9  N   UNL     1       4.396  -1.474  25.665  0.00  0.00    +0.000 NA
ATOM     10  C   UNL     1       4.158  -3.564  26.798  0.00  0.00    +0.000 C 
ATOM     11  C   UNL     1       4.439  -5.000  26.899  0.00  0.00    +0.000 C 
ATOM     12  C   UNL     1       5.730  -5.482  26.240  0.00  0.00    +0.000 C 
ATOM     13  C   UNL     1       5.872  -4.883  24.930  0.00  0.00    +0.000 C 
ATOM     14  C   UNL     1       7.430  -5.313  22.975  0.00  0.00    +0.000 C 
ENDROOT
BRANCH   4  15
ATOM     15  C   UNL     1       9.612  -4.235  25.029  0.00  0.00    +0.000 C 
ATOM     16  O   UNL     1      10.024  -3.538  24.097  0.00  0.00    +0.000 OA
ATOM     17  O   UNL     1      10.362  -5.341  25.340  0.00  0.00    +0.000 OA
ENDBRANCH   4  15
BRANCH   1  18
ATOM     18  N   UNL     1       7.654  -0.329  25.813  0.00  0.00    +0.000 NA
BRANCH  18  19
ATOM     19  C   UNL     1       8.877  -0.581  25.036  0.00  0.00    +0.000 C 
BRANCH  19  23
ATOM     20  C   UNL     1       9.294  -0.058  21.535  0.00  0.00    +0.000 C 
ATOM     21  C   UNL     1       9.822   1.340  21.916  0.00  0.00    +0.000 C 
ATOM     22  C   UNL     1      10.032   1.150  23.515  0.00  0.00    +0.000 C 
ATOM     23  C   UNL     1       8.978   0.116  23.773  0.00  0.00    +0.000 C 
ATOM     24  O   UNL     1       9.260  -0.845  22.715  0.00  0.00    +0.000 OA
BRANCH  20  26
ATOM     25  O   UNL     1       8.000   0.083  19.588  0.00  0.00    +0.000 OA
ATOM     26  C   UNL     1       7.881  -0.011  21.016  0.00  0.00    +0.000 C 
ENDBRANCH  20  26
BRANCH  22  27
ATOM     27  C   UNL     1       9.652   2.428  24.101  0.00  0.00    +0.000 C 
ATOM     28  N   UNL     1       9.152   3.430  24.388  0.00  0.00    +0.000 NA
ENDBRANCH  22  27
ENDBRANCH  19  23
ENDBRANCH  18  19
ENDBRANCH   1  18
TORSDOF 6
ENDMDL
MODEL 7
REMARK VINA RESULT:      -6.9      2.438      6.140
REMARK  Name = 
REMARK  6 active torsions:
REMARK  status: ('A' for Active; 'I' for Inactive)
REMARK    1  A    between atoms: C_2  and  C_3
REMARK    2  A    between atoms: C_6  and  C_30
REMARK    3  A    between atoms: C_7  and  C_10
REMARK    4  A    between atoms: C_10  and  N_11
REMARK    5  A    between atoms: N_11  and  C_12
REMARK    6  A    between atoms: C_15  and  C_16
REMARK                            x       y       z     vdW  Elec       q    Type
REMARK                         _______ _______ _______ _____ _____    ______ ____
ROOT
ATOM      1  C   UNL     1       9.016  -2.268  23.739  0.00  0.00    +0.000 C 
ATOM      2  C   UNL     1       8.205  -3.254  24.183  0.00  0.00    +0.000 C 
ATOM      3  C   UNL     1       7.819  -4.467  23.342  0.00  0.00    +0.000 C 
ATOM      4  C   UNL     1       6.373  -4.248  22.910  0.00  0.00    +0.000 C 
ATOM      5  C   UNL     1       5.532  -3.834  23.985  0.00  0.00    +0.000 C 
ATOM      6  C   UNL     1       6.133  -2.244  24.439  0.00  0.00    +0.000 C 
ATOM      7  C   UNL     1       7.130  -3.058  25.238  0.00  0.00    +0.000 C 
ATOM      8  C   UNL     1       7.738  -2.872  26.539  0.00  0.00    +0.000 C 
ATOM      9  N   UNL     1       8.734  -1.798  26.499  0.00  0.00    +0.000 NA
ATOM     10  C   UNL     1       8.569  -4.162  26.806  0.00  0.00    +0.000 C 
ATOM     11  C   UNL     1       7.849  -5.426  26.619  0.00  0.00    +0.000 C 
ATOM     12  C   UNL     1       6.917  -5.498  25.411  0.00  0.00    +0.000 C 
ATOM     13  C   UNL     1       6.135  -4.285  25.314  0.00  0.00    +0.000 C 
ATOM     14  C   UNL     1       4.125  -3.612  23.921  0.00  0.00    +0.000 C 
ENDROOT
BRANCH   4  15
ATOM     15  C   UNL     1       6.221  -3.879  21.540  0.00  0.00    +0.000 C 
ATOM     16  O   UNL     1       5.689  -2.838  21.142  0.00  0.00    +0.000 OA
ATOM     17  O   UNL     1       5.939  -5.018  20.828  0.00  0.00    +0.000 OA
ENDBRANCH   4  15
BRANCH   1  18
ATOM     18  N   UNL     1       9.175  -0.993  23.167  0.00  0.00    +0.000 NA
BRANCH  18  19
ATOM     19  C   UNL     1       8.470  -0.893  21.880  0.00  0.00    +0.000 C 
BRANCH  19  23
ATOM     20  C   UNL     1       6.732   2.166  22.451  0.00  0.00    +0.000 C 
ATOM     21  C   UNL     1       6.246   2.038  20.994  0.00  0.00    +0.000 C 
ATOM     22  C   UNL     1       6.665   0.501  20.677  0.00  0.00    +0.000 C 
ATOM     23  C   UNL     1       7.838   0.378  21.603  0.00  0.00    +0.000 C 
ATOM     24  O   UNL     1       7.281   0.916  22.837  0.00  0.00    +0.000 OA
BRANCH  20  26
ATOM     25  O   UNL     1       7.286   4.240  23.388  0.00  0.00    +0.000 OA
ATOM     26  C   UNL     1       7.838   3.177  22.596  0.00  0.00    +0.000 C 
ENDBRANCH  20  26
BRANCH  22  27
ATOM     27  C   UNL     1       7.105   0.507  19.289  0.00  0.00    +0.000 C 
ATOM     28  N   UNL     1       7.329   0.277  18.179  0.00  0.00    +0.000 NA
ENDBRANCH  22  27
ENDBRANCH  19  23
ENDBRANCH  18  19
ENDBRANCH   1  18
TORSDOF 6
ENDMDL
MODEL 8
REMARK VINA RESULT:      -6.8      2.155      3.030
REMARK  Name = 
REMARK  6 active torsions:
REMARK  status: ('A' for Active; 'I' for Inactive)
REMARK    1  A    between atoms: C_2  and  C_3
REMARK    2  A    between atoms: C_6  and  C_30
REMARK    3  A    between atoms: C_7  and  C_10
REMARK    4  A    between atoms: C_10  and  N_11
REMARK    5  A    between atoms: N_11  and  C_12
REMARK    6  A    between atoms: C_15  and  C_16
REMARK                            x       y       z     vdW  Elec       q    Type
REMARK                         _______ _______ _______ _____ _____    ______ ____
ROOT
ATOM      1  C   UNL     1       6.301   0.023  24.076  0.00  0.00    +0.000 C 
ATOM      2  C   UNL     1       7.332   0.852  23.806  0.00  0.00    +0.000 C 
ATOM      3  C   UNL     1       8.155   0.780  22.523  0.00  0.00    +0.000 C 
ATOM      4  C   UNL     1       9.495   0.160  22.907  0.00  0.00    +0.000 C 
ATOM      5  C   UNL     1      10.059   0.746  24.079  0.00  0.00    +0.000 C 
ATOM      6  C   UNL     1       8.952   0.311  25.376  0.00  0.00    +0.000 C 
ATOM      7  C   UNL     1       8.187   1.517  24.871  0.00  0.00    +0.000 C 
ATOM      8  C   UNL     1       7.431   2.555  25.539  0.00  0.00    +0.000 C 
ATOM      9  N   UNL     1       6.158   2.031  26.040  0.00  0.00    +0.000 NA
ATOM     10  C   UNL     1       7.022   3.565  24.425  0.00  0.00    +0.000 C 
ATOM     11  C   UNL     1       8.115   4.031  23.565  0.00  0.00    +0.000 C 
ATOM     12  C   UNL     1       9.133   2.976  23.137  0.00  0.00    +0.000 C 
ATOM     13  C   UNL     1       9.503   2.155  24.270  0.00  0.00    +0.000 C 
ATOM     14  C   UNL     1      11.326   0.434  24.655  0.00  0.00    +0.000 C 
ENDROOT
BRANCH   4  15
ATOM     15  C   UNL     1       9.654  -1.195  22.490  0.00  0.00    +0.000 C 
ATOM     16  O   UNL     1      10.738  -1.747  22.278  0.00  0.00    +0.000 OA
ATOM     17  O   UNL     1       8.640  -1.486  21.614  0.00  0.00    +0.000 OA
ENDBRANCH   4  15
BRANCH   1  18
ATOM     18  N   UNL     1       5.806  -1.137  24.703  0.00  0.00    +0.000 NA
BRANCH  18  19
ATOM     19  C   UNL     1       6.054  -2.333  23.885  0.00  0.00    +0.000 C 
BRANCH  19  23
ATOM     20  C   UNL     1       7.857  -4.118  26.389  0.00  0.00    +0.000 C 
ATOM     21  C   UNL     1       8.329  -5.035  25.244  0.00  0.00    +0.000 C 
ATOM     22  C   UNL     1       7.877  -4.155  23.955  0.00  0.00    +0.000 C 
ATOM     23  C   UNL     1       6.709  -3.433  24.558  0.00  0.00    +0.000 C 
ATOM     24  O   UNL     1       7.287  -2.956  25.807  0.00  0.00    +0.000 OA
BRANCH  20  26
ATOM     25  O   UNL     1       7.393  -5.873  27.868  0.00  0.00    +0.000 OA
ATOM     26  C   UNL     1       6.772  -4.753  27.218  0.00  0.00    +0.000 C 
ENDBRANCH  20  26
BRANCH  22  27
ATOM     27  C   UNL     1       7.426  -5.129  22.971  0.00  0.00    +0.000 C 
ATOM     28  N   UNL     1       7.273  -5.809  22.049  0.00  0.00    +0.000 NA
ENDBRANCH  22  27
ENDBRANCH  19  23
ENDBRANCH  18  19
ENDBRANCH   1  18
TORSDOF 6
ENDMDL
MODEL 9
REMARK VINA RESULT:      -6.8      2.345      7.004
REMARK  Name = 
REMARK  6 active torsions:
REMARK  status: ('A' for Active; 'I' for Inactive)
REMARK    1  A    between atoms: C_2  and  C_3
REMARK    2  A    between atoms: C_6  and  C_30
REMARK    3  A    between atoms: C_7  and  C_10
REMARK    4  A    between atoms: C_10  and  N_11
REMARK    5  A    between atoms: N_11  and  C_12
REMARK    6  A    between atoms: C_15  and  C_16
REMARK                            x       y       z     vdW  Elec       q    Type
REMARK                         _______ _______ _______ _____ _____    ______ ____
ROOT
ATOM      1  C   UNL     1       5.543  -3.210  23.333  0.00  0.00    +0.000 C 
ATOM      2  C   UNL     1       6.059  -3.617  24.513  0.00  0.00    +0.000 C 
ATOM      3  C   UNL     1       6.796  -2.688  25.473  0.00  0.00    +0.000 C 
ATOM      4  C   UNL     1       8.277  -3.034  25.353  0.00  0.00    +0.000 C 
ATOM      5  C   UNL     1       8.521  -4.438  25.399  0.00  0.00    +0.000 C 
ATOM      6  C   UNL     1       7.772  -5.072  23.938  0.00  0.00    +0.000 C 
ATOM      7  C   UNL     1       6.521  -5.037  24.792  0.00  0.00    +0.000 C 
ATOM      8  C   UNL     1       5.379  -5.919  24.904  0.00  0.00    +0.000 C 
ATOM      9  N   UNL     1       4.510  -5.796  23.730  0.00  0.00    +0.000 NA
ATOM     10  C   UNL     1       4.524  -5.357  26.079  0.00  0.00    +0.000 C 
ATOM     11  C   UNL     1       5.254  -5.106  27.326  0.00  0.00    +0.000 C 
ATOM     12  C   UNL     1       6.640  -4.481  27.181  0.00  0.00    +0.000 C 
ATOM     13  C   UNL     1       7.373  -5.139  26.121  0.00  0.00    +0.000 C 
ATOM     14  C   UNL     1       9.797  -5.076  25.377  0.00  0.00    +0.000 C 
ENDROOT
BRANCH   4  15
ATOM     15  C   UNL     1       9.046  -2.074  24.630  0.00  0.00    +0.000 C 
ATOM     16  O   UNL     1       9.943  -2.346  23.827  0.00  0.00    +0.000 OA
ATOM     17  O   UNL     1       9.276  -1.008  25.462  0.00  0.00    +0.000 OA
ENDBRANCH   4  15
BRANCH   1  18
ATOM     18  N   UNL     1       5.662  -3.075  21.937  0.00  0.00    +0.000 NA
BRANCH  18  19
ATOM     19  C   UNL     1       6.911  -2.391  21.571  0.00  0.00    +0.000 C 
BRANCH  19  23
ATOM     20  C   UNL     1       7.139   0.625  19.685  0.00  0.00    +0.000 C 
ATOM     21  C   UNL     1       7.209   1.344  21.047  0.00  0.00    +0.000 C 
ATOM     22  C   UNL     1       7.471   0.082  22.035  0.00  0.00    +0.000 C 
ATOM     23  C   UNL     1       6.789  -0.989  21.238  0.00  0.00    +0.000 C 
ATOM     24  O   UNL     1       7.353  -0.759  19.915  0.00  0.00    +0.000 OA
BRANCH  20  26
ATOM     25  O   UNL     1       5.129   1.825  19.731  0.00  0.00    +0.000 OA
ATOM     26  C   UNL     1       5.781   0.744  19.047  0.00  0.00    +0.000 C 
ENDBRANCH  20  26
BRANCH  22  27
ATOM     27  C   UNL     1       6.714   0.384  23.242  0.00  0.00    +0.000 C 
ATOM     28  N   UNL     1       6.342   0.735  24.278  0.00  0.00    +0.000 NA
ENDBRANCH  22  27
ENDBRANCH  19  23
ENDBRANCH  18  19
ENDBRANCH   1  18
TORSDOF 6
ENDMDL
