MODEL 1
REMARK VINA RESULT:      -8.1      0.000      0.000
REMARK  Name = 
REMARK  6 active torsions:
REMARK  status: ('A' for Active; 'I' for Inactive)
REMARK    1  A    between atoms: C_2  and  C_3
REMARK    2  A    between atoms: C_4  and  C_5
REMARK    3  A    between atoms: C_5  and  N_6
REMARK    4  A    between atoms: N_6  and  C_7
REMARK    5  A    between atoms: C_12  and  N_13
REMARK    6  A    between atoms: N_13  and  C_14
REMARK                            x       y       z     vdW  Elec       q    Type
REMARK                         _______ _______ _______ _____ _____    ______ ____
ROOT
ATOM      1  C   UNL     1       9.841  -0.712  22.431  0.00  0.00    +0.000 C 
ATOM      2  C   UNL     1       9.875   0.765  22.502  0.00  0.00    +0.000 C 
ATOM      3  C   UNL     1      10.253   1.312  23.808  0.00  0.00    +0.000 C 
ATOM      4  C   UNL     1      10.067   0.656  25.025  0.00  0.00    +0.000 C 
ATOM      5  C   UNL     1       9.724  -0.754  24.976  0.00  0.00    +0.000 C 
ATOM      6  C   UNL     1       9.665  -1.408  23.731  0.00  0.00    +0.000 C 
ATOM      7  F   UNL     1      11.111   2.334  23.884  0.00  0.00    +0.000 F 
ENDROOT
BRANCH   1   8
ATOM      8  N   UNL     1       8.961  -1.216  21.430  0.00  0.00    +0.000 NA
BRANCH   8   9
ATOM      9  C   UNL     1       8.502  -0.190  20.585  0.00  0.00    +0.000 C 
BRANCH   9  11
ATOM     10  C   UNL     1       6.498  -0.331  18.987  0.00  0.00    +0.000 C 
ATOM     11  C   UNL     1       7.006  -0.361  20.244  0.00  0.00    +0.000 C 
ATOM     12  F   UNL     1       6.555  -1.492  20.955  0.00  0.00    +0.000 F 
BRANCH  10  14
ATOM     13  O   UNL     1       6.342   1.323  17.282  0.00  0.00    +0.000 OA
ATOM     14  C   UNL     1       5.585   0.536  18.154  0.00  0.00    +0.000 C 
ENDBRANCH  10  14
ENDBRANCH   9  11
ENDBRANCH   8   9
ENDBRANCH   1   8
BRANCH   6  15
ATOM     15  N   UNL     1      10.158  -2.743  23.710  0.00  0.00    +0.000 NA
BRANCH  15  16
ATOM     16  C   UNL     1       9.135  -3.640  24.099  0.00  0.00    +0.000 C 
ATOM     17  C   UNL     1       7.904  -3.922  23.471  0.00  0.00    +0.000 C 
ATOM     18  C   UNL     1       7.600  -5.391  23.093  0.00  0.00    +0.000 C 
ATOM     19  C   UNL     1       6.068  -5.636  23.136  0.00  0.00    +0.000 C 
ATOM     20  C   UNL     1       5.530  -4.438  24.056  0.00  0.00    +0.000 C 
ATOM     21  C   UNL     1       6.654  -3.443  24.119  0.00  0.00    +0.000 C 
ATOM     22  C   UNL     1       6.442  -1.997  24.138  0.00  0.00    +0.000 C 
ATOM     23  C   UNL     1       6.090  -1.403  25.488  0.00  0.00    +0.000 C 
ATOM     24  C   UNL     1       6.671  -2.225  26.617  0.00  0.00    +0.000 C 
ATOM     25  C   UNL     1       6.032  -3.644  26.581  0.00  0.00    +0.000 C 
ATOM     26  C   UNL     1       6.224  -4.299  25.283  0.00  0.00    +0.000 C 
ATOM     27  N   UNL     1       6.755  -4.412  27.609  0.00  0.00    +0.000 NA
ATOM     28  C   UNL     1       4.164  -3.954  23.733  0.00  0.00    +0.000 C 
ENDBRANCH  15  16
ENDBRANCH   6  15
TORSDOF 6
ENDMDL
MODEL 2
REMARK VINA RESULT:      -7.8      1.517      1.656
REMARK  Name = 
REMARK  6 active torsions:
REMARK  status: ('A' for Active; 'I' for Inactive)
REMARK    1  A    between atoms: C_2  and  C_3
REMARK    2  A    between atoms: C_4  and  C_5
REMARK    3  A    between atoms: C_5  and  N_6
REMARK    4  A    between atoms: N_6  and  C_7
REMARK    5  A    between atoms: C_12  and  N_13
REMARK    6  A    between atoms: N_13  and  C_14
REMARK                            x       y       z     vdW  Elec       q    Type
REMARK                         _______ _______ _______ _____ _____    ______ ____
ROOT
ATOM      1  C   UNL     1       8.868   0.758  22.409  0.00  0.00    +0.000 C 
ATOM      2  C   UNL     1       9.334   2.006  23.050  0.00  0.00    +0.000 C 
ATOM      3  C   UNL     1      10.489   1.852  23.938  0.00  0.00    +0.000 C 
ATOM      4  C   UNL     1      10.822   0.674  24.607  0.00  0.00    +0.000 C 
ATOM      5  C   UNL     1      10.141  -0.541  24.195  0.00  0.00    +0.000 C 
ATOM      6  C   UNL     1       9.243  -0.496  23.111  0.00  0.00    +0.000 C 
ATOM      7  F   UNL     1      11.490   2.737  23.897  0.00  0.00    +0.000 F 
ENDROOT
BRANCH   1   8
ATOM      8  N   UNL     1       7.490   0.778  22.050  0.00  0.00    +0.000 NA
BRANCH   8   9
ATOM      9  C   UNL     1       7.310   1.237  20.732  0.00  0.00    +0.000 C 
BRANCH   9  11
ATOM     10  C   UNL     1       6.063  -0.722  19.639  0.00  0.00    +0.000 C 
ATOM     11  C   UNL     1       7.162   0.066  19.738  0.00  0.00    +0.000 C 
ATOM     12  F   UNL     1       7.563   0.553  18.476  0.00  0.00    +0.000 F 
BRANCH  10  14
ATOM     13  O   UNL     1       5.415  -2.794  18.663  0.00  0.00    +0.000 OA
ATOM     14  C   UNL     1       5.675  -2.160  19.881  0.00  0.00    +0.000 C 
ENDBRANCH  10  14
ENDBRANCH   9  11
ENDBRANCH   8   9
ENDBRANCH   1   8
BRANCH   6  15
ATOM     15  N   UNL     1       9.264  -1.625  22.245  0.00  0.00    +0.000 NA
BRANCH  15  16
ATOM     16  C   UNL     1       8.675  -2.738  22.891  0.00  0.00    +0.000 C 
ATOM     17  C   UNL     1       7.358  -3.233  22.802  0.00  0.00    +0.000 C 
ATOM     18  C   UNL     1       7.162  -4.708  22.378  0.00  0.00    +0.000 C 
ATOM     19  C   UNL     1       5.867  -5.270  23.021  0.00  0.00    +0.000 C 
ATOM     20  C   UNL     1       5.599  -4.268  24.244  0.00  0.00    +0.000 C 
ATOM     21  C   UNL     1       6.458  -3.066  23.975  0.00  0.00    +0.000 C 
ATOM     22  C   UNL     1       6.045  -1.700  24.290  0.00  0.00    +0.000 C 
ATOM     23  C   UNL     1       6.228  -1.274  25.733  0.00  0.00    +0.000 C 
ATOM     24  C   UNL     1       7.371  -2.022  26.384  0.00  0.00    +0.000 C 
ATOM     25  C   UNL     1       7.020  -3.539  26.414  0.00  0.00    +0.000 C 
ATOM     26  C   UNL     1       6.728  -4.060  25.075  0.00  0.00    +0.000 C 
ATOM     27  N   UNL     1       8.234  -4.199  26.923  0.00  0.00    +0.000 NA
ATOM     28  C   UNL     1       4.171  -4.062  24.596  0.00  0.00    +0.000 C 
ENDBRANCH  15  16
ENDBRANCH   6  15
TORSDOF 6
ENDMDL
MODEL 3
REMARK VINA RESULT:      -7.6      1.818      2.451
REMARK  Name = 
REMARK  6 active torsions:
REMARK  status: ('A' for Active; 'I' for Inactive)
REMARK    1  A    between atoms: C_2  and  C_3
REMARK    2  A    between atoms: C_4  and  C_5
REMARK    3  A    between atoms: C_5  and  N_6
REMARK    4  A    between atoms: N_6  and  C_7
REMARK    5  A    between atoms: C_12  and  N_13
REMARK    6  A    between atoms: N_13  and  C_14
REMARK                            x       y       z     vdW  Elec       q    Type
REMARK                         _______ _______ _______ _____ _____    ______ ____
ROOT
ATOM      1  C   UNL     1       9.476   1.629  23.197  0.00  0.00    +0.000 C 
ATOM      2  C   UNL     1       8.886   2.953  23.489  0.00  0.00    +0.000 C 
ATOM      3  C   UNL     1       8.380   3.117  24.854  0.00  0.00    +0.000 C 
ATOM      4  C   UNL     1       7.941   2.071  25.667  0.00  0.00    +0.000 C 
ATOM      5  C   UNL     1       8.248   0.719  25.236  0.00  0.00    +0.000 C 
ATOM      6  C   UNL     1       9.024   0.522  24.078  0.00  0.00    +0.000 C 
ATOM      7  F   UNL     1       8.626   4.244  25.530  0.00  0.00    +0.000 F 
ENDROOT
BRANCH   1   8
ATOM      8  N   UNL     1       9.426   1.271  21.819  0.00  0.00    +0.000 NA
BRANCH   8   9
ATOM      9  C   UNL     1       8.126   1.408  21.300  0.00  0.00    +0.000 C 
BRANCH   9  11
ATOM     10  C   UNL     1       7.312   0.471  19.053  0.00  0.00    +0.000 C 
ATOM     11  C   UNL     1       7.788   0.275  20.308  0.00  0.00    +0.000 C 
ATOM     12  F   UNL     1       8.888  -0.608  20.310  0.00  0.00    +0.000 F 
BRANCH  10  14
ATOM     13  O   UNL     1       6.063  -1.092  17.763  0.00  0.00    +0.000 OA
ATOM     14  C   UNL     1       6.050   0.211  18.266  0.00  0.00    +0.000 C 
ENDBRANCH  10  14
ENDBRANCH   9  11
ENDBRANCH   8   9
ENDBRANCH   1   8
BRANCH   6  15
ATOM     15  N   UNL     1       9.957  -0.551  24.134  0.00  0.00    +0.000 NA
BRANCH  15  16
ATOM     16  C   UNL     1       9.323  -1.713  24.636  0.00  0.00    +0.000 C 
ATOM     17  C   UNL     1       9.299  -3.021  24.110  0.00  0.00    +0.000 C 
ATOM     18  C   UNL     1       9.795  -4.177  25.011  0.00  0.00    +0.000 C 
ATOM     19  C   UNL     1       9.051  -5.487  24.637  0.00  0.00    +0.000 C 
ATOM     20  C   UNL     1       7.743  -4.961  23.872  0.00  0.00    +0.000 C 
ATOM     21  C   UNL     1       8.027  -3.526  23.530  0.00  0.00    +0.000 C 
ATOM     22  C   UNL     1       7.581  -2.896  22.289  0.00  0.00    +0.000 C 
ATOM     23  C   UNL     1       6.142  -2.420  22.274  0.00  0.00    +0.000 C 
ATOM     24  C   UNL     1       5.669  -2.060  23.666  0.00  0.00    +0.000 C 
ATOM     25  C   UNL     1       5.700  -3.342  24.549  0.00  0.00    +0.000 C 
ATOM     26  C   UNL     1       7.030  -3.959  24.574  0.00  0.00    +0.000 C 
ATOM     27  N   UNL     1       5.371  -2.875  25.907  0.00  0.00    +0.000 NA
ATOM     28  C   UNL     1       7.225  -5.860  22.810  0.00  0.00    +0.000 C 
ENDBRANCH  15  16
ENDBRANCH   6  15
TORSDOF 6
ENDMDL
MODEL 4
REMARK VINA RESULT:      -7.4      2.440      4.919
REMARK  Name = 
REMARK  6 active torsions:
REMARK  status: ('A' for Active; 'I' for Inactive)
REMARK    1  A    between atoms: C_2  and  C_3
REMARK    2  A    between atoms: C_4  and  C_5
REMARK    3  A    between atoms: C_5  and  N_6
REMARK    4  A    between atoms: N_6  and  C_7
REMARK    5  A    between atoms: C_12  and  N_13
REMARK    6  A    between atoms: N_13  and  C_14
REMARK                            x       y       z     vdW  Elec       q    Type
REMARK                         _______ _______ _______ _____ _____    ______ ____
ROOT
ATOM      1  C   UNL     1       7.911   0.107  20.975  0.00  0.00    +0.000 C 
ATOM      2  C   UNL     1       7.659   0.161  19.519  0.00  0.00    +0.000 C 
ATOM      3  C   UNL     1       6.422  -0.489  19.080  0.00  0.00    +0.000 C 
ATOM      4  C   UNL     1       5.792  -1.532  19.760  0.00  0.00    +0.000 C 
ATOM      5  C   UNL     1       6.240  -1.812  21.113  0.00  0.00    +0.000 C 
ATOM      6  C   UNL     1       7.221  -0.991  21.700  0.00  0.00    +0.000 C 
ATOM      7  F   UNL     1       5.635   0.105  18.178  0.00  0.00    +0.000 F 
ENDROOT
BRANCH   1   8
ATOM      8  N   UNL     1       9.290   0.193  21.322  0.00  0.00    +0.000 NA
BRANCH   8   9
ATOM      9  C   UNL     1       9.642   1.499  21.708  0.00  0.00    +0.000 C 
BRANCH   9  11
ATOM     10  C   UNL     1      10.438   0.497  23.932  0.00  0.00    +0.000 C 
ATOM     11  C   UNL     1      10.038   1.564  23.198  0.00  0.00    +0.000 C 
ATOM     12  F   UNL     1      10.931   2.647  23.333  0.00  0.00    +0.000 F 
BRANCH  10  14
ATOM     13  O   UNL     1       8.825   0.287  25.670  0.00  0.00    +0.000 OA
ATOM     14  C   UNL     1       9.950  -0.319  25.105  0.00  0.00    +0.000 C 
ENDBRANCH  10  14
ENDBRANCH   9  11
ENDBRANCH   8   9
ENDBRANCH   1   8
BRANCH   6  15
ATOM     15  N   UNL     1       7.045  -0.710  23.084  0.00  0.00    +0.000 NA
BRANCH  15  16
ATOM     16  C   UNL     1       6.150  -1.646  23.654  0.00  0.00    +0.000 C 
ATOM     17  C   UNL     1       6.213  -2.304  24.900  0.00  0.00    +0.000 C 
ATOM     18  C   UNL     1       5.013  -2.152  25.864  0.00  0.00    +0.000 C 
ATOM     19  C   UNL     1       4.888  -3.422  26.748  0.00  0.00    +0.000 C 
ATOM     20  C   UNL     1       5.704  -4.527  25.920  0.00  0.00    +0.000 C 
ATOM     21  C   UNL     1       6.516  -3.759  24.917  0.00  0.00    +0.000 C 
ATOM     22  C   UNL     1       7.867  -4.149  24.514  0.00  0.00    +0.000 C 
ATOM     23  C   UNL     1       7.951  -5.242  23.467  0.00  0.00    +0.000 C 
ATOM     24  C   UNL     1       6.730  -5.240  22.573  0.00  0.00    +0.000 C 
ATOM     25  C   UNL     1       5.477  -5.557  23.441  0.00  0.00    +0.000 C 
ATOM     26  C   UNL     1       5.330  -4.616  24.556  0.00  0.00    +0.000 C 
ATOM     27  N   UNL     1       4.332  -5.390  22.529  0.00  0.00    +0.000 NA
ATOM     28  C   UNL     1       6.377  -5.566  26.740  0.00  0.00    +0.000 C 
ENDBRANCH  15  16
ENDBRANCH   6  15
TORSDOF 6
ENDMDL
MODEL 5
REMARK VINA RESULT:      -7.3      2.519      4.492
REMARK  Name = 
REMARK  6 active torsions:
REMARK  status: ('A' for Active; 'I' for Inactive)
REMARK    1  A    between atoms: C_2  and  C_3
REMARK    2  A    between atoms: C_4  and  C_5
REMARK    3  A    between atoms: C_5  and  N_6
REMARK    4  A    between atoms: N_6  and  C_7
REMARK    5  A    between atoms: C_12  and  N_13
REMARK    6  A    between atoms: N_13  and  C_14
REMARK                            x       y       z     vdW  Elec       q    Type
REMARK                         _______ _______ _______ _____ _____    ______ ____
ROOT
ATOM      1  C   UNL     1       7.358   0.108  21.027  0.00  0.00    +0.000 C 
ATOM      2  C   UNL     1       7.266   0.628  19.646  0.00  0.00    +0.000 C 
ATOM      3  C   UNL     1       6.223   0.012  18.821  0.00  0.00    +0.000 C 
ATOM      4  C   UNL     1       5.720  -1.275  19.013  0.00  0.00    +0.000 C 
ATOM      5  C   UNL     1       6.056  -1.943  20.258  0.00  0.00    +0.000 C 
ATOM      6  C   UNL     1       6.801  -1.253  21.234  0.00  0.00    +0.000 C 
ATOM      7  F   UNL     1       5.449   0.771  18.041  0.00  0.00    +0.000 F 
ENDROOT
BRANCH   1   8
ATOM      8  N   UNL     1       8.651   0.251  21.608  0.00  0.00    +0.000 NA
BRANCH   8   9
ATOM      9  C   UNL     1       9.373  -0.956  21.556  0.00  0.00    +0.000 C 
BRANCH   9  11
ATOM     10  C   UNL     1       9.900  -0.539  24.033  0.00  0.00    +0.000 C 
ATOM     11  C   UNL     1      10.083  -1.251  22.894  0.00  0.00    +0.000 C 
ATOM     12  F   UNL     1       9.952  -2.636  23.125  0.00  0.00    +0.000 F 
BRANCH  10  14
ATOM     13  O   UNL     1      11.074   1.522  24.236  0.00  0.00    +0.000 OA
ATOM     14  C   UNL     1      10.690   0.376  24.937  0.00  0.00    +0.000 C 
ENDBRANCH  10  14
ENDBRANCH   9  11
ENDBRANCH   8   9
ENDBRANCH   1   8
BRANCH   6  15
ATOM     15  N   UNL     1       6.422  -1.492  22.584  0.00  0.00    +0.000 NA
BRANCH  15  16
ATOM     16  C   UNL     1       6.552  -2.869  22.883  0.00  0.00    +0.000 C 
ATOM     17  C   UNL     1       5.672  -3.724  23.578  0.00  0.00    +0.000 C 
ATOM     18  C   UNL     1       5.178  -5.001  22.860  0.00  0.00    +0.000 C 
ATOM     19  C   UNL     1       4.892  -6.112  23.905  0.00  0.00    +0.000 C 
ATOM     20  C   UNL     1       5.729  -5.635  25.187  0.00  0.00    +0.000 C 
ATOM     21  C   UNL     1       6.065  -4.193  24.933  0.00  0.00    +0.000 C 
ATOM     22  C   UNL     1       6.100  -3.182  25.989  0.00  0.00    +0.000 C 
ATOM     23  C   UNL     1       7.371  -3.139  26.815  0.00  0.00    +0.000 C 
ATOM     24  C   UNL     1       8.561  -3.621  26.015  0.00  0.00    +0.000 C 
ATOM     25  C   UNL     1       8.334  -5.114  25.635  0.00  0.00    +0.000 C 
ATOM     26  C   UNL     1       7.078  -5.308  24.903  0.00  0.00    +0.000 C 
ATOM     27  N   UNL     1       9.457  -5.454  24.744  0.00  0.00    +0.000 NA
ATOM     28  C   UNL     1       5.150  -6.014  26.501  0.00  0.00    +0.000 C 
ENDBRANCH  15  16
ENDBRANCH   6  15
TORSDOF 6
ENDMDL
MODEL 6
REMARK VINA RESULT:      -7.3      2.589      4.664
REMARK  Name = 
REMARK  6 active torsions:
REMARK  status: ('A' for Active; 'I' for Inactive)
REMARK    1  A    between atoms: C_2  and  C_3
REMARK    2  A    between atoms: C_4  and  C_5
REMARK    3  A    between atoms: C_5  and  N_6
REMARK    4  A    between atoms: N_6  and  C_7
REMARK    5  A    between atoms: C_12  and  N_13
REMARK    6  A    between atoms: N_13  and  C_14
REMARK                            x       y       z     vdW  Elec       q    Type
REMARK                         _______ _______ _______ _____ _____    ______ ____
ROOT
ATOM      1  C   UNL     1       7.280   1.382  21.397  0.00  0.00    +0.000 C 
ATOM      2  C   UNL     1       6.173   1.755  20.491  0.00  0.00    +0.000 C 
ATOM      3  C   UNL     1       5.922   0.811  19.399  0.00  0.00    +0.000 C 
ATOM      4  C   UNL     1       6.882  -0.042  18.854  0.00  0.00    +0.000 C 
ATOM      5  C   UNL     1       8.130  -0.192  19.582  0.00  0.00    +0.000 C 
ATOM      6  C   UNL     1       8.289   0.457  20.821  0.00  0.00    +0.000 C 
ATOM      7  F   UNL     1       4.669   0.466  19.084  0.00  0.00    +0.000 F 
ENDROOT
BRANCH   1   8
ATOM      8  N   UNL     1       7.886   2.495  22.050  0.00  0.00    +0.000 NA
BRANCH   8   9
ATOM      9  C   UNL     1       7.364   2.676  23.343  0.00  0.00    +0.000 C 
BRANCH   9  11
ATOM     10  C   UNL     1       9.654   2.193  24.396  0.00  0.00    +0.000 C 
ATOM     11  C   UNL     1       8.303   2.094  24.421  0.00  0.00    +0.000 C 
ATOM     12  F   UNL     1       7.780   2.488  25.670  0.00  0.00    +0.000 F 
BRANCH  10  14
ATOM     13  O   UNL     1      10.677   0.138  25.027  0.00  0.00    +0.000 OA
ATOM     14  C   UNL     1      10.855   1.288  24.255  0.00  0.00    +0.000 C 
ENDBRANCH  10  14
ENDBRANCH   9  11
ENDBRANCH   8   9
ENDBRANCH   1   8
BRANCH   6  15
ATOM     15  N   UNL     1       8.993  -0.277  21.817  0.00  0.00    +0.000 NA
BRANCH  15  16
ATOM     16  C   UNL     1       8.346  -1.514  22.049  0.00  0.00    +0.000 C 
ATOM     17  C   UNL     1       7.025  -1.771  22.470  0.00  0.00    +0.000 C 
ATOM     18  C   UNL     1       6.139  -2.672  21.578  0.00  0.00    +0.000 C 
ATOM     19  C   UNL     1       5.107  -3.426  22.458  0.00  0.00    +0.000 C 
ATOM     20  C   UNL     1       5.752  -3.354  23.925  0.00  0.00    +0.000 C 
ATOM     21  C   UNL     1       6.810  -2.291  23.846  0.00  0.00    +0.000 C 
ATOM     22  C   UNL     1       7.103  -1.370  24.944  0.00  0.00    +0.000 C 
ATOM     23  C   UNL     1       7.997  -1.917  26.039  0.00  0.00    +0.000 C 
ATOM     24  C   UNL     1       8.935  -2.977  25.503  0.00  0.00    +0.000 C 
ATOM     25  C   UNL     1       8.086  -4.177  24.987  0.00  0.00    +0.000 C 
ATOM     26  C   UNL     1       7.108  -3.762  23.977  0.00  0.00    +0.000 C 
ATOM     27  N   UNL     1       9.059  -5.085  24.356  0.00  0.00    +0.000 NA
ATOM     28  C   UNL     1       4.779  -3.313  25.045  0.00  0.00    +0.000 C 
ENDBRANCH  15  16
ENDBRANCH   6  15
TORSDOF 6
ENDMDL
MODEL 7
REMARK VINA RESULT:      -7.0      1.952      2.435
REMARK  Name = 
REMARK  6 active torsions:
REMARK  status: ('A' for Active; 'I' for Inactive)
REMARK    1  A    between atoms: C_2  and  C_3
REMARK    2  A    between atoms: C_4  and  C_5
REMARK    3  A    between atoms: C_5  and  N_6
REMARK    4  A    between atoms: N_6  and  C_7
REMARK    5  A    between atoms: C_12  and  N_13
REMARK    6  A    between atoms: N_13  and  C_14
REMARK                            x       y       z     vdW  Elec       q    Type
REMARK                         _______ _______ _______ _____ _____    ______ ____
ROOT
ATOM      1  C   UNL     1       9.584   1.738  23.371  0.00  0.00    +0.000 C 
ATOM      2  C   UNL     1       9.114   3.122  23.589  0.00  0.00    +0.000 C 
ATOM      3  C   UNL     1       8.443   3.354  24.871  0.00  0.00    +0.000 C 
ATOM      4  C   UNL     1       7.778   2.371  25.605  0.00  0.00    +0.000 C 
ATOM      5  C   UNL     1       7.986   0.989  25.210  0.00  0.00    +0.000 C 
ATOM      6  C   UNL     1       8.889   0.696  24.170  0.00  0.00    +0.000 C 
ATOM      7  F   UNL     1       8.719   4.450  25.584  0.00  0.00    +0.000 F 
ENDROOT
BRANCH   1   8
ATOM      8  N   UNL     1       9.687   1.377  21.996  0.00  0.00    +0.000 NA
BRANCH   8   9
ATOM      9  C   UNL     1       8.460   1.543  21.329  0.00  0.00    +0.000 C 
BRANCH   9  11
ATOM     10  C   UNL     1       7.474   0.316  19.301  0.00  0.00    +0.000 C 
ATOM     11  C   UNL     1       8.083   0.289  20.512  0.00  0.00    +0.000 C 
ATOM     12  F   UNL     1       9.223  -0.542  20.497  0.00  0.00    +0.000 F 
BRANCH  10  14
ATOM     13  O   UNL     1       5.982   0.568  17.463  0.00  0.00    +0.000 OA
ATOM     14  C   UNL     1       6.155  -0.084  18.687  0.00  0.00    +0.000 C 
ENDBRANCH  10  14
ENDBRANCH   9  11
ENDBRANCH   8   9
ENDBRANCH   1   8
BRANCH   6  15
ATOM     15  N   UNL     1       9.676  -0.476  24.347  0.00  0.00    +0.000 NA
BRANCH  15  16
ATOM     16  C   UNL     1       9.002  -1.594  23.802  0.00  0.00    +0.000 C 
ATOM     17  C   UNL     1       7.618  -1.833  23.673  0.00  0.00    +0.000 C 
ATOM     18  C   UNL     1       7.058  -2.131  22.263  0.00  0.00    +0.000 C 
ATOM     19  C   UNL     1       5.813  -3.051  22.377  0.00  0.00    +0.000 C 
ATOM     20  C   UNL     1       5.975  -3.709  23.831  0.00  0.00    +0.000 C 
ATOM     21  C   UNL     1       6.995  -2.867  24.542  0.00  0.00    +0.000 C 
ATOM     22  C   UNL     1       6.927  -2.564  25.971  0.00  0.00    +0.000 C 
ATOM     23  C   UNL     1       7.447  -3.644  26.898  0.00  0.00    +0.000 C 
ATOM     24  C   UNL     1       8.515  -4.478  26.223  0.00  0.00    +0.000 C 
ATOM     25  C   UNL     1       7.878  -5.211  25.006  0.00  0.00    +0.000 C 
ATOM     26  C   UNL     1       7.253  -4.274  24.067  0.00  0.00    +0.000 C 
ATOM     27  N   UNL     1       9.007  -5.873  24.329  0.00  0.00    +0.000 NA
ATOM     28  C   UNL     1       4.704  -4.033  24.527  0.00  0.00    +0.000 C 
ENDBRANCH  15  16
ENDBRANCH   6  15
TORSDOF 6
ENDMDL
MODEL 8
REMARK VINA RESULT:      -7.0      3.486      6.268
REMARK  Name = 
REMARK  6 active torsions:
REMARK  status: ('A' for Active; 'I' for Inactive)
REMARK    1  A    between atoms: C_2  and  C_3
REMARK    2  A    between atoms: C_4  and  C_5
REMARK    3  A    between atoms: C_5  and  N_6
REMARK    4  A    between atoms: N_6  and  C_7
REMARK    5  A    between atoms: C_12  and  N_13
REMARK    6  A    between atoms: N_13  and  C_14
REMARK                            x       y       z     vdW  Elec       q    Type
REMARK                         _______ _______ _______ _____ _____    ______ ____
ROOT
ATOM      1  C   UNL     1       6.865  -2.350  22.969  0.00  0.00    +0.000 C 
ATOM      2  C   UNL     1       7.334  -3.033  24.194  0.00  0.00    +0.000 C 
ATOM      3  C   UNL     1       8.720  -2.743  24.571  0.00  0.00    +0.000 C 
ATOM      4  C   UNL     1       9.720  -2.359  23.677  0.00  0.00    +0.000 C 
ATOM      5  C   UNL     1       9.305  -1.968  22.342  0.00  0.00    +0.000 C 
ATOM      6  C   UNL     1       7.933  -1.922  22.030  0.00  0.00    +0.000 C 
ATOM      7  F   UNL     1       9.031  -2.501  25.848  0.00  0.00    +0.000 F 
ENDROOT
BRANCH   1   8
ATOM      8  N   UNL     1       5.807  -3.033  22.302  0.00  0.00    +0.000 NA
BRANCH   8   9
ATOM      9  C   UNL     1       6.294  -4.110  21.538  0.00  0.00    +0.000 C 
BRANCH   9  11
ATOM     10  C   UNL     1       4.601  -5.594  22.771  0.00  0.00    +0.000 C 
ATOM     11  C   UNL     1       5.731  -5.458  22.035  0.00  0.00    +0.000 C 
ATOM     12  F   UNL     1       5.732  -6.331  20.927  0.00  0.00    +0.000 F 
BRANCH  10  14
ATOM     13  O   UNL     1       4.531  -7.371  24.354  0.00  0.00    +0.000 OA
ATOM     14  C   UNL     1       4.199  -6.027  24.161  0.00  0.00    +0.000 C 
ENDBRANCH  10  14
ENDBRANCH   9  11
ENDBRANCH   8   9
ENDBRANCH   1   8
BRANCH   6  15
ATOM     15  N   UNL     1       7.526  -0.850  21.187  0.00  0.00    +0.000 NA
BRANCH  15  16
ATOM     16  C   UNL     1       7.141   0.261  21.976  0.00  0.00    +0.000 C 
ATOM     17  C   UNL     1       7.478   1.623  21.833  0.00  0.00    +0.000 C 
ATOM     18  C   UNL     1       6.326   2.648  21.705  0.00  0.00    +0.000 C 
ATOM     19  C   UNL     1       6.775   4.014  22.290  0.00  0.00    +0.000 C 
ATOM     20  C   UNL     1       8.010   3.622  23.235  0.00  0.00    +0.000 C 
ATOM     21  C   UNL     1       8.402   2.230  22.826  0.00  0.00    +0.000 C 
ATOM     22  C   UNL     1       9.788   1.766  22.796  0.00  0.00    +0.000 C 
ATOM     23  C   UNL     1      10.367   1.337  24.130  0.00  0.00    +0.000 C 
ATOM     24  C   UNL     1       9.286   0.826  25.057  0.00  0.00    +0.000 C 
ATOM     25  C   UNL     1       8.299   1.992  25.360  0.00  0.00    +0.000 C 
ATOM     26  C   UNL     1       7.732   2.563  24.134  0.00  0.00    +0.000 C 
ATOM     27  N   UNL     1       7.211   1.375  26.140  0.00  0.00    +0.000 NA
ATOM     28  C   UNL     1       9.068   4.656  23.359  0.00  0.00    +0.000 C 
ENDBRANCH  15  16
ENDBRANCH   6  15
TORSDOF 6
ENDMDL
MODEL 9
REMARK VINA RESULT:      -7.0      3.176      6.648
REMARK  Name = 
REMARK  6 active torsions:
REMARK  status: ('A' for Active; 'I' for Inactive)
REMARK    1  A    between atoms: C_2  and  C_3
REMARK    2  A    between atoms: C_4  and  C_5
REMARK    3  A    between atoms: C_5  and  N_6
REMARK    4  A    between atoms: N_6  and  C_7
REMARK    5  A    between atoms: C_12  and  N_13
REMARK    6  A    between atoms: N_13  and  C_14
REMARK                            x       y       z     vdW  Elec       q    Type
REMARK                         _______ _______ _______ _____ _____    ______ ____
ROOT
ATOM      1  C   UNL     1       6.719  -3.309  25.555  0.00  0.00    +0.000 C 
ATOM      2  C   UNL     1       7.653  -4.173  26.307  0.00  0.00    +0.000 C 
ATOM      3  C   UNL     1       8.608  -4.918  25.483  0.00  0.00    +0.000 C 
ATOM      4  C   UNL     1       8.389  -5.284  24.154  0.00  0.00    +0.000 C 
ATOM      5  C   UNL     1       7.268  -4.666  23.469  0.00  0.00    +0.000 C 
ATOM      6  C   UNL     1       6.505  -3.688  24.134  0.00  0.00    +0.000 C 
ATOM      7  F   UNL     1       9.891  -4.999  25.849  0.00  0.00    +0.000 F 
ENDROOT
BRANCH   1   8
ATOM      8  N   UNL     1       5.490  -3.065  26.234  0.00  0.00    +0.000 NA
BRANCH   8   9
ATOM      9  C   UNL     1       4.977  -4.244  26.806  0.00  0.00    +0.000 C 
BRANCH   9  11
ATOM     10  C   UNL     1       3.373  -5.251  25.074  0.00  0.00    +0.000 C 
ATOM     11  C   UNL     1       3.584  -4.591  26.239  0.00  0.00    +0.000 C 
ATOM     12  F   UNL     1       2.847  -5.163  27.296  0.00  0.00    +0.000 F 
BRANCH  10  14
ATOM     13  O   UNL     1       3.710  -5.314  22.718  0.00  0.00    +0.000 OA
ATOM     14  C   UNL     1       2.783  -4.983  23.710  0.00  0.00    +0.000 C 
ENDBRANCH  10  14
ENDBRANCH   9  11
ENDBRANCH   8   9
ENDBRANCH   1   8
BRANCH   6  15
ATOM     15  N   UNL     1       6.068  -2.596  23.334  0.00  0.00    +0.000 NA
BRANCH  15  16
ATOM     16  C   UNL     1       7.125  -2.158  22.500  0.00  0.00    +0.000 C 
ATOM     17  C   UNL     1       8.221  -1.326  22.804  0.00  0.00    +0.000 C 
ATOM     18  C   UNL     1       9.644  -1.873  22.543  0.00  0.00    +0.000 C 
ATOM     19  C   UNL     1      10.604  -0.699  22.210  0.00  0.00    +0.000 C 
ATOM     20  C   UNL     1       9.607   0.474  21.762  0.00  0.00    +0.000 C 
ATOM     21  C   UNL     1       8.246   0.048  22.234  0.00  0.00    +0.000 C 
ATOM     22  C   UNL     1       7.247   0.984  22.746  0.00  0.00    +0.000 C 
ATOM     23  C   UNL     1       6.444   1.728  21.697  0.00  0.00    +0.000 C 
ATOM     24  C   UNL     1       6.324   0.918  20.424  0.00  0.00    +0.000 C 
ATOM     25  C   UNL     1       7.747   0.716  19.827  0.00  0.00    +0.000 C 
ATOM     26  C   UNL     1       8.658   0.081  20.785  0.00  0.00    +0.000 C 
ATOM     27  N   UNL     1       7.553  -0.196  18.686  0.00  0.00    +0.000 NA
ATOM     28  C   UNL     1      10.070   1.852  22.065  0.00  0.00    +0.000 C 
ENDBRANCH  15  16
ENDBRANCH   6  15
TORSDOF 6
ENDMDL
