MODEL 1
REMARK VINA RESULT:      -5.9      0.000      0.000
REMARK  Name = 
REMARK  3 active torsions:
REMARK  status: ('A' for Active; 'I' for Inactive)
REMARK    1  A    between atoms: N_5  and  C_6
REMARK    2  A    between atoms: C_7  and  C_12
REMARK    3  A    between atoms: C_12  and  C_14
REMARK                            x       y       z     vdW  Elec       q    Type
REMARK                         _______ _______ _______ _____ _____    ______ ____
ROOT
ATOM      1  C   UNL     1       7.745  -0.428  21.249  0.00  0.00    +0.000 C 
ATOM      2  C   UNL     1       8.215   0.554  22.117  0.00  0.00    +0.000 C 
ATOM      3  C   UNL     1       9.109  -0.131  23.251  0.00  0.00    +0.000 C 
ATOM      4  C   UNL     1       9.235  -1.587  22.798  0.00  0.00    +0.000 C 
ATOM      5  C   UNL     1       8.129  -1.910  21.782  0.00  0.00    +0.000 C 
ATOM      6  O   UNL     1      10.456  -1.699  22.099  0.00  0.00    +0.000 OA
ENDROOT
BRANCH   1  11
ATOM      7  C   UNL     1       4.885   1.302  18.909  0.00  0.00    +0.000 C 
ATOM      8  N   UNL     1       5.728   0.160  18.624  0.00  0.00    +0.000 NA
ATOM      9  C   UNL     1       6.835  -0.081  19.299  0.00  0.00    +0.000 C 
ATOM     10  O   UNL     1       7.944  -0.091  18.837  0.00  0.00    +0.000 OA
ATOM     11  N   UNL     1       6.561  -0.627  20.515  0.00  0.00    +0.000 NA
ENDBRANCH   1  11
BRANCH   2  12
ATOM     12  C   UNL     1       8.816   1.918  21.797  0.00  0.00    +0.000 C 
ATOM     13  C   UNL     1      10.280   1.883  22.196  0.00  0.00    +0.000 C 
BRANCH  12  14
ATOM     14  C   UNL     1       8.127   2.960  22.644  0.00  0.00    +0.000 C 
ATOM     15  O   UNL     1       8.146   2.859  23.865  0.00  0.00    +0.000 OA
ATOM     16  N   UNL     1       7.053   3.560  22.059  0.00  0.00    +0.000 NA
ATOM     17  C   UNL     1       5.782   2.859  22.053  0.00  0.00    +0.000 C 
ENDBRANCH  12  14
ENDBRANCH   2  12
TORSDOF 3
ENDMDL
MODEL 2
REMARK VINA RESULT:      -5.8      2.653      4.637
REMARK  Name = 
REMARK  3 active torsions:
REMARK  status: ('A' for Active; 'I' for Inactive)
REMARK    1  A    between atoms: N_5  and  C_6
REMARK    2  A    between atoms: C_7  and  C_12
REMARK    3  A    between atoms: C_12  and  C_14
REMARK                            x       y       z     vdW  Elec       q    Type
REMARK                         _______ _______ _______ _____ _____    ______ ____
ROOT
ATOM      1  C   UNL     1       6.830  -1.398  21.237  0.00  0.00    +0.000 C 
ATOM      2  C   UNL     1       8.027  -0.692  21.161  0.00  0.00    +0.000 C 
ATOM      3  C   UNL     1       8.007   0.238  19.862  0.00  0.00    +0.000 C 
ATOM      4  C   UNL     1       6.579   0.108  19.330  0.00  0.00    +0.000 C 
ATOM      5  C   UNL     1       5.923  -1.153  19.916  0.00  0.00    +0.000 C 
ATOM      6  O   UNL     1       5.847   1.203  19.837  0.00  0.00    +0.000 OA
ENDROOT
BRANCH   1  11
ATOM      7  C   UNL     1       7.636  -4.471  23.797  0.00  0.00    +0.000 C 
ATOM      8  N   UNL     1       6.403  -3.733  23.618  0.00  0.00    +0.000 NA
ATOM      9  C   UNL     1       6.370  -2.555  23.026  0.00  0.00    +0.000 C 
ATOM     10  O   UNL     1       6.036  -1.524  23.545  0.00  0.00    +0.000 OA
ATOM     11  N   UNL     1       6.454  -2.682  21.674  0.00  0.00    +0.000 NA
ENDBRANCH   1  11
BRANCH   2  12
ATOM     12  C   UNL     1       8.787   0.041  22.261  0.00  0.00    +0.000 C 
ATOM     13  C   UNL     1       9.450   1.255  21.634  0.00  0.00    +0.000 C 
BRANCH  12  14
ATOM     14  C   UNL     1       9.874  -0.866  22.785  0.00  0.00    +0.000 C 
ATOM     15  O   UNL     1      10.068  -1.951  22.250  0.00  0.00    +0.000 OA
ATOM     16  N   UNL     1      10.137  -0.740  24.115  0.00  0.00    +0.000 NA
ATOM     17  C   UNL     1       9.259  -1.401  25.063  0.00  0.00    +0.000 C 
ENDBRANCH  12  14
ENDBRANCH   2  12
TORSDOF 3
ENDMDL
MODEL 3
REMARK VINA RESULT:      -5.8      4.097      6.397
REMARK  Name = 
REMARK  3 active torsions:
REMARK  status: ('A' for Active; 'I' for Inactive)
REMARK    1  A    between atoms: N_5  and  C_6
REMARK    2  A    between atoms: C_7  and  C_12
REMARK    3  A    between atoms: C_12  and  C_14
REMARK                            x       y       z     vdW  Elec       q    Type
REMARK                         _______ _______ _______ _____ _____    ______ ____
ROOT
ATOM      1  C   UNL     1       8.371  -2.951  24.159  0.00  0.00    +0.000 C 
ATOM      2  C   UNL     1       7.445  -2.388  23.285  0.00  0.00    +0.000 C 
ATOM      3  C   UNL     1       8.093  -1.103  22.590  0.00  0.00    +0.000 C 
ATOM      4  C   UNL     1       9.555  -1.131  23.040  0.00  0.00    +0.000 C 
ATOM      5  C   UNL     1       9.696  -2.025  24.282  0.00  0.00    +0.000 C 
ATOM      6  O   UNL     1      10.291  -1.764  22.015  0.00  0.00    +0.000 OA
ENDROOT
BRANCH   1  11
ATOM      7  C   UNL     1       6.349  -5.665  26.438  0.00  0.00    +0.000 C 
ATOM      8  N   UNL     1       7.753  -5.641  26.080  0.00  0.00    +0.000 NA
ATOM      9  C   UNL     1       8.205  -4.924  25.069  0.00  0.00    +0.000 C 
ATOM     10  O   UNL     1       8.731  -5.367  24.083  0.00  0.00    +0.000 OA
ATOM     11  N   UNL     1       8.299  -3.609  25.401  0.00  0.00    +0.000 NA
ENDBRANCH   1  11
BRANCH   2  12
ATOM     12  C   UNL     1       6.537  -3.072  22.269  0.00  0.00    +0.000 C 
ATOM     13  C   UNL     1       6.226  -2.065  21.176  0.00  0.00    +0.000 C 
BRANCH  12  14
ATOM     14  C   UNL     1       5.239  -3.435  22.950  0.00  0.00    +0.000 C 
ATOM     15  O   UNL     1       5.054  -3.110  24.117  0.00  0.00    +0.000 OA
ATOM     16  N   UNL     1       4.649  -4.573  22.491  0.00  0.00    +0.000 NA
ATOM     17  C   UNL     1       5.145  -5.854  22.961  0.00  0.00    +0.000 C 
ENDBRANCH  12  14
ENDBRANCH   2  12
TORSDOF 3
ENDMDL
MODEL 4
REMARK VINA RESULT:      -5.7      4.242      6.511
REMARK  Name = 
REMARK  3 active torsions:
REMARK  status: ('A' for Active; 'I' for Inactive)
REMARK    1  A    between atoms: N_5  and  C_6
REMARK    2  A    between atoms: C_7  and  C_12
REMARK    3  A    between atoms: C_12  and  C_14
REMARK                            x       y       z     vdW  Elec       q    Type
REMARK                         _______ _______ _______ _____ _____    ______ ____
ROOT
ATOM      1  C   UNL     1       8.468  -3.892  24.884  0.00  0.00    +0.000 C 
ATOM      2  C   UNL     1       7.317  -4.535  24.437  0.00  0.00    +0.000 C 
ATOM      3  C   UNL     1       6.853  -5.602  25.532  0.00  0.00    +0.000 C 
ATOM      4  C   UNL     1       7.776  -5.340  26.725  0.00  0.00    +0.000 C 
ATOM      5  C   UNL     1       9.013  -4.558  26.258  0.00  0.00    +0.000 C 
ATOM      6  O   UNL     1       7.080  -4.486  27.606  0.00  0.00    +0.000 OA
ENDROOT
BRANCH   1  11
ATOM      7  C   UNL     1       9.960  -1.410  22.009  0.00  0.00    +0.000 C 
ATOM      8  N   UNL     1      10.235  -1.427  23.431  0.00  0.00    +0.000 NA
ATOM      9  C   UNL     1       9.440  -2.033  24.292  0.00  0.00    +0.000 C 
ATOM     10  O   UNL     1       8.830  -1.493  25.175  0.00  0.00    +0.000 OA
ATOM     11  N   UNL     1       9.627  -3.380  24.271  0.00  0.00    +0.000 NA
ENDBRANCH   1  11
BRANCH   2  12
ATOM     12  C   UNL     1       6.069  -3.942  23.792  0.00  0.00    +0.000 C 
ATOM     13  C   UNL     1       4.867  -4.694  24.335  0.00  0.00    +0.000 C 
BRANCH  12  14
ATOM     14  C   UNL     1       6.136  -4.183  22.303  0.00  0.00    +0.000 C 
ATOM     15  O   UNL     1       7.064  -4.832  21.834  0.00  0.00    +0.000 OA
ATOM     16  N   UNL     1       5.570  -3.210  21.537  0.00  0.00    +0.000 NA
ATOM     17  C   UNL     1       6.329  -1.999  21.280  0.00  0.00    +0.000 C 
ENDBRANCH  12  14
ENDBRANCH   2  12
TORSDOF 3
ENDMDL
MODEL 5
REMARK VINA RESULT:      -5.6      3.077      5.644
REMARK  Name = 
REMARK  3 active torsions:
REMARK  status: ('A' for Active; 'I' for Inactive)
REMARK    1  A    between atoms: N_5  and  C_6
REMARK    2  A    between atoms: C_7  and  C_12
REMARK    3  A    between atoms: C_12  and  C_14
REMARK                            x       y       z     vdW  Elec       q    Type
REMARK                         _______ _______ _______ _____ _____    ______ ____
ROOT
ATOM      1  C   UNL     1       8.538  -1.152  23.578  0.00  0.00    +0.000 C 
ATOM      2  C   UNL     1       7.404  -1.029  22.780  0.00  0.00    +0.000 C 
ATOM      3  C   UNL     1       7.149   0.516  22.464  0.00  0.00    +0.000 C 
ATOM      4  C   UNL     1       8.387   1.222  23.024  0.00  0.00    +0.000 C 
ATOM      5  C   UNL     1       9.093   0.302  24.031  0.00  0.00    +0.000 C 
ATOM      6  O   UNL     1       9.286   1.393  21.950  0.00  0.00    +0.000 OA
ENDROOT
BRANCH   1  11
ATOM      7  C   UNL     1       8.821  -5.015  24.863  0.00  0.00    +0.000 C 
ATOM      8  N   UNL     1       9.861  -4.012  24.751  0.00  0.00    +0.000 NA
ATOM      9  C   UNL     1       9.717  -2.935  24.005  0.00  0.00    +0.000 C 
ATOM     10  O   UNL     1      10.386  -2.659  23.045  0.00  0.00    +0.000 OA
ATOM     11  N   UNL     1       8.936  -2.008  24.622  0.00  0.00    +0.000 NA
ENDBRANCH   1  11
BRANCH   2  12
ATOM     12  C   UNL     1       6.993  -1.840  21.556  0.00  0.00    +0.000 C 
ATOM     13  C   UNL     1       6.514  -0.864  20.495  0.00  0.00    +0.000 C 
BRANCH  12  14
ATOM     14  C   UNL     1       5.830  -2.726  21.932  0.00  0.00    +0.000 C 
ATOM     15  O   UNL     1       5.408  -2.717  23.083  0.00  0.00    +0.000 OA
ATOM     16  N   UNL     1       5.727  -3.876  21.211  0.00  0.00    +0.000 NA
ATOM     17  C   UNL     1       6.576  -4.999  21.566  0.00  0.00    +0.000 C 
ENDBRANCH  12  14
ENDBRANCH   2  12
TORSDOF 3
ENDMDL
MODEL 6
REMARK VINA RESULT:      -5.6      3.111      5.110
REMARK  Name = 
REMARK  3 active torsions:
REMARK  status: ('A' for Active; 'I' for Inactive)
REMARK    1  A    between atoms: N_5  and  C_6
REMARK    2  A    between atoms: C_7  and  C_12
REMARK    3  A    between atoms: C_12  and  C_14
REMARK                            x       y       z     vdW  Elec       q    Type
REMARK                         _______ _______ _______ _____ _____    ______ ____
ROOT
ATOM      1  C   UNL     1       8.608  -2.769  23.881  0.00  0.00    +0.000 C 
ATOM      2  C   UNL     1       7.906  -2.797  22.679  0.00  0.00    +0.000 C 
ATOM      3  C   UNL     1       7.370  -4.280  22.419  0.00  0.00    +0.000 C 
ATOM      4  C   UNL     1       7.695  -5.028  23.714  0.00  0.00    +0.000 C 
ATOM      5  C   UNL     1       8.769  -4.259  24.498  0.00  0.00    +0.000 C 
ATOM      6  O   UNL     1       6.530  -5.000  24.511  0.00  0.00    +0.000 OA
ENDROOT
BRANCH   1  11
ATOM      7  C   UNL     1      10.647   0.765  23.922  0.00  0.00    +0.000 C 
ATOM      8  N   UNL     1      10.151  -0.014  25.038  0.00  0.00    +0.000 NA
ATOM      9  C   UNL     1       9.219  -0.936  24.889  0.00  0.00    +0.000 C 
ATOM     10  O   UNL     1       8.126  -0.908  25.390  0.00  0.00    +0.000 OA
ATOM     11  N   UNL     1       9.736  -2.078  24.362  0.00  0.00    +0.000 NA
ENDBRANCH   1  11
BRANCH   2  12
ATOM     12  C   UNL     1       6.871  -1.815  22.143  0.00  0.00    +0.000 C 
ATOM     13  C   UNL     1       5.932  -2.585  21.231  0.00  0.00    +0.000 C 
BRANCH  12  14
ATOM     14  C   UNL     1       7.579  -0.774  21.310  0.00  0.00    +0.000 C 
ATOM     15  O   UNL     1       8.789  -0.855  21.138  0.00  0.00    +0.000 OA
ATOM     16  N   UNL     1       7.006   0.461  21.325  0.00  0.00    +0.000 NA
ATOM     17  C   UNL     1       7.258   1.332  22.459  0.00  0.00    +0.000 C 
ENDBRANCH  12  14
ENDBRANCH   2  12
TORSDOF 3
ENDMDL
MODEL 7
REMARK VINA RESULT:      -5.6      2.518      4.305
REMARK  Name = 
REMARK  3 active torsions:
REMARK  status: ('A' for Active; 'I' for Inactive)
REMARK    1  A    between atoms: N_5  and  C_6
REMARK    2  A    between atoms: C_7  and  C_12
REMARK    3  A    between atoms: C_12  and  C_14
REMARK                            x       y       z     vdW  Elec       q    Type
REMARK                         _______ _______ _______ _____ _____    ______ ____
ROOT
ATOM      1  C   UNL     1       8.410  -0.561  21.382  0.00  0.00    +0.000 C 
ATOM      2  C   UNL     1       8.088  -1.731  22.064  0.00  0.00    +0.000 C 
ATOM      3  C   UNL     1       9.223  -2.038  23.146  0.00  0.00    +0.000 C 
ATOM      4  C   UNL     1      10.115  -0.795  23.114  0.00  0.00    +0.000 C 
ATOM      5  C   UNL     1       9.878  -0.023  21.807  0.00  0.00    +0.000 C 
ATOM      6  O   UNL     1       9.682   0.053  24.156  0.00  0.00    +0.000 OA
ENDROOT
BRANCH   1  11
ATOM      7  C   UNL     1       5.881  -0.248  18.195  0.00  0.00    +0.000 C 
ATOM      8  N   UNL     1       6.592   0.798  18.900  0.00  0.00    +0.000 NA
ATOM      9  C   UNL     1       7.089   0.616  20.109  0.00  0.00    +0.000 C 
ATOM     10  O   UNL     1       6.752   1.211  21.097  0.00  0.00    +0.000 OA
ATOM     11  N   UNL     1       8.246  -0.098  20.063  0.00  0.00    +0.000 NA
ENDBRANCH   1  11
BRANCH   2  12
ATOM     12  C   UNL     1       6.747  -2.175  22.640  0.00  0.00    +0.000 C 
ATOM     13  C   UNL     1       6.582  -1.505  23.993  0.00  0.00    +0.000 C 
BRANCH  12  14
ATOM     14  C   UNL     1       6.788  -3.668  22.862  0.00  0.00    +0.000 C 
ATOM     15  O   UNL     1       7.189  -4.403  21.968  0.00  0.00    +0.000 OA
ATOM     16  N   UNL     1       5.850  -4.146  23.725  0.00  0.00    +0.000 NA
ATOM     17  C   UNL     1       4.496  -4.349  23.239  0.00  0.00    +0.000 C 
ENDBRANCH  12  14
ENDBRANCH   2  12
TORSDOF 3
ENDMDL
MODEL 8
REMARK VINA RESULT:      -5.5      2.611      3.793
REMARK  Name = 
REMARK  3 active torsions:
REMARK  status: ('A' for Active; 'I' for Inactive)
REMARK    1  A    between atoms: N_5  and  C_6
REMARK    2  A    between atoms: C_7  and  C_12
REMARK    3  A    between atoms: C_12  and  C_14
REMARK                            x       y       z     vdW  Elec       q    Type
REMARK                         _______ _______ _______ _____ _____    ______ ____
ROOT
ATOM      1  C   UNL     1       8.406  -2.362  23.384  0.00  0.00    +0.000 C 
ATOM      2  C   UNL     1       8.310  -1.870  24.683  0.00  0.00    +0.000 C 
ATOM      3  C   UNL     1       8.170  -3.096  25.699  0.00  0.00    +0.000 C 
ATOM      4  C   UNL     1       8.392  -4.333  24.826  0.00  0.00    +0.000 C 
ATOM      5  C   UNL     1       8.181  -3.967  23.349  0.00  0.00    +0.000 C 
ATOM      6  O   UNL     1       9.752  -4.690  24.953  0.00  0.00    +0.000 OA
ENDROOT
BRANCH   1  11
ATOM      7  C   UNL     1       8.002   0.806  20.844  0.00  0.00    +0.000 C 
ATOM      8  N   UNL     1       8.672  -0.459  20.624  0.00  0.00    +0.000 NA
ATOM      9  C   UNL     1       9.033  -1.244  21.621  0.00  0.00    +0.000 C 
ATOM     10  O   UNL     1      10.164  -1.546  21.895  0.00  0.00    +0.000 OA
ATOM     11  N   UNL     1       7.968  -1.930  22.118  0.00  0.00    +0.000 NA
ENDBRANCH   1  11
BRANCH   2  12
ATOM     12  C   UNL     1       9.126  -0.777  25.364  0.00  0.00    +0.000 C 
ATOM     13  C   UNL     1       8.937  -0.926  26.863  0.00  0.00    +0.000 C 
BRANCH  12  14
ATOM     14  C   UNL     1       8.570   0.566  24.956  0.00  0.00    +0.000 C 
ATOM     15  O   UNL     1       7.549   0.619  24.280  0.00  0.00    +0.000 OA
ATOM     16  N   UNL     1       9.497   1.552  24.812  0.00  0.00    +0.000 NA
ATOM     17  C   UNL     1      10.273   1.605  23.585  0.00  0.00    +0.000 C 
ENDBRANCH  12  14
ENDBRANCH   2  12
TORSDOF 3
ENDMDL
MODEL 9
REMARK VINA RESULT:      -5.5      2.511      4.779
REMARK  Name = 
REMARK  3 active torsions:
REMARK  status: ('A' for Active; 'I' for Inactive)
REMARK    1  A    between atoms: N_5  and  C_6
REMARK    2  A    between atoms: C_7  and  C_12
REMARK    3  A    between atoms: C_12  and  C_14
REMARK                            x       y       z     vdW  Elec       q    Type
REMARK                         _______ _______ _______ _____ _____    ______ ____
ROOT
ATOM      1  C   UNL     1       9.504  -0.152  24.033  0.00  0.00    +0.000 C 
ATOM      2  C   UNL     1       8.305   0.513  23.792  0.00  0.00    +0.000 C 
ATOM      3  C   UNL     1       8.557   2.090  23.858  0.00  0.00    +0.000 C 
ATOM      4  C   UNL     1      10.077   2.221  23.975  0.00  0.00    +0.000 C 
ATOM      5  C   UNL     1      10.675   0.887  24.450  0.00  0.00    +0.000 C 
ATOM      6  O   UNL     1      10.576   2.433  22.672  0.00  0.00    +0.000 OA
ENDROOT
BRANCH   1  11
ATOM      7  C   UNL     1       8.736  -4.139  24.446  0.00  0.00    +0.000 C 
ATOM      8  N   UNL     1       9.978  -3.481  24.094  0.00  0.00    +0.000 NA
ATOM      9  C   UNL     1      10.012  -2.238  23.655  0.00  0.00    +0.000 C 
ATOM     10  O   UNL     1      10.391  -1.894  22.567  0.00  0.00    +0.000 OA
ATOM     11  N   UNL     1       9.868  -1.351  24.676  0.00  0.00    +0.000 NA
ENDBRANCH   1  11
BRANCH   2  12
ATOM     12  C   UNL     1       7.248   0.244  22.726  0.00  0.00    +0.000 C 
ATOM     13  C   UNL     1       6.488  -1.005  23.135  0.00  0.00    +0.000 C 
BRANCH  12  14
ATOM     14  C   UNL     1       7.945  -0.043  21.418  0.00  0.00    +0.000 C 
ATOM     15  O   UNL     1       8.667   0.811  20.915  0.00  0.00    +0.000 OA
ATOM     16  N   UNL     1       7.290  -0.907  20.595  0.00  0.00    +0.000 NA
ATOM     17  C   UNL     1       6.190  -0.404  19.791  0.00  0.00    +0.000 C 
ENDBRANCH  12  14
ENDBRANCH   2  12
TORSDOF 3
ENDMDL
