MODEL 1
REMARK VINA RESULT:      -5.6      0.000      0.000
REMARK  Name = 
REMARK  2 active torsions:
REMARK  status: ('A' for Active; 'I' for Inactive)
REMARK    1  A    between atoms: N_5  and  C_6
REMARK    2  A    between atoms: C_11  and  C_14
REMARK                            x       y       z     vdW  Elec       q    Type
REMARK                         _______ _______ _______ _____ _____    ______ ____
ROOT
ATOM      1  C   UNL     1       7.224   0.083  20.257  0.00  0.00    +0.000 C 
ATOM      2  C   UNL     1       8.432   0.633  20.963  0.00  0.00    +0.000 C 
ATOM      3  C   UNL     1       8.345   0.413  22.460  0.00  0.00    +0.000 C 
ATOM      4  O   UNL     1       7.152  -0.288  22.710  0.00  0.00    +0.000 OA
ATOM      5  C   UNL     1       7.192  -1.463  21.958  0.00  0.00    +0.000 C 
ATOM      6  O   UNL     1       6.975  -1.221  20.615  0.00  0.00    +0.000 OA
ATOM      7  N   UNL     1       8.455  -2.135  22.153  0.00  0.00    +0.000 NA
ENDROOT
BRANCH   1  12
ATOM      8  C   UNL     1       4.638   1.413  19.281  0.00  0.00    +0.000 C 
ATOM      9  N   UNL     1       5.776   1.471  18.388  0.00  0.00    +0.000 NA
ATOM     10  C   UNL     1       6.403   0.347  18.002  0.00  0.00    +0.000 C 
ATOM     11  O   UNL     1       5.812  -0.577  17.497  0.00  0.00    +0.000 OA
ATOM     12  N   UNL     1       7.476   0.142  18.803  0.00  0.00    +0.000 NA
ENDBRANCH   1  12
BRANCH   5  13
ATOM     13  C   UNL     1       6.070  -2.370  22.468  0.00  0.00    +0.000 C 
ATOM     14  O   UNL     1       5.587  -3.090  21.359  0.00  0.00    +0.000 OA
ENDBRANCH   5  13
TORSDOF 2
ENDMDL
MODEL 2
REMARK VINA RESULT:      -5.0      2.257      2.747
REMARK  Name = 
REMARK  2 active torsions:
REMARK  status: ('A' for Active; 'I' for Inactive)
REMARK    1  A    between atoms: N_5  and  C_6
REMARK    2  A    between atoms: C_11  and  C_14
REMARK                            x       y       z     vdW  Elec       q    Type
REMARK                         _______ _______ _______ _____ _____    ______ ____
ROOT
ATOM      1  C   UNL     1       7.745   0.062  21.422  0.00  0.00    +0.000 C 
ATOM      2  C   UNL     1       7.211   0.757  22.644  0.00  0.00    +0.000 C 
ATOM      3  C   UNL     1       7.584   0.013  23.911  0.00  0.00    +0.000 C 
ATOM      4  O   UNL     1       8.363  -1.093  23.530  0.00  0.00    +0.000 OA
ATOM      5  C   UNL     1       9.453  -0.608  22.807  0.00  0.00    +0.000 C 
ATOM      6  O   UNL     1       9.088  -0.206  21.536  0.00  0.00    +0.000 OA
ATOM      7  N   UNL     1      10.079   0.479  23.521  0.00  0.00    +0.000 NA
ENDROOT
BRANCH   1  12
ATOM      8  C   UNL     1       5.824  -1.650  19.753  0.00  0.00    +0.000 C 
ATOM      9  N   UNL     1       5.856  -0.233  19.457  0.00  0.00    +0.000 NA
ATOM     10  C   UNL     1       7.011   0.376  19.144  0.00  0.00    +0.000 C 
ATOM     11  O   UNL     1       7.726  -0.020  18.254  0.00  0.00    +0.000 OA
ATOM     12  N   UNL     1       7.528   0.946  20.260  0.00  0.00    +0.000 NA
ENDBRANCH   1  12
BRANCH   5  13
ATOM     13  C   UNL     1      10.460  -1.754  22.676  0.00  0.00    +0.000 C 
ATOM     14  O   UNL     1      10.128  -2.708  23.655  0.00  0.00    +0.000 OA
ENDBRANCH   5  13
TORSDOF 2
ENDMDL
MODEL 3
REMARK VINA RESULT:      -5.0      4.329      6.977
REMARK  Name = 
REMARK  2 active torsions:
REMARK  status: ('A' for Active; 'I' for Inactive)
REMARK    1  A    between atoms: N_5  and  C_6
REMARK    2  A    between atoms: C_11  and  C_14
REMARK                            x       y       z     vdW  Elec       q    Type
REMARK                         _______ _______ _______ _____ _____    ______ ____
ROOT
ATOM      1  C   UNL     1       7.032  -3.967  24.678  0.00  0.00    +0.000 C 
ATOM      2  C   UNL     1       6.618  -2.586  24.253  0.00  0.00    +0.000 C 
ATOM      3  C   UNL     1       6.726  -2.414  22.751  0.00  0.00    +0.000 C 
ATOM      4  O   UNL     1       7.152  -3.645  22.220  0.00  0.00    +0.000 OA
ATOM      5  C   UNL     1       6.232  -4.613  22.623  0.00  0.00    +0.000 C 
ATOM      6  O   UNL     1       6.379  -4.939  23.958  0.00  0.00    +0.000 OA
ATOM      7  N   UNL     1       4.886  -4.162  22.358  0.00  0.00    +0.000 NA
ENDROOT
BRANCH   1  12
ATOM      8  C   UNL     1       9.703  -5.007  25.772  0.00  0.00    +0.000 C 
ATOM      9  N   UNL     1       8.785  -4.433  26.734  0.00  0.00    +0.000 NA
ATOM     10  C   UNL     1       7.531  -4.899  26.848  0.00  0.00    +0.000 C 
ATOM     11  O   UNL     1       7.295  -6.070  27.036  0.00  0.00    +0.000 OA
ATOM     12  N   UNL     1       6.701  -4.125  26.109  0.00  0.00    +0.000 NA
ENDBRANCH   1  12
BRANCH   5  13
ATOM     13  C   UNL     1       6.500  -5.871  21.793  0.00  0.00    +0.000 C 
ATOM     14  O   UNL     1       5.988  -5.630  20.504  0.00  0.00    +0.000 OA
ENDBRANCH   5  13
TORSDOF 2
ENDMDL
MODEL 4
REMARK VINA RESULT:      -5.0      5.026      6.084
REMARK  Name = 
REMARK  2 active torsions:
REMARK  status: ('A' for Active; 'I' for Inactive)
REMARK    1  A    between atoms: N_5  and  C_6
REMARK    2  A    between atoms: C_11  and  C_14
REMARK                            x       y       z     vdW  Elec       q    Type
REMARK                         _______ _______ _______ _____ _____    ______ ____
ROOT
ATOM      1  C   UNL     1       7.334  -4.700  24.150  0.00  0.00    +0.000 C 
ATOM      2  C   UNL     1       7.947  -5.180  25.437  0.00  0.00    +0.000 C 
ATOM      3  C   UNL     1       9.402  -4.767  25.544  0.00  0.00    +0.000 C 
ATOM      4  O   UNL     1       9.707  -4.016  24.395  0.00  0.00    +0.000 OA
ATOM      5  C   UNL     1       8.811  -2.949  24.344  0.00  0.00    +0.000 C 
ATOM      6  O   UNL     1       7.548  -3.357  23.954  0.00  0.00    +0.000 OA
ATOM      7  N   UNL     1       8.755  -2.283  25.624  0.00  0.00    +0.000 NA
ENDROOT
BRANCH   1  12
ATOM      8  C   UNL     1       6.820  -5.794  21.331  0.00  0.00    +0.000 C 
ATOM      9  N   UNL     1       5.822  -6.093  22.337  0.00  0.00    +0.000 NA
ATOM     10  C   UNL     1       5.233  -5.107  23.033  0.00  0.00    +0.000 C 
ATOM     11  O   UNL     1       4.684  -4.177  22.491  0.00  0.00    +0.000 OA
ATOM     12  N   UNL     1       5.880  -4.951  24.213  0.00  0.00    +0.000 NA
ENDBRANCH   1  12
BRANCH   5  13
ATOM     13  C   UNL     1       9.336  -1.960  23.300  0.00  0.00    +0.000 C 
ATOM     14  O   UNL     1      10.614  -2.408  22.915  0.00  0.00    +0.000 OA
ENDBRANCH   5  13
TORSDOF 2
ENDMDL
MODEL 5
REMARK VINA RESULT:      -5.0      5.161      6.703
REMARK  Name = 
REMARK  2 active torsions:
REMARK  status: ('A' for Active; 'I' for Inactive)
REMARK    1  A    between atoms: N_5  and  C_6
REMARK    2  A    between atoms: C_11  and  C_14
REMARK                            x       y       z     vdW  Elec       q    Type
REMARK                         _______ _______ _______ _____ _____    ______ ____
ROOT
ATOM      1  C   UNL     1       7.359  -4.543  23.260  0.00  0.00    +0.000 C 
ATOM      2  C   UNL     1       7.092  -4.730  21.792  0.00  0.00    +0.000 C 
ATOM      3  C   UNL     1       6.196  -5.926  21.541  0.00  0.00    +0.000 C 
ATOM      4  O   UNL     1       5.862  -6.467  22.795  0.00  0.00    +0.000 OA
ATOM      5  C   UNL     1       5.266  -5.450  23.543  0.00  0.00    +0.000 C 
ATOM      6  O   UNL     1       6.196  -4.531  23.991  0.00  0.00    +0.000 OA
ATOM      7  N   UNL     1       4.242  -4.795  22.765  0.00  0.00    +0.000 NA
ENDROOT
BRANCH   1  12
ATOM      8  C   UNL     1       9.485  -5.319  25.330  0.00  0.00    +0.000 C 
ATOM      9  N   UNL     1       9.732  -4.114  24.566  0.00  0.00    +0.000 NA
ATOM     10  C   UNL     1       8.828  -3.120  24.542  0.00  0.00    +0.000 C 
ATOM     11  O   UNL     1       8.399  -2.619  25.554  0.00  0.00    +0.000 OA
ATOM     12  N   UNL     1       8.053  -3.252  23.439  0.00  0.00    +0.000 NA
ENDBRANCH   1  12
BRANCH   5  13
ATOM     13  C   UNL     1       4.613  -6.103  24.764  0.00  0.00    +0.000 C 
ATOM     14  O   UNL     1       4.381  -7.452  24.435  0.00  0.00    +0.000 OA
ENDBRANCH   5  13
TORSDOF 2
ENDMDL
MODEL 6
REMARK VINA RESULT:      -4.9      4.248      5.346
REMARK  Name = 
REMARK  2 active torsions:
REMARK  status: ('A' for Active; 'I' for Inactive)
REMARK    1  A    between atoms: N_5  and  C_6
REMARK    2  A    between atoms: C_11  and  C_14
REMARK                            x       y       z     vdW  Elec       q    Type
REMARK                         _______ _______ _______ _____ _____    ______ ____
ROOT
ATOM      1  C   UNL     1       8.611  -3.382  24.064  0.00  0.00    +0.000 C 
ATOM      2  C   UNL     1       8.516  -4.575  24.974  0.00  0.00    +0.000 C 
ATOM      3  C   UNL     1       7.094  -5.094  25.059  0.00  0.00    +0.000 C 
ATOM      4  O   UNL     1       6.308  -4.298  24.208  0.00  0.00    +0.000 OA
ATOM      5  C   UNL     1       6.870  -4.369  22.933  0.00  0.00    +0.000 C 
ATOM      6  O   UNL     1       8.033  -3.628  22.841  0.00  0.00    +0.000 OA
ATOM      7  N   UNL     1       7.118  -5.746  22.575  0.00  0.00    +0.000 NA
ENDROOT
BRANCH   1  12
ATOM      8  C   UNL     1       8.494  -0.330  23.784  0.00  0.00    +0.000 C 
ATOM      9  N   UNL     1       9.779  -0.903  24.127  0.00  0.00    +0.000 NA
ATOM     10  C   UNL     1      10.336  -1.850  23.354  0.00  0.00    +0.000 C 
ATOM     11  O   UNL     1      10.508  -1.692  22.168  0.00  0.00    +0.000 OA
ATOM     12  N   UNL     1      10.040  -3.069  23.865  0.00  0.00    +0.000 NA
ENDBRANCH   1  12
BRANCH   5  13
ATOM     13  C   UNL     1       5.851  -3.784  21.952  0.00  0.00    +0.000 C 
ATOM     14  O   UNL     1       5.799  -4.652  20.845  0.00  0.00    +0.000 OA
ENDBRANCH   5  13
TORSDOF 2
ENDMDL
MODEL 7
REMARK VINA RESULT:      -4.9      3.427      5.213
REMARK  Name = 
REMARK  2 active torsions:
REMARK  status: ('A' for Active; 'I' for Inactive)
REMARK    1  A    between atoms: N_5  and  C_6
REMARK    2  A    between atoms: C_11  and  C_14
REMARK                            x       y       z     vdW  Elec       q    Type
REMARK                         _______ _______ _______ _____ _____    ______ ____
ROOT
ATOM      1  C   UNL     1       7.612  -3.289  22.623  0.00  0.00    +0.000 C 
ATOM      2  C   UNL     1       6.806  -4.390  21.993  0.00  0.00    +0.000 C 
ATOM      3  C   UNL     1       7.296  -5.755  22.433  0.00  0.00    +0.000 C 
ATOM      4  O   UNL     1       8.347  -5.547  23.342  0.00  0.00    +0.000 OA
ATOM      5  C   UNL     1       7.853  -4.754  24.378  0.00  0.00    +0.000 C 
ATOM      6  O   UNL     1       7.697  -3.437  23.987  0.00  0.00    +0.000 OA
ATOM      7  N   UNL     1       6.602  -5.289  24.861  0.00  0.00    +0.000 NA
ENDROOT
BRANCH   1  12
ATOM      8  C   UNL     1      10.048  -1.467  22.229  0.00  0.00    +0.000 C 
ATOM      9  N   UNL     1       8.795  -1.009  21.665  0.00  0.00    +0.000 NA
ATOM     10  C   UNL     1       7.702  -0.884  22.434  0.00  0.00    +0.000 C 
ATOM     11  O   UNL     1       7.703  -0.230  23.451  0.00  0.00    +0.000 OA
ATOM     12  N   UNL     1       6.949  -2.004  22.320  0.00  0.00    +0.000 NA
ENDBRANCH   1  12
BRANCH   5  13
ATOM     13  C   UNL     1       8.877  -4.796  25.515  0.00  0.00    +0.000 C 
ATOM     14  O   UNL     1      10.150  -4.861  24.920  0.00  0.00    +0.000 OA
ENDBRANCH   5  13
TORSDOF 2
ENDMDL
MODEL 8
REMARK VINA RESULT:      -4.8      4.004      6.595
REMARK  Name = 
REMARK  2 active torsions:
REMARK  status: ('A' for Active; 'I' for Inactive)
REMARK    1  A    between atoms: N_5  and  C_6
REMARK    2  A    between atoms: C_11  and  C_14
REMARK                            x       y       z     vdW  Elec       q    Type
REMARK                         _______ _______ _______ _____ _____    ______ ____
ROOT
ATOM      1  C   UNL     1       8.592  -3.054  24.030  0.00  0.00    +0.000 C 
ATOM      2  C   UNL     1       8.060  -2.721  22.664  0.00  0.00    +0.000 C 
ATOM      3  C   UNL     1       7.784  -1.238  22.524  0.00  0.00    +0.000 C 
ATOM      4  O   UNL     1       8.160  -0.628  23.734  0.00  0.00    +0.000 OA
ATOM      5  C   UNL     1       9.500  -0.943  23.961  0.00  0.00    +0.000 C 
ATOM      6  O   UNL     1       9.657  -2.254  24.371  0.00  0.00    +0.000 OA
ATOM      7  N   UNL     1      10.279  -0.687  22.774  0.00  0.00    +0.000 NA
ENDROOT
BRANCH   1  12
ATOM      8  C   UNL     1       7.498  -4.016  26.729  0.00  0.00    +0.000 C 
ATOM      9  N   UNL     1       7.811  -5.038  25.754  0.00  0.00    +0.000 NA
ATOM     10  C   UNL     1       9.037  -5.114  25.209  0.00  0.00    +0.000 C 
ATOM     11  O   UNL     1      10.037  -5.181  25.884  0.00  0.00    +0.000 OA
ATOM     12  N   UNL     1       9.034  -4.463  24.020  0.00  0.00    +0.000 NA
ENDBRANCH   1  12
BRANCH   5  13
ATOM     13  C   UNL     1      10.000  -0.030  25.083  0.00  0.00    +0.000 C 
ATOM     14  O   UNL     1      11.131   0.646  24.590  0.00  0.00    +0.000 OA
ENDBRANCH   5  13
TORSDOF 2
ENDMDL
MODEL 9
REMARK VINA RESULT:      -4.7      3.047      3.839
REMARK  Name = 
REMARK  2 active torsions:
REMARK  status: ('A' for Active; 'I' for Inactive)
REMARK    1  A    between atoms: N_5  and  C_6
REMARK    2  A    between atoms: C_11  and  C_14
REMARK                            x       y       z     vdW  Elec       q    Type
REMARK                         _______ _______ _______ _____ _____    ______ ____
ROOT
ATOM      1  C   UNL     1       8.613  -2.209  22.872  0.00  0.00    +0.000 C 
ATOM      2  C   UNL     1       9.461  -2.833  23.945  0.00  0.00    +0.000 C 
ATOM      3  C   UNL     1       8.622  -3.645  24.910  0.00  0.00    +0.000 C 
ATOM      4  O   UNL     1       7.292  -3.585  24.459  0.00  0.00    +0.000 OA
ATOM      5  C   UNL     1       7.274  -4.057  23.146  0.00  0.00    +0.000 C 
ATOM      6  O   UNL     1       7.801  -3.134  22.262  0.00  0.00    +0.000 OA
ATOM      7  N   UNL     1       7.990  -5.308  23.058  0.00  0.00    +0.000 NA
ENDROOT
BRANCH   1  12
ATOM      8  C   UNL     1       7.736   0.729  22.971  0.00  0.00    +0.000 C 
ATOM      9  N   UNL     1       9.039   0.459  22.401  0.00  0.00    +0.000 NA
ATOM     10  C   UNL     1       9.175  -0.399  21.376  0.00  0.00    +0.000 C 
ATOM     11  O   UNL     1       8.541  -0.284  20.354  0.00  0.00    +0.000 OA
ATOM     12  N   UNL     1       9.513  -1.618  21.861  0.00  0.00    +0.000 NA
ENDBRANCH   1  12
BRANCH   5  13
ATOM     13  C   UNL     1       5.811  -4.301  22.768  0.00  0.00    +0.000 C 
ATOM     14  O   UNL     1       5.556  -3.549  21.606  0.00  0.00    +0.000 OA
ENDBRANCH   5  13
TORSDOF 2
ENDMDL
