MODEL 1
REMARK VINA RESULT:      -7.2      0.000      0.000
REMARK  Name = 
REMARK  8 active torsions:
REMARK  status: ('A' for Active; 'I' for Inactive)
REMARK    1  A    between atoms: C_2  and  C_3
REMARK    2  A    between atoms: C_7  and  S_18
REMARK    3  A    between atoms: C_9  and  C_10
REMARK    4  A    between atoms: C_15  and  C_16
REMARK    5  A    between atoms: S_18  and  C_19
REMARK    6  A    between atoms: C_19  and  C_20
REMARK    7  A    between atoms: N_22  and  C_23
REMARK    8  A    between atoms: C_28  and  C_29
REMARK                            x       y       z     vdW  Elec       q    Type
REMARK                         _______ _______ _______ _____ _____    ______ ____
ROOT
ATOM      1  C   UNL     1       5.647  -4.346  26.529  0.00  0.00    +0.000 C 
ATOM      2  C   UNL     1       5.377  -2.994  27.127  0.00  0.00    +0.000 C 
ATOM      3  O   UNL     1       4.152  -2.523  26.622  0.00  0.00    +0.000 OA
ATOM      4  N   UNL     1       6.420  -2.074  26.827  0.00  0.00    +0.000 NA
ATOM      5  C   UNL     1       7.111  -2.206  25.858  0.00  0.00    +0.000 C 
ATOM      6  N   UNL     1       6.982  -3.111  25.055  0.00  0.00    +0.000 NA
ATOM      7  C   UNL     1       6.342  -4.157  25.178  0.00  0.00    +0.000 C 
ENDROOT
BRANCH   7   8
ATOM      8  C   UNL     1       5.352  -4.520  24.079  0.00  0.00    +0.000 C 
ATOM      9  C   UNL     1       5.124  -3.546  23.128  0.00  0.00    +0.000 C 
ATOM     10  C   UNL     1       5.632  -3.463  21.555  0.00  0.00    +0.000 C 
ATOM     11  C   UNL     1       6.446  -4.868  21.630  0.00  0.00    +0.000 C 
ATOM     12  C   UNL     1       5.807  -6.018  22.358  0.00  0.00    +0.000 C 
ATOM     13  C   UNL     1       5.595  -6.024  23.849  0.00  0.00    +0.000 C 
BRANCH  13  14
ATOM     14  C   UNL     1       4.427  -6.564  24.062  0.00  0.00    +0.000 C 
ATOM     15  N   UNL     1       4.509  -7.341  24.927  0.00  0.00    +0.000 NA
ENDBRANCH  13  14
ENDBRANCH   7   8
BRANCH   1  17
ATOM     16  N   UNL     1       7.055  -5.979  27.955  0.00  0.00    +0.000 NA
ATOM     17  C   UNL     1       6.517  -5.142  27.380  0.00  0.00    +0.000 C 
ENDBRANCH   1  17
BRANCH   5  18
ATOM     18  S   UNL     1       8.799  -1.736  26.101  0.00  0.00    +0.000 S 
BRANCH  18  19
ATOM     19  C   UNL     1       9.332  -2.502  24.535  0.00  0.00    +0.000 C 
BRANCH  19  20
ATOM     20  C   UNL     1       9.444  -1.392  23.508  0.00  0.00    +0.000 C 
ATOM     21  O   UNL     1      10.124  -0.406  23.749  0.00  0.00    +0.000 OA
ATOM     22  N   UNL     1       8.938  -1.606  22.303  0.00  0.00    +0.000 NA
BRANCH  22  23
ATOM     23  C   UNL     1       7.987  -0.698  21.937  0.00  0.00    +0.000 C 
ATOM     24  C   UNL     1       7.074  -0.225  22.890  0.00  0.00    +0.000 C 
ATOM     25  C   UNL     1       6.893   1.347  23.422  0.00  0.00    +0.000 C 
ATOM     26  N   UNL     1       7.375   1.858  21.997  0.00  0.00    +0.000 NA
ATOM     27  C   UNL     1       8.432   1.528  21.484  0.00  0.00    +0.000 C 
ATOM     28  C   UNL     1       8.517   0.131  20.636  0.00  0.00    +0.000 C 
BRANCH  28  29
ATOM     29  C   UNL     1       7.317   0.232  19.731  0.00  0.00    +0.000 C 
ATOM     30  F   UNL     1       7.670   0.589  18.462  0.00  0.00    +0.000 F 
ATOM     31  F   UNL     1       6.549  -0.892  19.741  0.00  0.00    +0.000 F 
ENDBRANCH  28  29
ENDBRANCH  22  23
ENDBRANCH  19  20
ENDBRANCH  18  19
ENDBRANCH   5  18
TORSDOF 8
ENDMDL
MODEL 2
REMARK VINA RESULT:      -7.2      2.331      6.243
REMARK  Name = 
REMARK  8 active torsions:
REMARK  status: ('A' for Active; 'I' for Inactive)
REMARK    1  A    between atoms: C_2  and  C_3
REMARK    2  A    between atoms: C_7  and  S_18
REMARK    3  A    between atoms: C_9  and  C_10
REMARK    4  A    between atoms: C_15  and  C_16
REMARK    5  A    between atoms: S_18  and  C_19
REMARK    6  A    between atoms: C_19  and  C_20
REMARK    7  A    between atoms: N_22  and  C_23
REMARK    8  A    between atoms: C_28  and  C_29
REMARK                            x       y       z     vdW  Elec       q    Type
REMARK                         _______ _______ _______ _____ _____    ______ ____
ROOT
ATOM      1  C   UNL     1       7.207   0.007  24.096  0.00  0.00    +0.000 C 
ATOM      2  C   UNL     1       8.204   0.038  25.221  0.00  0.00    +0.000 C 
ATOM      3  O   UNL     1       8.996   1.193  25.079  0.00  0.00    +0.000 OA
ATOM      4  N   UNL     1       9.023  -1.124  25.223  0.00  0.00    +0.000 NA
ATOM      5  C   UNL     1       9.225  -1.749  24.222  0.00  0.00    +0.000 C 
ATOM      6  N   UNL     1       8.766  -1.450  23.134  0.00  0.00    +0.000 NA
ATOM      7  C   UNL     1       7.857  -0.659  22.880  0.00  0.00    +0.000 C 
ENDROOT
BRANCH   7   8
ATOM      8  C   UNL     1       8.120   0.416  21.834  0.00  0.00    +0.000 C 
ATOM      9  C   UNL     1       8.580  -0.032  20.611  0.00  0.00    +0.000 C 
ATOM     10  C   UNL     1       7.792  -0.141  19.160  0.00  0.00    +0.000 C 
ATOM     11  C   UNL     1       6.391   0.429  19.754  0.00  0.00    +0.000 C 
ATOM     12  C   UNL     1       6.447   1.583  20.715  0.00  0.00    +0.000 C 
ATOM     13  C   UNL     1       7.024   1.465  22.101  0.00  0.00    +0.000 C 
BRANCH  13  14
ATOM     14  C   UNL     1       7.691   2.562  22.327  0.00  0.00    +0.000 C 
ATOM     15  N   UNL     1       7.005   3.484  22.127  0.00  0.00    +0.000 NA
ENDBRANCH  13  14
ENDBRANCH   7   8
BRANCH   1  17
ATOM     16  N   UNL     1       5.213  -1.380  24.979  0.00  0.00    +0.000 NA
ATOM     17  C   UNL     1       6.024  -0.757  24.453  0.00  0.00    +0.000 C 
ENDBRANCH   1  17
BRANCH   5  18
ATOM     18  S   UNL     1       9.330  -3.498  24.467  0.00  0.00    +0.000 S 
BRANCH  18  19
ATOM     19  C   UNL     1       8.240  -3.449  25.929  0.00  0.00    +0.000 C 
BRANCH  19  20
ATOM     20  C   UNL     1       7.454  -4.745  25.945  0.00  0.00    +0.000 C 
ATOM     21  O   UNL     1       7.973  -5.766  26.371  0.00  0.00    +0.000 OA
ATOM     22  N   UNL     1       6.162  -4.693  25.657  0.00  0.00    +0.000 NA
BRANCH  22  23
ATOM     23  C   UNL     1       5.803  -5.474  24.597  0.00  0.00    +0.000 C 
ATOM     24  C   UNL     1       4.786  -6.427  24.749  0.00  0.00    +0.000 C 
ATOM     25  C   UNL     1       3.319  -6.473  23.954  0.00  0.00    +0.000 C 
ATOM     26  N   UNL     1       4.001  -5.766  22.705  0.00  0.00    +0.000 NA
ATOM     27  C   UNL     1       4.601  -4.706  22.775  0.00  0.00    +0.000 C 
ATOM     28  C   UNL     1       6.178  -4.696  23.213  0.00  0.00    +0.000 C 
BRANCH  28  29
ATOM     29  C   UNL     1       6.764  -5.759  22.323  0.00  0.00    +0.000 C 
ATOM     30  F   UNL     1       6.729  -5.393  21.008  0.00  0.00    +0.000 F 
ATOM     31  F   UNL     1       8.014  -6.141  22.704  0.00  0.00    +0.000 F 
ENDBRANCH  28  29
ENDBRANCH  22  23
ENDBRANCH  19  20
ENDBRANCH  18  19
ENDBRANCH   5  18
TORSDOF 8
ENDMDL
MODEL 3
REMARK VINA RESULT:      -7.0      2.481      4.090
REMARK  Name = 
REMARK  8 active torsions:
REMARK  status: ('A' for Active; 'I' for Inactive)
REMARK    1  A    between atoms: C_2  and  C_3
REMARK    2  A    between atoms: C_7  and  S_18
REMARK    3  A    between atoms: C_9  and  C_10
REMARK    4  A    between atoms: C_15  and  C_16
REMARK    5  A    between atoms: S_18  and  C_19
REMARK    6  A    between atoms: C_19  and  C_20
REMARK    7  A    between atoms: N_22  and  C_23
REMARK    8  A    between atoms: C_28  and  C_29
REMARK                            x       y       z     vdW  Elec       q    Type
REMARK                         _______ _______ _______ _____ _____    ______ ____
ROOT
ATOM      1  C   UNL     1       8.295  -2.929  23.069  0.00  0.00    +0.000 C 
ATOM      2  C   UNL     1       9.513  -2.430  23.797  0.00  0.00    +0.000 C 
ATOM      3  O   UNL     1      10.275  -3.543  24.199  0.00  0.00    +0.000 OA
ATOM      4  N   UNL     1       9.158  -1.642  24.926  0.00  0.00    +0.000 NA
ATOM      5  C   UNL     1       8.108  -1.783  25.483  0.00  0.00    +0.000 C 
ATOM      6  N   UNL     1       7.270  -2.601  25.148  0.00  0.00    +0.000 NA
ATOM      7  C   UNL     1       7.200  -3.235  24.094  0.00  0.00    +0.000 C 
ENDROOT
BRANCH   7   8
ATOM      8  C   UNL     1       7.042  -4.748  24.182  0.00  0.00    +0.000 C 
ATOM      9  C   UNL     1       7.075  -5.284  25.454  0.00  0.00    +0.000 C 
ATOM     10  C   UNL     1       5.842  -5.892  26.377  0.00  0.00    +0.000 C 
ATOM     11  C   UNL     1       4.707  -5.589  25.255  0.00  0.00    +0.000 C 
ATOM     12  C   UNL     1       5.039  -5.872  23.817  0.00  0.00    +0.000 C 
ATOM     13  C   UNL     1       6.061  -5.081  23.043  0.00  0.00    +0.000 C 
BRANCH  13  14
ATOM     14  C   UNL     1       6.717  -5.932  22.305  0.00  0.00    +0.000 C 
ATOM     15  N   UNL     1       6.521  -5.703  21.179  0.00  0.00    +0.000 NA
ENDBRANCH  13  14
ENDBRANCH   7   8
BRANCH   1  17
ATOM     16  N   UNL     1       7.136  -1.230  21.504  0.00  0.00    +0.000 NA
ATOM     17  C   UNL     1       7.784  -1.933  22.142  0.00  0.00    +0.000 C 
ENDBRANCH   1  17
BRANCH   5  18
ATOM     18  S   UNL     1       7.399  -0.280  26.087  0.00  0.00    +0.000 S 
BRANCH  18  19
ATOM     19  C   UNL     1       6.326  -0.092  24.624  0.00  0.00    +0.000 C 
BRANCH  19  20
ATOM     20  C   UNL     1       6.500   1.327  24.121  0.00  0.00    +0.000 C 
ATOM     21  O   UNL     1       5.654   1.823  23.392  0.00  0.00    +0.000 OA
ATOM     22  N   UNL     1       7.485   2.052  24.630  0.00  0.00    +0.000 NA
BRANCH  22  23
ATOM     23  C   UNL     1       8.369   2.513  23.697  0.00  0.00    +0.000 C 
ATOM     24  C   UNL     1       8.627   3.888  23.603  0.00  0.00    +0.000 C 
ATOM     25  C   UNL     1      10.084   4.661  23.859  0.00  0.00    +0.000 C 
ATOM     26  N   UNL     1      10.837   3.353  23.361  0.00  0.00    +0.000 NA
ATOM     27  C   UNL     1      10.663   2.248  23.849  0.00  0.00    +0.000 C 
ATOM     28  C   UNL     1       9.419   1.321  23.327  0.00  0.00    +0.000 C 
BRANCH  28  29
ATOM     29  C   UNL     1       9.570   1.396  21.830  0.00  0.00    +0.000 C 
ATOM     30  F   UNL     1      10.092   0.243  21.317  0.00  0.00    +0.000 F 
ATOM     31  F   UNL     1       8.418   1.750  21.197  0.00  0.00    +0.000 F 
ENDBRANCH  28  29
ENDBRANCH  22  23
ENDBRANCH  19  20
ENDBRANCH  18  19
ENDBRANCH   5  18
TORSDOF 8
ENDMDL
MODEL 4
REMARK VINA RESULT:      -6.9      2.562      5.639
REMARK  Name = 
REMARK  8 active torsions:
REMARK  status: ('A' for Active; 'I' for Inactive)
REMARK    1  A    between atoms: C_2  and  C_3
REMARK    2  A    between atoms: C_7  and  S_18
REMARK    3  A    between atoms: C_9  and  C_10
REMARK    4  A    between atoms: C_15  and  C_16
REMARK    5  A    between atoms: S_18  and  C_19
REMARK    6  A    between atoms: C_19  and  C_20
REMARK    7  A    between atoms: N_22  and  C_23
REMARK    8  A    between atoms: C_28  and  C_29
REMARK                            x       y       z     vdW  Elec       q    Type
REMARK                         _______ _______ _______ _____ _____    ______ ____
ROOT
ATOM      1  C   UNL     1       6.566   0.746  24.834  0.00  0.00    +0.000 C 
ATOM      2  C   UNL     1       7.717   1.028  25.759  0.00  0.00    +0.000 C 
ATOM      3  O   UNL     1       8.557   1.975  25.144  0.00  0.00    +0.000 OA
ATOM      4  N   UNL     1       8.445  -0.155  26.060  0.00  0.00    +0.000 NA
ATOM      5  C   UNL     1       8.455  -1.092  25.314  0.00  0.00    +0.000 C 
ATOM      6  N   UNL     1       7.863  -1.114  24.250  0.00  0.00    +0.000 NA
ATOM      7  C   UNL     1       6.983  -0.350  23.849  0.00  0.00    +0.000 C 
ENDROOT
BRANCH   7   8
ATOM      8  C   UNL     1       7.163   0.287  22.478  0.00  0.00    +0.000 C 
ATOM      9  C   UNL     1       7.706   1.557  22.470  0.00  0.00    +0.000 C 
ATOM     10  C   UNL     1       9.221   2.056  22.029  0.00  0.00    +0.000 C 
ATOM     11  C   UNL     1       9.731   0.554  21.674  0.00  0.00    +0.000 C 
ATOM     12  C   UNL     1       8.787  -0.360  20.943  0.00  0.00    +0.000 C 
ATOM     13  C   UNL     1       7.527  -0.900  21.567  0.00  0.00    +0.000 C 
BRANCH  13  14
ATOM     14  C   UNL     1       6.608  -0.877  20.642  0.00  0.00    +0.000 C 
ATOM     15  N   UNL     1       7.008  -0.305  19.708  0.00  0.00    +0.000 NA
ENDBRANCH  13  14
ENDBRANCH   7   8
BRANCH   1  17
ATOM     16  N   UNL     1       4.350   0.116  26.007  0.00  0.00    +0.000 NA
ATOM     17  C   UNL     1       5.398   0.280  25.563  0.00  0.00    +0.000 C 
ENDBRANCH   1  17
BRANCH   5  18
ATOM     18  S   UNL     1       8.474  -2.664  26.124  0.00  0.00    +0.000 S 
BRANCH  18  19
ATOM     19  C   UNL     1       9.176  -3.507  24.667  0.00  0.00    +0.000 C 
BRANCH  19  20
ATOM     20  C   UNL     1       8.468  -4.841  24.537  0.00  0.00    +0.000 C 
ATOM     21  O   UNL     1       9.097  -5.833  24.199  0.00  0.00    +0.000 OA
ATOM     22  N   UNL     1       7.218  -4.927  24.965  0.00  0.00    +0.000 NA
BRANCH  22  23
ATOM     23  C   UNL     1       6.333  -5.321  24.003  0.00  0.00    +0.000 C 
ATOM     24  C   UNL     1       5.215  -6.088  24.360  0.00  0.00    +0.000 C 
ATOM     25  C   UNL     1       3.608  -5.663  24.204  0.00  0.00    +0.000 C 
ATOM     26  N   UNL     1       3.991  -4.778  22.941  0.00  0.00    +0.000 NA
ATOM     27  C   UNL     1       4.833  -3.896  22.966  0.00  0.00    +0.000 C 
ATOM     28  C   UNL     1       6.410  -4.278  22.751  0.00  0.00    +0.000 C 
BRANCH  28  29
ATOM     29  C   UNL     1       6.364  -5.151  21.524  0.00  0.00    +0.000 C 
ATOM     30  F   UNL     1       6.022  -4.438  20.411  0.00  0.00    +0.000 F 
ATOM     31  F   UNL     1       7.511  -5.859  21.333  0.00  0.00    +0.000 F 
ENDBRANCH  28  29
ENDBRANCH  22  23
ENDBRANCH  19  20
ENDBRANCH  18  19
ENDBRANCH   5  18
TORSDOF 8
ENDMDL
MODEL 5
REMARK VINA RESULT:      -6.9      3.246      7.583
REMARK  Name = 
REMARK  8 active torsions:
REMARK  status: ('A' for Active; 'I' for Inactive)
REMARK    1  A    between atoms: C_2  and  C_3
REMARK    2  A    between atoms: C_7  and  S_18
REMARK    3  A    between atoms: C_9  and  C_10
REMARK    4  A    between atoms: C_15  and  C_16
REMARK    5  A    between atoms: S_18  and  C_19
REMARK    6  A    between atoms: C_19  and  C_20
REMARK    7  A    between atoms: N_22  and  C_23
REMARK    8  A    between atoms: C_28  and  C_29
REMARK                            x       y       z     vdW  Elec       q    Type
REMARK                         _______ _______ _______ _____ _____    ______ ____
ROOT
ATOM      1  C   UNL     1       9.234  -0.020  21.481  0.00  0.00    +0.000 C 
ATOM      2  C   UNL     1       8.141  -0.481  20.557  0.00  0.00    +0.000 C 
ATOM      3  O   UNL     1       7.810   0.583  19.698  0.00  0.00    +0.000 OA
ATOM      4  N   UNL     1       6.992  -0.906  21.281  0.00  0.00    +0.000 NA
ATOM      5  C   UNL     1       6.754  -0.488  22.377  0.00  0.00    +0.000 C 
ATOM      6  N   UNL     1       7.450   0.325  22.957  0.00  0.00    +0.000 NA
ATOM      7  C   UNL     1       8.599   0.679  22.685  0.00  0.00    +0.000 C 
ENDROOT
BRANCH   7   8
ATOM      8  C   UNL     1       8.875   2.172  22.568  0.00  0.00    +0.000 C 
ATOM      9  C   UNL     1       7.835   2.941  22.083  0.00  0.00    +0.000 C 
ATOM     10  C   UNL     1       6.834   3.990  22.882  0.00  0.00    +0.000 C 
ATOM     11  C   UNL     1       7.527   3.723  24.327  0.00  0.00    +0.000 C 
ATOM     12  C   UNL     1       9.026   3.617  24.385  0.00  0.00    +0.000 C 
ATOM     13  C   UNL     1       9.788   2.473  23.771  0.00  0.00    +0.000 C 
BRANCH  13  14
ATOM     14  C   UNL     1      10.860   2.980  23.230  0.00  0.00    +0.000 C 
ATOM     15  N   UNL     1      11.009   4.073  23.608  0.00  0.00    +0.000 NA
ENDBRANCH  13  14
ENDBRANCH   7   8
BRANCH   1  17
ATOM     16  N   UNL     1      10.817  -1.822  22.446  0.00  0.00    +0.000 NA
ATOM     17  C   UNL     1      10.025  -1.137  21.970  0.00  0.00    +0.000 C 
ENDBRANCH   1  17
BRANCH   5  18
ATOM     18  S   UNL     1       6.037  -1.682  23.468  0.00  0.00    +0.000 S 
BRANCH  18  19
ATOM     19  C   UNL     1       5.914  -2.941  22.155  0.00  0.00    +0.000 C 
BRANCH  19  20
ATOM     20  C   UNL     1       6.923  -4.026  22.478  0.00  0.00    +0.000 C 
ATOM     21  O   UNL     1       6.991  -5.022  21.774  0.00  0.00    +0.000 OA
ATOM     22  N   UNL     1       7.824  -3.778  23.416  0.00  0.00    +0.000 NA
BRANCH  22  23
ATOM     23  C   UNL     1       7.801  -4.669  24.450  0.00  0.00    +0.000 C 
ATOM     24  C   UNL     1       9.004  -5.195  24.940  0.00  0.00    +0.000 C 
ATOM     25  C   UNL     1       9.637  -5.009  26.474  0.00  0.00    +0.000 C 
ATOM     26  N   UNL     1       8.157  -4.902  27.044  0.00  0.00    +0.000 NA
ATOM     27  C   UNL     1       7.337  -4.093  26.643  0.00  0.00    +0.000 C 
ATOM     28  C   UNL     1       6.440  -4.440  25.318  0.00  0.00    +0.000 C 
BRANCH  28  29
ATOM     29  C   UNL     1       5.942  -5.828  25.624  0.00  0.00    +0.000 C 
ATOM     30  F   UNL     1       5.120  -5.842  26.714  0.00  0.00    +0.000 F 
ATOM     31  F   UNL     1       5.362  -6.432  24.550  0.00  0.00    +0.000 F 
ENDBRANCH  28  29
ENDBRANCH  22  23
ENDBRANCH  19  20
ENDBRANCH  18  19
ENDBRANCH   5  18
TORSDOF 8
ENDMDL
MODEL 6
REMARK VINA RESULT:      -6.7      2.244      3.674
REMARK  Name = 
REMARK  8 active torsions:
REMARK  status: ('A' for Active; 'I' for Inactive)
REMARK    1  A    between atoms: C_2  and  C_3
REMARK    2  A    between atoms: C_7  and  S_18
REMARK    3  A    between atoms: C_9  and  C_10
REMARK    4  A    between atoms: C_15  and  C_16
REMARK    5  A    between atoms: S_18  and  C_19
REMARK    6  A    between atoms: C_19  and  C_20
REMARK    7  A    between atoms: N_22  and  C_23
REMARK    8  A    between atoms: C_28  and  C_29
REMARK                            x       y       z     vdW  Elec       q    Type
REMARK                         _______ _______ _______ _____ _____    ______ ____
ROOT
ATOM      1  C   UNL     1       7.544  -5.348  24.341  0.00  0.00    +0.000 C 
ATOM      2  C   UNL     1       8.969  -5.048  24.713  0.00  0.00    +0.000 C 
ATOM      3  O   UNL     1       9.357  -5.936  25.734  0.00  0.00    +0.000 OA
ATOM      4  N   UNL     1       9.123  -3.703  25.146  0.00  0.00    +0.000 NA
ATOM      5  C   UNL     1       8.209  -3.088  25.616  0.00  0.00    +0.000 C 
ATOM      6  N   UNL     1       7.093  -3.550  25.772  0.00  0.00    +0.000 NA
ATOM      7  C   UNL     1       6.617  -4.577  25.285  0.00  0.00    +0.000 C 
ENDROOT
BRANCH   7   8
ATOM      8  C   UNL     1       5.962  -5.576  26.229  0.00  0.00    +0.000 C 
ATOM      9  C   UNL     1       6.313  -5.466  27.560  0.00  0.00    +0.000 C 
ATOM     10  C   UNL     1       5.441  -4.881  28.840  0.00  0.00    +0.000 C 
ATOM     11  C   UNL     1       4.145  -4.515  27.929  0.00  0.00    +0.000 C 
ATOM     12  C   UNL     1       3.727  -5.494  26.868  0.00  0.00    +0.000 C 
ATOM     13  C   UNL     1       4.553  -5.770  25.640  0.00  0.00    +0.000 C 
BRANCH  13  14
ATOM     14  C   UNL     1       4.482  -7.053  25.417  0.00  0.00    +0.000 C 
ATOM     15  N   UNL     1       4.391  -7.245  24.271  0.00  0.00    +0.000 NA
ENDBRANCH  13  14
ENDBRANCH   7   8
BRANCH   1  17
ATOM     16  N   UNL     1       6.969  -4.876  21.866  0.00  0.00    +0.000 NA
ATOM     17  C   UNL     1       7.250  -4.935  22.979  0.00  0.00    +0.000 C 
ENDBRANCH   1  17
BRANCH   5  18
ATOM     18  S   UNL     1       8.190  -1.373  25.185  0.00  0.00    +0.000 S 
BRANCH  18  19
ATOM     19  C   UNL     1       9.818  -1.467  24.367  0.00  0.00    +0.000 C 
BRANCH  19  20
ATOM     20  C   UNL     1       9.577  -1.346  22.876  0.00  0.00    +0.000 C 
ATOM     21  O   UNL     1      10.461  -1.653  22.090  0.00  0.00    +0.000 OA
ATOM     22  N   UNL     1       8.349  -1.074  22.463  0.00  0.00    +0.000 NA
BRANCH  22  23
ATOM     23  C   UNL     1       8.259   0.064  21.714  0.00  0.00    +0.000 C 
ATOM     24  C   UNL     1       7.757  -0.003  20.407  0.00  0.00    +0.000 C 
ATOM     25  C   UNL     1       6.381   0.734  19.815  0.00  0.00    +0.000 C 
ATOM     26  N   UNL     1       6.587   1.907  20.867  0.00  0.00    +0.000 NA
ATOM     27  C   UNL     1       6.686   1.724  22.069  0.00  0.00    +0.000 C 
ATOM     28  C   UNL     1       8.144   1.349  22.712  0.00  0.00    +0.000 C 
BRANCH  28  29
ATOM     29  C   UNL     1       9.042   2.391  22.099  0.00  0.00    +0.000 C 
ATOM     30  F   UNL     1       9.164   3.489  22.902  0.00  0.00    +0.000 F 
ATOM     31  F   UNL     1      10.258   1.897  21.737  0.00  0.00    +0.000 F 
ENDBRANCH  28  29
ENDBRANCH  22  23
ENDBRANCH  19  20
ENDBRANCH  18  19
ENDBRANCH   5  18
TORSDOF 8
ENDMDL
MODEL 7
REMARK VINA RESULT:      -6.7      1.681      2.577
REMARK  Name = 
REMARK  8 active torsions:
REMARK  status: ('A' for Active; 'I' for Inactive)
REMARK    1  A    between atoms: C_2  and  C_3
REMARK    2  A    between atoms: C_7  and  S_18
REMARK    3  A    between atoms: C_9  and  C_10
REMARK    4  A    between atoms: C_15  and  C_16
REMARK    5  A    between atoms: S_18  and  C_19
REMARK    6  A    between atoms: C_19  and  C_20
REMARK    7  A    between atoms: N_22  and  C_23
REMARK    8  A    between atoms: C_28  and  C_29
REMARK                            x       y       z     vdW  Elec       q    Type
REMARK                         _______ _______ _______ _____ _____    ______ ____
ROOT
ATOM      1  C   UNL     1       6.815  -5.337  25.506  0.00  0.00    +0.000 C 
ATOM      2  C   UNL     1       7.868  -5.204  26.571  0.00  0.00    +0.000 C 
ATOM      3  O   UNL     1       7.414  -5.864  27.728  0.00  0.00    +0.000 OA
ATOM      4  N   UNL     1       8.147  -3.840  26.859  0.00  0.00    +0.000 NA
ATOM      5  C   UNL     1       7.336  -2.981  26.668  0.00  0.00    +0.000 C 
ATOM      6  N   UNL     1       6.220  -3.191  26.229  0.00  0.00    +0.000 NA
ATOM      7  C   UNL     1       5.795  -4.209  25.679  0.00  0.00    +0.000 C 
ENDROOT
BRANCH   7   8
ATOM      8  C   UNL     1       4.501  -4.815  26.207  0.00  0.00    +0.000 C 
ATOM      9  C   UNL     1       3.794  -4.039  27.104  0.00  0.00    +0.000 C 
ATOM     10  C   UNL     1       2.387  -3.194  26.892  0.00  0.00    +0.000 C 
ATOM     11  C   UNL     1       2.240  -3.617  25.330  0.00  0.00    +0.000 C 
ATOM     12  C   UNL     1       2.557  -5.037  24.948  0.00  0.00    +0.000 C 
ATOM     13  C   UNL     1       3.950  -5.606  25.006  0.00  0.00    +0.000 C 
BRANCH  13  14
ATOM     14  C   UNL     1       3.841  -6.824  25.459  0.00  0.00    +0.000 C 
ATOM     15  N   UNL     1       3.956  -7.580  24.578  0.00  0.00    +0.000 NA
ENDBRANCH  13  14
ENDBRANCH   7   8
BRANCH   1  17
ATOM     16  N   UNL     1       7.701  -4.912  23.116  0.00  0.00    +0.000 NA
ATOM     17  C   UNL     1       7.387  -5.232  24.175  0.00  0.00    +0.000 C 
ENDBRANCH   1  17
BRANCH   5  18
ATOM     18  S   UNL     1       8.019  -1.449  26.107  0.00  0.00    +0.000 S 
BRANCH  18  19
ATOM     19  C   UNL     1       9.132  -2.276  24.923  0.00  0.00    +0.000 C 
BRANCH  19  20
ATOM     20  C   UNL     1       9.347  -1.319  23.766  0.00  0.00    +0.000 C 
ATOM     21  O   UNL     1      10.139  -0.395  23.880  0.00  0.00    +0.000 OA
ATOM     22  N   UNL     1       8.795  -1.619  22.600  0.00  0.00    +0.000 NA
BRANCH  22  23
ATOM     23  C   UNL     1       7.945  -0.659  22.131  0.00  0.00    +0.000 C 
ATOM     24  C   UNL     1       7.079  -0.005  23.019  0.00  0.00    +0.000 C 
ATOM     25  C   UNL     1       7.057   1.622  23.392  0.00  0.00    +0.000 C 
ATOM     26  N   UNL     1       7.599   1.939  21.932  0.00  0.00    +0.000 NA
ATOM     27  C   UNL     1       8.619   1.454  21.471  0.00  0.00    +0.000 C 
ATOM     28  C   UNL     1       8.566  -0.022  20.765  0.00  0.00    +0.000 C 
BRANCH  28  29
ATOM     29  C   UNL     1       7.389   0.111  19.835  0.00  0.00    +0.000 C 
ATOM     30  F   UNL     1       7.782   0.395  18.559  0.00  0.00    +0.000 F 
ATOM     31  F   UNL     1       6.556  -0.965  19.876  0.00  0.00    +0.000 F 
ENDBRANCH  28  29
ENDBRANCH  22  23
ENDBRANCH  19  20
ENDBRANCH  18  19
ENDBRANCH   5  18
TORSDOF 8
ENDMDL
MODEL 8
REMARK VINA RESULT:      -6.7      2.660      4.121
REMARK  Name = 
REMARK  8 active torsions:
REMARK  status: ('A' for Active; 'I' for Inactive)
REMARK    1  A    between atoms: C_2  and  C_3
REMARK    2  A    between atoms: C_7  and  S_18
REMARK    3  A    between atoms: C_9  and  C_10
REMARK    4  A    between atoms: C_15  and  C_16
REMARK    5  A    between atoms: S_18  and  C_19
REMARK    6  A    between atoms: C_19  and  C_20
REMARK    7  A    between atoms: N_22  and  C_23
REMARK    8  A    between atoms: C_28  and  C_29
REMARK                            x       y       z     vdW  Elec       q    Type
REMARK                         _______ _______ _______ _____ _____    ______ ____
ROOT
ATOM      1  C   UNL     1       6.848  -5.248  23.383  0.00  0.00    +0.000 C 
ATOM      2  C   UNL     1       8.200  -4.594  23.456  0.00  0.00    +0.000 C 
ATOM      3  O   UNL     1       8.958  -5.255  24.440  0.00  0.00    +0.000 OA
ATOM      4  N   UNL     1       8.094  -3.210  23.762  0.00  0.00    +0.000 NA
ATOM      5  C   UNL     1       7.152  -2.771  24.356  0.00  0.00    +0.000 C 
ATOM      6  N   UNL     1       6.224  -3.454  24.751  0.00  0.00    +0.000 NA
ATOM      7  C   UNL     1       5.935  -4.608  24.432  0.00  0.00    +0.000 C 
ENDROOT
BRANCH   7   8
ATOM      8  C   UNL     1       5.712  -5.621  25.548  0.00  0.00    +0.000 C 
ATOM      9  C   UNL     1       6.445  -5.418  26.701  0.00  0.00    +0.000 C 
ATOM     10  C   UNL     1       5.955  -4.861  28.181  0.00  0.00    +0.000 C 
ATOM     11  C   UNL     1       4.411  -4.660  27.716  0.00  0.00    +0.000 C 
ATOM     12  C   UNL     1       3.788  -5.721  26.852  0.00  0.00    +0.000 C 
ATOM     13  C   UNL     1       4.218  -5.973  25.431  0.00  0.00    +0.000 C 
BRANCH  13  14
ATOM     14  C   UNL     1       4.215  -7.266  25.259  0.00  0.00    +0.000 C 
ATOM     15  N   UNL     1       3.732  -7.521  24.229  0.00  0.00    +0.000 NA
ENDBRANCH  13  14
ENDBRANCH   7   8
BRANCH   1  17
ATOM     16  N   UNL     1       5.955  -5.084  20.962  0.00  0.00    +0.000 NA
ATOM     17  C   UNL     1       6.237  -5.063  22.077  0.00  0.00    +0.000 C 
ENDBRANCH   1  17
BRANCH   5  18
ATOM     18  S   UNL     1       6.644  -1.162  23.825  0.00  0.00    +0.000 S 
BRANCH  18  19
ATOM     19  C   UNL     1       7.596  -1.275  22.274  0.00  0.00    +0.000 C 
BRANCH  19  20
ATOM     20  C   UNL     1       7.487   0.069  21.582  0.00  0.00    +0.000 C 
ATOM     21  O   UNL     1       7.759   0.167  20.395  0.00  0.00    +0.000 OA
ATOM     22  N   UNL     1       6.930   1.069  22.248  0.00  0.00    +0.000 NA
BRANCH  22  23
ATOM     23  C   UNL     1       7.742   2.157  22.389  0.00  0.00    +0.000 C 
ATOM     24  C   UNL     1       7.251   3.435  22.086  0.00  0.00    +0.000 C 
ATOM     25  C   UNL     1       7.074   4.722  23.133  0.00  0.00    +0.000 C 
ATOM     26  N   UNL     1       8.308   4.178  23.972  0.00  0.00    +0.000 NA
ATOM     27  C   UNL     1       8.365   3.049  24.431  0.00  0.00    +0.000 C 
ATOM     28  C   UNL     1       8.896   1.819  23.491  0.00  0.00    +0.000 C 
BRANCH  28  29
ATOM     29  C   UNL     1      10.162   2.388  22.905  0.00  0.00    +0.000 C 
ATOM     30  F   UNL     1      11.203   2.317  23.787  0.00  0.00    +0.000 F 
ATOM     31  F   UNL     1      10.485   1.837  21.703  0.00  0.00    +0.000 F 
ENDBRANCH  28  29
ENDBRANCH  22  23
ENDBRANCH  19  20
ENDBRANCH  18  19
ENDBRANCH   5  18
TORSDOF 8
ENDMDL
MODEL 9
REMARK VINA RESULT:      -6.6      2.687      7.218
REMARK  Name = 
REMARK  8 active torsions:
REMARK  status: ('A' for Active; 'I' for Inactive)
REMARK    1  A    between atoms: C_2  and  C_3
REMARK    2  A    between atoms: C_7  and  S_18
REMARK    3  A    between atoms: C_9  and  C_10
REMARK    4  A    between atoms: C_15  and  C_16
REMARK    5  A    between atoms: S_18  and  C_19
REMARK    6  A    between atoms: C_19  and  C_20
REMARK    7  A    between atoms: N_22  and  C_23
REMARK    8  A    between atoms: C_28  and  C_29
REMARK                            x       y       z     vdW  Elec       q    Type
REMARK                         _______ _______ _______ _____ _____    ______ ____
ROOT
ATOM      1  C   UNL     1       9.523   0.980  22.639  0.00  0.00    +0.000 C 
ATOM      2  C   UNL     1       9.178  -0.215  21.794  0.00  0.00    +0.000 C 
ATOM      3  O   UNL     1       8.634   0.244  20.580  0.00  0.00    +0.000 OA
ATOM      4  N   UNL     1       8.254  -1.070  22.455  0.00  0.00    +0.000 NA
ATOM      5  C   UNL     1       7.505  -0.656  23.293  0.00  0.00    +0.000 C 
ATOM      6  N   UNL     1       7.460   0.510  23.641  0.00  0.00    +0.000 NA
ATOM      7  C   UNL     1       8.279   1.405  23.423  0.00  0.00    +0.000 C 
ENDROOT
BRANCH   7   8
ATOM      8  C   UNL     1       7.767   2.711  22.830  0.00  0.00    +0.000 C 
ATOM      9  C   UNL     1       6.684   2.602  21.979  0.00  0.00    +0.000 C 
ATOM     10  C   UNL     1       5.099   3.008  22.227  0.00  0.00    +0.000 C 
ATOM     11  C   UNL     1       5.353   3.511  23.752  0.00  0.00    +0.000 C 
ATOM     12  C   UNL     1       6.591   4.316  24.034  0.00  0.00    +0.000 C 
ATOM     13  C   UNL     1       7.978   3.735  23.960  0.00  0.00    +0.000 C 
BRANCH  13  14
ATOM     14  C   UNL     1       8.740   4.644  23.418  0.00  0.00    +0.000 C 
ATOM     15  N   UNL     1       9.810   4.580  23.876  0.00  0.00    +0.000 NA
ENDBRANCH  13  14
ENDBRANCH   7   8
BRANCH   1  17
ATOM     16  N   UNL     1      11.207   0.449  24.527  0.00  0.00    +0.000 NA
ATOM     17  C   UNL     1      10.577   0.673  23.592  0.00  0.00    +0.000 C 
ENDBRANCH   1  17
BRANCH   5  18
ATOM     18  S   UNL     1       7.208  -1.783  24.623  0.00  0.00    +0.000 S 
BRANCH  18  19
ATOM     19  C   UNL     1       8.573  -2.882  24.116  0.00  0.00    +0.000 C 
BRANCH  19  20
ATOM     20  C   UNL     1       8.125  -4.305  24.381  0.00  0.00    +0.000 C 
ATOM     21  O   UNL     1       8.933  -5.219  24.320  0.00  0.00    +0.000 OA
ATOM     22  N   UNL     1       6.899  -4.495  24.846  0.00  0.00    +0.000 NA
BRANCH  22  23
ATOM     23  C   UNL     1       6.129  -5.298  24.053  0.00  0.00    +0.000 C 
ATOM     24  C   UNL     1       5.174  -6.141  24.638  0.00  0.00    +0.000 C 
ATOM     25  C   UNL     1       3.520  -6.093  24.424  0.00  0.00    +0.000 C 
ATOM     26  N   UNL     1       3.751  -5.525  22.958  0.00  0.00    +0.000 NA
ATOM     27  C   UNL     1       4.404  -4.523  22.719  0.00  0.00    +0.000 C 
ATOM     28  C   UNL     1       6.030  -4.636  22.565  0.00  0.00    +0.000 C 
BRANCH  28  29
ATOM     29  C   UNL     1       6.182  -5.799  21.620  0.00  0.00    +0.000 C 
ATOM     30  F   UNL     1       6.043  -5.412  20.318  0.00  0.00    +0.000 F 
ATOM     31  F   UNL     1       7.335  -6.495  21.816  0.00  0.00    +0.000 F 
ENDBRANCH  28  29
ENDBRANCH  22  23
ENDBRANCH  19  20
ENDBRANCH  18  19
ENDBRANCH   5  18
TORSDOF 8
ENDMDL
