MODEL 1
REMARK VINA RESULT:      -6.2      0.000      0.000
REMARK  Name = 
REMARK  4 active torsions:
REMARK  status: ('A' for Active; 'I' for Inactive)
REMARK    1  A    between atoms: C_2  and  C_3
REMARK    2  A    between atoms: C_4  and  C_5
REMARK    3  A    between atoms: C_5  and  N_6
REMARK    4  A    between atoms: N_9  and  C_10
REMARK                            x       y       z     vdW  Elec       q    Type
REMARK                         _______ _______ _______ _____ _____    ______ ____
ROOT
ATOM      1  N   UNL     1       8.341  -3.063  24.275  0.00  0.00    +0.000 NA
ATOM      2  C   UNL     1       9.368  -2.335  23.810  0.00  0.00    +0.000 C 
ATOM      3  O   UNL     1      10.433  -2.824  23.530  0.00  0.00    +0.000 OA
ATOM      4  N   UNL     1       8.968  -1.142  23.405  0.00  0.00    +0.000 NA
ENDROOT
BRANCH   4   5
ATOM      5  C   UNL     1       9.024  -0.684  22.036  0.00  0.00    +0.000 C 
ATOM      6  C   UNL     1       9.921   0.582  22.003  0.00  0.00    +0.000 C 
ATOM      7  C   UNL     1       9.537   1.472  23.127  0.00  0.00    +0.000 C 
ATOM      8  O   UNL     1      10.123   1.050  24.313  0.00  0.00    +0.000 OA
ATOM      9  S   UNL     1       7.868   1.954  23.246  0.00  0.00    +0.000 S 
ATOM     10  C   UNL     1       6.971   0.566  22.647  0.00  0.00    +0.000 C 
ATOM     11  C   UNL     1       7.644  -0.222  21.573  0.00  0.00    +0.000 C 
ATOM     12  C   UNL     1       7.794   0.597  20.298  0.00  0.00    +0.000 C 
ATOM     13  O   UNL     1       6.888  -1.359  21.270  0.00  0.00    +0.000 OA
ENDBRANCH   4   5
BRANCH   1  14
ATOM     14  C   UNL     1       8.417  -4.510  24.306  0.00  0.00    +0.000 C 
BRANCH  14  16
ATOM     15  C   UNL     1       7.043  -5.803  22.571  0.00  0.00    +0.000 C 
ATOM     16  C   UNL     1       7.090  -5.045  23.702  0.00  0.00    +0.000 C 
ATOM     17  F   UNL     1       6.372  -5.643  24.747  0.00  0.00    +0.000 F 
BRANCH  15  19
ATOM     18  O   UNL     1       5.689  -4.484  21.140  0.00  0.00    +0.000 OA
ATOM     19  C   UNL     1       6.509  -5.630  21.153  0.00  0.00    +0.000 C 
ENDBRANCH  15  19
ENDBRANCH  14  16
ENDBRANCH   1  14
TORSDOF 4
ENDMDL
MODEL 2
REMARK VINA RESULT:      -6.2      3.119      5.412
REMARK  Name = 
REMARK  4 active torsions:
REMARK  status: ('A' for Active; 'I' for Inactive)
REMARK    1  A    between atoms: C_2  and  C_3
REMARK    2  A    between atoms: C_4  and  C_5
REMARK    3  A    between atoms: C_5  and  N_6
REMARK    4  A    between atoms: N_9  and  C_10
REMARK                            x       y       z     vdW  Elec       q    Type
REMARK                         _______ _______ _______ _____ _____    ______ ____
ROOT
ATOM      1  N   UNL     1       9.222  -1.183  21.699  0.00  0.00    +0.000 NA
ATOM      2  C   UNL     1       8.979  -1.770  22.882  0.00  0.00    +0.000 C 
ATOM      3  O   UNL     1       9.180  -1.216  23.932  0.00  0.00    +0.000 OA
ATOM      4  N   UNL     1       8.215  -2.841  22.740  0.00  0.00    +0.000 NA
ENDROOT
BRANCH   4   5
ATOM      5  C   UNL     1       6.878  -2.966  23.271  0.00  0.00    +0.000 C 
ATOM      6  C   UNL     1       6.941  -3.948  24.471  0.00  0.00    +0.000 C 
ATOM      7  C   UNL     1       7.760  -5.124  24.086  0.00  0.00    +0.000 C 
ATOM      8  O   UNL     1       9.115  -4.843  24.205  0.00  0.00    +0.000 OA
ATOM      9  S   UNL     1       7.299  -5.999  22.652  0.00  0.00    +0.000 S 
ATOM     10  C   UNL     1       6.658  -4.765  21.578  0.00  0.00    +0.000 C 
ATOM     11  C   UNL     1       5.959  -3.627  22.246  0.00  0.00    +0.000 C 
ATOM     12  C   UNL     1       4.688  -4.093  22.944  0.00  0.00    +0.000 C 
ATOM     13  O   UNL     1       5.603  -2.662  21.299  0.00  0.00    +0.000 OA
ENDBRANCH   4   5
BRANCH   1  14
ATOM     14  C   UNL     1       9.589   0.216  21.633  0.00  0.00    +0.000 C 
BRANCH  14  16
ATOM     15  C   UNL     1       7.279   0.398  20.535  0.00  0.00    +0.000 C 
ATOM     16  C   UNL     1       8.323   0.993  21.178  0.00  0.00    +0.000 C 
ATOM     17  F   UNL     1       7.883   1.747  22.275  0.00  0.00    +0.000 F 
BRANCH  15  19
ATOM     18  O   UNL     1       7.649   0.086  18.214  0.00  0.00    +0.000 OA
ATOM     19  C   UNL     1       6.661   0.470  19.142  0.00  0.00    +0.000 C 
ENDBRANCH  15  19
ENDBRANCH  14  16
ENDBRANCH   1  14
TORSDOF 4
ENDMDL
MODEL 3
REMARK VINA RESULT:      -6.1      3.233      5.946
REMARK  Name = 
REMARK  4 active torsions:
REMARK  status: ('A' for Active; 'I' for Inactive)
REMARK    1  A    between atoms: C_2  and  C_3
REMARK    2  A    between atoms: C_4  and  C_5
REMARK    3  A    between atoms: C_5  and  N_6
REMARK    4  A    between atoms: N_9  and  C_10
REMARK                            x       y       z     vdW  Elec       q    Type
REMARK                         _______ _______ _______ _____ _____    ______ ____
ROOT
ATOM      1  N   UNL     1       7.174  -0.924  22.238  0.00  0.00    +0.000 NA
ATOM      2  C   UNL     1       7.933  -2.002  21.985  0.00  0.00    +0.000 C 
ATOM      3  O   UNL     1       9.127  -1.933  21.843  0.00  0.00    +0.000 OA
ATOM      4  N   UNL     1       7.278  -3.123  22.238  0.00  0.00    +0.000 NA
ENDROOT
BRANCH   4   5
ATOM      5  C   UNL     1       7.639  -4.064  23.272  0.00  0.00    +0.000 C 
ATOM      6  C   UNL     1       7.254  -5.481  22.770  0.00  0.00    +0.000 C 
ATOM      7  C   UNL     1       5.894  -5.428  22.179  0.00  0.00    +0.000 C 
ATOM      8  O   UNL     1       5.940  -4.945  20.878  0.00  0.00    +0.000 OA
ATOM      9  S   UNL     1       4.605  -4.800  23.167  0.00  0.00    +0.000 S 
ATOM     10  C   UNL     1       5.375  -3.564  24.151  0.00  0.00    +0.000 C 
ATOM     11  C   UNL     1       6.796  -3.828  24.523  0.00  0.00    +0.000 C 
ATOM     12  C   UNL     1       6.911  -5.040  25.438  0.00  0.00    +0.000 C 
ATOM     13  O   UNL     1       7.326  -2.725  25.199  0.00  0.00    +0.000 OA
ENDBRANCH   4   5
BRANCH   1  14
ATOM     14  C   UNL     1       7.786   0.359  22.515  0.00  0.00    +0.000 C 
BRANCH  14  16
ATOM     15  C   UNL     1       6.667   1.057  20.317  0.00  0.00    +0.000 C 
ATOM     16  C   UNL     1       7.685   1.197  21.211  0.00  0.00    +0.000 C 
ATOM     17  F   UNL     1       7.868   2.541  21.568  0.00  0.00    +0.000 F 
BRANCH  15  19
ATOM     18  O   UNL     1       7.754  -0.013  18.502  0.00  0.00    +0.000 OA
ATOM     19  C   UNL     1       6.525   0.564  18.880  0.00  0.00    +0.000 C 
ENDBRANCH  15  19
ENDBRANCH  14  16
ENDBRANCH   1  14
TORSDOF 4
ENDMDL
MODEL 4
REMARK VINA RESULT:      -6.1      1.111      1.196
REMARK  Name = 
REMARK  4 active torsions:
REMARK  status: ('A' for Active; 'I' for Inactive)
REMARK    1  A    between atoms: C_2  and  C_3
REMARK    2  A    between atoms: C_4  and  C_5
REMARK    3  A    between atoms: C_5  and  N_6
REMARK    4  A    between atoms: N_9  and  C_10
REMARK                            x       y       z     vdW  Elec       q    Type
REMARK                         _______ _______ _______ _____ _____    ______ ____
ROOT
ATOM      1  N   UNL     1       8.071  -3.134  24.528  0.00  0.00    +0.000 NA
ATOM      2  C   UNL     1       9.150  -2.529  24.006  0.00  0.00    +0.000 C 
ATOM      3  O   UNL     1      10.188  -3.109  23.817  0.00  0.00    +0.000 OA
ATOM      4  N   UNL     1       8.830  -1.375  23.445  0.00  0.00    +0.000 NA
ENDROOT
BRANCH   4   5
ATOM      5  C   UNL     1       8.941  -1.096  22.033  0.00  0.00    +0.000 C 
ATOM      6  C   UNL     1      10.021   0.005  21.857  0.00  0.00    +0.000 C 
ATOM      7  C   UNL     1       9.789   1.070  22.865  0.00  0.00    +0.000 C 
ATOM      8  O   UNL     1      10.317   0.705  24.097  0.00  0.00    +0.000 OA
ATOM      9  S   UNL     1       8.216   1.813  22.913  0.00  0.00    +0.000 S 
ATOM     10  C   UNL     1       7.111   0.518  22.476  0.00  0.00    +0.000 C 
ATOM     11  C   UNL     1       7.643  -0.486  21.508  0.00  0.00    +0.000 C 
ATOM     12  C   UNL     1       7.903   0.145  20.146  0.00  0.00    +0.000 C 
ATOM     13  O   UNL     1       6.719  -1.521  21.335  0.00  0.00    +0.000 OA
ENDBRANCH   4   5
BRANCH   1  14
ATOM     14  C   UNL     1       8.060  -4.567  24.740  0.00  0.00    +0.000 C 
BRANCH  14  16
ATOM     15  C   UNL     1       6.063  -4.433  23.138  0.00  0.00    +0.000 C 
ATOM     16  C   UNL     1       7.054  -5.166  23.720  0.00  0.00    +0.000 C 
ATOM     17  F   UNL     1       7.802  -5.864  22.761  0.00  0.00    +0.000 F 
BRANCH  15  19
ATOM     18  O   UNL     1       4.074  -5.590  22.571  0.00  0.00    +0.000 OA
ATOM     19  C   UNL     1       4.539  -4.411  23.185  0.00  0.00    +0.000 C 
ENDBRANCH  15  19
ENDBRANCH  14  16
ENDBRANCH   1  14
TORSDOF 4
ENDMDL
MODEL 5
REMARK VINA RESULT:      -6.0      3.002      5.940
REMARK  Name = 
REMARK  4 active torsions:
REMARK  status: ('A' for Active; 'I' for Inactive)
REMARK    1  A    between atoms: C_2  and  C_3
REMARK    2  A    between atoms: C_4  and  C_5
REMARK    3  A    between atoms: C_5  and  N_6
REMARK    4  A    between atoms: N_9  and  C_10
REMARK                            x       y       z     vdW  Elec       q    Type
REMARK                         _______ _______ _______ _____ _____    ______ ____
ROOT
ATOM      1  N   UNL     1       6.719  -1.373  21.953  0.00  0.00    +0.000 NA
ATOM      2  C   UNL     1       6.187  -2.532  22.372  0.00  0.00    +0.000 C 
ATOM      3  O   UNL     1       5.538  -3.244  21.648  0.00  0.00    +0.000 OA
ATOM      4  N   UNL     1       6.726  -2.926  23.513  0.00  0.00    +0.000 NA
ENDROOT
BRANCH   4   5
ATOM      5  C   UNL     1       7.523  -4.120  23.671  0.00  0.00    +0.000 C 
ATOM      6  C   UNL     1       6.657  -5.164  24.425  0.00  0.00    +0.000 C 
ATOM      7  C   UNL     1       5.987  -4.495  25.568  0.00  0.00    +0.000 C 
ATOM      8  O   UNL     1       4.853  -3.814  25.145  0.00  0.00    +0.000 OA
ATOM      9  S   UNL     1       6.988  -3.646  26.712  0.00  0.00    +0.000 S 
ATOM     10  C   UNL     1       8.307  -3.006  25.743  0.00  0.00    +0.000 C 
ATOM     11  C   UNL     1       8.719  -3.845  24.579  0.00  0.00    +0.000 C 
ATOM     12  C   UNL     1       9.314  -5.170  25.037  0.00  0.00    +0.000 C 
ATOM     13  O   UNL     1       9.688  -3.174  23.826  0.00  0.00    +0.000 OA
ENDBRANCH   4   5
BRANCH   1  14
ATOM     14  C   UNL     1       6.672  -1.003  20.554  0.00  0.00    +0.000 C 
BRANCH  14  16
ATOM     15  C   UNL     1       9.027  -0.109  21.031  0.00  0.00    +0.000 C 
ATOM     16  C   UNL     1       7.882  -0.065  20.293  0.00  0.00    +0.000 C 
ATOM     17  F   UNL     1       8.158  -0.117  18.920  0.00  0.00    +0.000 F 
BRANCH  15  19
ATOM     18  O   UNL     1      10.449   0.008  22.924  0.00  0.00    +0.000 OA
ATOM     19  C   UNL     1       9.738   0.815  22.014  0.00  0.00    +0.000 C 
ENDBRANCH  15  19
ENDBRANCH  14  16
ENDBRANCH   1  14
TORSDOF 4
ENDMDL
MODEL 6
REMARK VINA RESULT:      -5.9      1.920      2.478
REMARK  Name = 
REMARK  4 active torsions:
REMARK  status: ('A' for Active; 'I' for Inactive)
REMARK    1  A    between atoms: C_2  and  C_3
REMARK    2  A    between atoms: C_4  and  C_5
REMARK    3  A    between atoms: C_5  and  N_6
REMARK    4  A    between atoms: N_9  and  C_10
REMARK                            x       y       z     vdW  Elec       q    Type
REMARK                         _______ _______ _______ _____ _____    ______ ____
ROOT
ATOM      1  N   UNL     1       8.241  -3.294  24.453  0.00  0.00    +0.000 NA
ATOM      2  C   UNL     1       9.284  -2.591  23.985  0.00  0.00    +0.000 C 
ATOM      3  O   UNL     1      10.356  -3.093  23.764  0.00  0.00    +0.000 OA
ATOM      4  N   UNL     1       8.899  -1.420  23.506  0.00  0.00    +0.000 NA
ENDROOT
BRANCH   4   5
ATOM      5  C   UNL     1       8.999  -1.033  22.118  0.00  0.00    +0.000 C 
ATOM      6  C   UNL     1       9.983   0.165  22.036  0.00  0.00    +0.000 C 
ATOM      7  C   UNL     1       9.652   1.132  23.112  0.00  0.00    +0.000 C 
ATOM      8  O   UNL     1      10.197   0.726  24.324  0.00  0.00    +0.000 OA
ATOM      9  S   UNL     1       8.020   1.734  23.188  0.00  0.00    +0.000 S 
ATOM     10  C   UNL     1       7.034   0.385  22.644  0.00  0.00    +0.000 C 
ATOM     11  C   UNL     1       7.659  -0.499  21.617  0.00  0.00    +0.000 C 
ATOM     12  C   UNL     1       7.877   0.246  20.306  0.00  0.00    +0.000 C 
ATOM     13  O   UNL     1       6.828  -1.593  21.358  0.00  0.00    +0.000 OA
ENDBRANCH   4   5
BRANCH   1  14
ATOM     14  C   UNL     1       8.314  -4.737  24.561  0.00  0.00    +0.000 C 
BRANCH  14  16
ATOM     15  C   UNL     1       6.441  -4.699  26.311  0.00  0.00    +0.000 C 
ATOM     16  C   UNL     1       6.963  -5.213  25.162  0.00  0.00    +0.000 C 
ATOM     17  F   UNL     1       6.021  -5.202  24.124  0.00  0.00    +0.000 F 
BRANCH  15  19
ATOM     18  O   UNL     1       7.249  -6.021  28.106  0.00  0.00    +0.000 OA
ATOM     19  C   UNL     1       6.159  -5.216  27.718  0.00  0.00    +0.000 C 
ENDBRANCH  15  19
ENDBRANCH  14  16
ENDBRANCH   1  14
TORSDOF 4
ENDMDL
MODEL 7
REMARK VINA RESULT:      -5.7      3.164      5.233
REMARK  Name = 
REMARK  4 active torsions:
REMARK  status: ('A' for Active; 'I' for Inactive)
REMARK    1  A    between atoms: C_2  and  C_3
REMARK    2  A    between atoms: C_4  and  C_5
REMARK    3  A    between atoms: C_5  and  N_6
REMARK    4  A    between atoms: N_9  and  C_10
REMARK                            x       y       z     vdW  Elec       q    Type
REMARK                         _______ _______ _______ _____ _____    ______ ____
ROOT
ATOM      1  N   UNL     1       8.869  -1.524  21.876  0.00  0.00    +0.000 NA
ATOM      2  C   UNL     1       9.491  -1.812  23.031  0.00  0.00    +0.000 C 
ATOM      3  O   UNL     1      10.394  -1.143  23.463  0.00  0.00    +0.000 OA
ATOM      4  N   UNL     1       8.795  -2.676  23.751  0.00  0.00    +0.000 NA
ENDROOT
BRANCH   4   5
ATOM      5  C   UNL     1       8.203  -2.378  25.034  0.00  0.00    +0.000 C 
ATOM      6  C   UNL     1       8.516  -3.566  25.981  0.00  0.00    +0.000 C 
ATOM      7  C   UNL     1       8.257  -4.836  25.259  0.00  0.00    +0.000 C 
ATOM      8  O   UNL     1       9.330  -5.165  24.440  0.00  0.00    +0.000 OA
ATOM      9  S   UNL     1       6.681  -5.064  24.556  0.00  0.00    +0.000 S 
ATOM     10  C   UNL     1       6.191  -3.451  24.059  0.00  0.00    +0.000 C 
ATOM     11  C   UNL     1       6.680  -2.334  24.919  0.00  0.00    +0.000 C 
ATOM     12  C   UNL     1       6.073  -2.404  26.314  0.00  0.00    +0.000 C 
ATOM     13  O   UNL     1       6.325  -1.104  24.355  0.00  0.00    +0.000 OA
ENDBRANCH   4   5
BRANCH   1  14
ATOM     14  C   UNL     1       9.153  -0.289  21.175  0.00  0.00    +0.000 C 
BRANCH  14  16
ATOM     15  C   UNL     1       6.855  -0.371  20.042  0.00  0.00    +0.000 C 
ATOM     16  C   UNL     1       7.785   0.319  20.760  0.00  0.00    +0.000 C 
ATOM     17  F   UNL     1       7.221   0.890  21.909  0.00  0.00    +0.000 F 
BRANCH  15  19
ATOM     18  O   UNL     1       7.021   0.645  17.906  0.00  0.00    +0.000 OA
ATOM     19  C   UNL     1       6.246  -0.270  18.647  0.00  0.00    +0.000 C 
ENDBRANCH  15  19
ENDBRANCH  14  16
ENDBRANCH   1  14
TORSDOF 4
ENDMDL
MODEL 8
REMARK VINA RESULT:      -5.7      2.093      2.344
REMARK  Name = 
REMARK  4 active torsions:
REMARK  status: ('A' for Active; 'I' for Inactive)
REMARK    1  A    between atoms: C_2  and  C_3
REMARK    2  A    between atoms: C_4  and  C_5
REMARK    3  A    between atoms: C_5  and  N_6
REMARK    4  A    between atoms: N_9  and  C_10
REMARK                            x       y       z     vdW  Elec       q    Type
REMARK                         _______ _______ _______ _____ _____    ______ ____
ROOT
ATOM      1  N   UNL     1       7.585  -4.064  23.369  0.00  0.00    +0.000 NA
ATOM      2  C   UNL     1       8.608  -3.465  23.998  0.00  0.00    +0.000 C 
ATOM      3  O   UNL     1       9.600  -4.061  24.332  0.00  0.00    +0.000 OA
ATOM      4  N   UNL     1       8.530  -2.148  23.900  0.00  0.00    +0.000 NA
ENDROOT
BRANCH   4   5
ATOM      5  C   UNL     1       9.484  -1.325  23.196  0.00  0.00    +0.000 C 
ATOM      6  C   UNL     1      10.255  -0.492  24.254  0.00  0.00    +0.000 C 
ATOM      7  C   UNL     1       9.283   0.067  25.226  0.00  0.00    +0.000 C 
ATOM      8  O   UNL     1       8.937  -0.883  26.179  0.00  0.00    +0.000 OA
ATOM      9  S   UNL     1       7.964   1.015  24.600  0.00  0.00    +0.000 S 
ATOM     10  C   UNL     1       7.596   0.277  23.049  0.00  0.00    +0.000 C 
ATOM     11  C   UNL     1       8.761  -0.305  22.318  0.00  0.00    +0.000 C 
ATOM     12  C   UNL     1       9.745   0.778  21.897  0.00  0.00    +0.000 C 
ATOM     13  O   UNL     1       8.322  -0.963  21.165  0.00  0.00    +0.000 OA
ENDBRANCH   4   5
BRANCH   1  14
ATOM     14  C   UNL     1       7.700  -5.435  22.915  0.00  0.00    +0.000 C 
BRANCH  14  16
ATOM     15  C   UNL     1       5.157  -5.473  23.246  0.00  0.00    +0.000 C 
ATOM     16  C   UNL     1       6.262  -5.923  22.587  0.00  0.00    +0.000 C 
ATOM     17  F   UNL     1       6.100  -5.829  21.197  0.00  0.00    +0.000 F 
BRANCH  15  19
ATOM     18  O   UNL     1       4.432  -7.435  24.361  0.00  0.00    +0.000 OA
ATOM     19  C   UNL     1       4.121  -6.072  24.191  0.00  0.00    +0.000 C 
ENDBRANCH  15  19
ENDBRANCH  14  16
ENDBRANCH   1  14
TORSDOF 4
ENDMDL
MODEL 9
REMARK VINA RESULT:      -5.6      1.814      2.385
REMARK  Name = 
REMARK  4 active torsions:
REMARK  status: ('A' for Active; 'I' for Inactive)
REMARK    1  A    between atoms: C_2  and  C_3
REMARK    2  A    between atoms: C_4  and  C_5
REMARK    3  A    between atoms: C_5  and  N_6
REMARK    4  A    between atoms: N_9  and  C_10
REMARK                            x       y       z     vdW  Elec       q    Type
REMARK                         _______ _______ _______ _____ _____    ______ ____
ROOT
ATOM      1  N   UNL     1       7.857  -2.405  23.085  0.00  0.00    +0.000 NA
ATOM      2  C   UNL     1       8.990  -1.776  22.736  0.00  0.00    +0.000 C 
ATOM      3  O   UNL     1       9.722  -2.193  21.874  0.00  0.00    +0.000 OA
ATOM      4  N   UNL     1       9.015  -0.537  23.197  0.00  0.00    +0.000 NA
ENDROOT
BRANCH   4   5
ATOM      5  C   UNL     1       9.009   0.643  22.366  0.00  0.00    +0.000 C 
ATOM      6  C   UNL     1      10.080   1.616  22.927  0.00  0.00    +0.000 C 
ATOM      7  C   UNL     1       9.944   1.679  24.403  0.00  0.00    +0.000 C 
ATOM      8  O   UNL     1      10.570   0.594  25.003  0.00  0.00    +0.000 OA
ATOM      9  S   UNL     1       8.387   2.102  25.057  0.00  0.00    +0.000 S 
ATOM     10  C   UNL     1       7.238   1.410  23.922  0.00  0.00    +0.000 C 
ATOM     11  C   UNL     1       7.677   1.379  22.496  0.00  0.00    +0.000 C 
ATOM     12  C   UNL     1       7.827   2.786  21.934  0.00  0.00    +0.000 C 
ATOM     13  O   UNL     1       6.732   0.702  21.719  0.00  0.00    +0.000 OA
ENDBRANCH   4   5
BRANCH   1  14
ATOM     14  C   UNL     1       7.378  -3.539  22.321  0.00  0.00    +0.000 C 
BRANCH  14  16
ATOM     15  C   UNL     1       7.889  -4.710  24.544  0.00  0.00    +0.000 C 
ATOM     16  C   UNL     1       7.400  -4.766  23.273  0.00  0.00    +0.000 C 
ATOM     17  F   UNL     1       6.119  -5.336  23.245  0.00  0.00    +0.000 F 
BRANCH  15  19
ATOM     18  O   UNL     1      10.248  -4.716  24.781  0.00  0.00    +0.000 OA
ATOM     19  C   UNL     1       9.076  -5.308  25.293  0.00  0.00    +0.000 C 
ENDBRANCH  15  19
ENDBRANCH  14  16
ENDBRANCH   1  14
TORSDOF 4
ENDMDL
