MODEL 1
REMARK VINA RESULT:      -7.5      0.000      0.000
REMARK  Name = 
REMARK  7 active torsions:
REMARK  status: ('A' for Active; 'I' for Inactive)
REMARK    1  A    between atoms: C_2  and  N_3
REMARK    2  A    between atoms: C_4  and  C_6
REMARK    3  A    between atoms: C_11  and  N_12
REMARK    4  A    between atoms: C_18  and  S_23
REMARK    5  A    between atoms: S_23  and  C_26
REMARK    6  A    between atoms: C_26  and  C_27
REMARK    7  A    between atoms: C_28  and  C_29
REMARK                            x       y       z     vdW  Elec       q    Type
REMARK                         _______ _______ _______ _____ _____    ______ ____
ROOT
ATOM      1  N   UNL     1       8.297  -0.749  23.140  0.00  0.00    +0.000 N 
ATOM      2  C   UNL     1       7.351  -0.724  24.233  0.00  0.00    +0.000 C 
ATOM      3  C   UNL     1       7.615  -1.829  25.231  0.00  0.00    +0.000 C 
ATOM      4  C   UNL     1       8.383  -2.970  24.615  0.00  0.00    +0.000 C 
ATOM      5  N   UNL     1       8.128  -3.062  23.209  0.00  0.00    +0.000 N 
ATOM      6  C   UNL     1       8.487  -1.944  22.356  0.00  0.00    +0.000 C 
ATOM      7  C   UNL     1       7.310  -4.093  22.716  0.00  0.00    +0.000 C 
ATOM      8  C   UNL     1       7.467  -5.368  23.258  0.00  0.00    +0.000 C 
ATOM      9  C   UNL     1       8.558  -5.455  24.468  0.00  0.00    +0.000 C 
ATOM     10  C   UNL     1       8.177  -4.262  25.345  0.00  0.00    +0.000 C 
ATOM     11  C   UNL     1       7.830  -6.667  22.378  0.00  0.00    +0.000 C 
ENDROOT
BRANCH   1  17
ATOM     12  C   UNL     1       9.257   1.069  21.894  0.00  0.00    +0.000 C 
ATOM     13  C   UNL     1      10.293   2.206  22.074  0.00  0.00    +0.000 C 
ATOM     14  C   UNL     1       9.849   3.002  23.280  0.00  0.00    +0.000 C 
ATOM     15  C   UNL     1       9.578   2.338  24.487  0.00  0.00    +0.000 C 
ATOM     16  C   UNL     1       9.799   0.814  24.391  0.00  0.00    +0.000 C 
ATOM     17  C   UNL     1       9.336   0.228  23.215  0.00  0.00    +0.000 C 
ATOM     18  O   UNL     1      10.948   0.503  25.179  0.00  0.00    +0.000 OA
ATOM     19  F   UNL     1       8.935   3.971  23.029  0.00  0.00    +0.000 F 
BRANCH  12  21
ATOM     20  N   UNL     1       6.860   1.106  21.426  0.00  0.00    +0.000 NA
ATOM     21  C   UNL     1       7.913   1.785  21.917  0.00  0.00    +0.000 C 
ATOM     22  O   UNL     1       7.916   3.015  21.812  0.00  0.00    +0.000 OA
BRANCH  20  24
ATOM     23  C   UNL     1       5.681   0.998  19.302  0.00  0.00    +0.000 C 
ATOM     24  C   UNL     1       6.920   0.574  20.081  0.00  0.00    +0.000 C 
ENDBRANCH  20  24
ENDBRANCH  12  21
ENDBRANCH   1  17
BRANCH   7  25
ATOM     25  S   UNL     1       5.635  -3.394  22.711  0.00  0.00    +0.000 S 
ATOM     26  O   UNL     1       4.774  -4.344  22.064  0.00  0.00    +0.000 OA
ATOM     27  O   UNL     1       5.755  -2.125  22.001  0.00  0.00    +0.000 OA
BRANCH  25  28
ATOM     28  C   UNL     1       5.010  -3.044  24.306  0.00  0.00    +0.000 C 
BRANCH  28  29
ATOM     29  C   UNL     1       4.179  -4.240  24.838  0.00  0.00    +0.000 C 
ATOM     30  C   UNL     1       4.552  -5.135  25.778  0.00  0.00    +0.000 C 
ATOM     31  F   UNL     1       2.888  -3.709  25.090  0.00  0.00    +0.000 F 
BRANCH  30  32
ATOM     32  C   UNL     1       4.915  -6.625  25.719  0.00  0.00    +0.000 C 
ATOM     33  N   UNL     1       4.467  -7.180  24.482  0.00  0.00    +0.000 NA
ENDBRANCH  30  32
ENDBRANCH  28  29
ENDBRANCH  25  28
ENDBRANCH   7  25
TORSDOF 7
ENDMDL
MODEL 2
REMARK VINA RESULT:      -7.1      2.463      7.396
REMARK  Name = 
REMARK  7 active torsions:
REMARK  status: ('A' for Active; 'I' for Inactive)
REMARK    1  A    between atoms: C_2  and  N_3
REMARK    2  A    between atoms: C_4  and  C_6
REMARK    3  A    between atoms: C_11  and  N_12
REMARK    4  A    between atoms: C_18  and  S_23
REMARK    5  A    between atoms: S_23  and  C_26
REMARK    6  A    between atoms: C_26  and  C_27
REMARK    7  A    between atoms: C_28  and  C_29
REMARK                            x       y       z     vdW  Elec       q    Type
REMARK                         _______ _______ _______ _____ _____    ______ ____
ROOT
ATOM      1  N   UNL     1       6.141  -3.641  25.069  0.00  0.00    +0.000 N 
ATOM      2  C   UNL     1       7.425  -4.170  25.473  0.00  0.00    +0.000 C 
ATOM      3  C   UNL     1       8.138  -3.242  26.431  0.00  0.00    +0.000 C 
ATOM      4  C   UNL     1       7.650  -1.822  26.305  0.00  0.00    +0.000 C 
ATOM      5  N   UNL     1       7.164  -1.560  24.984  0.00  0.00    +0.000 N 
ATOM      6  C   UNL     1       6.036  -2.326  24.487  0.00  0.00    +0.000 C 
ATOM      7  C   UNL     1       7.928  -0.775  24.104  0.00  0.00    +0.000 C 
ATOM      8  C   UNL     1       8.556   0.360  24.617  0.00  0.00    +0.000 C 
ATOM      9  C   UNL     1       8.359   0.569  26.223  0.00  0.00    +0.000 C 
ATOM     10  C   UNL     1       8.661  -0.822  26.779  0.00  0.00    +0.000 C 
ATOM     11  C   UNL     1       8.305   1.845  24.047  0.00  0.00    +0.000 C 
ENDROOT
BRANCH   1  17
ATOM     12  C   UNL     1       4.188  -4.964  24.603  0.00  0.00    +0.000 C 
ATOM     13  C   UNL     1       3.061  -5.709  25.358  0.00  0.00    +0.000 C 
ATOM     14  C   UNL     1       3.742  -6.680  26.294  0.00  0.00    +0.000 C 
ATOM     15  C   UNL     1       4.743  -6.219  27.163  0.00  0.00    +0.000 C 
ATOM     16  C   UNL     1       4.999  -4.703  27.025  0.00  0.00    +0.000 C 
ATOM     17  C   UNL     1       5.012  -4.227  25.717  0.00  0.00    +0.000 C 
ATOM     18  O   UNL     1       4.523  -4.084  28.221  0.00  0.00    +0.000 OA
ATOM     19  F   UNL     1       4.070  -7.877  25.748  0.00  0.00    +0.000 F 
BRANCH  12  21
ATOM     20  N   UNL     1       6.026  -5.724  23.185  0.00  0.00    +0.000 NA
ATOM     21  C   UNL     1       5.079  -6.080  24.073  0.00  0.00    +0.000 C 
ATOM     22  O   UNL     1       4.593  -7.210  23.987  0.00  0.00    +0.000 OA
BRANCH  20  24
ATOM     23  C   UNL     1       6.232  -5.715  20.762  0.00  0.00    +0.000 C 
ATOM     24  C   UNL     1       5.645  -5.015  21.982  0.00  0.00    +0.000 C 
ENDBRANCH  20  24
ENDBRANCH  12  21
ENDBRANCH   1  17
BRANCH   7  25
ATOM     25  S   UNL     1       8.967  -1.963  23.207  0.00  0.00    +0.000 S 
ATOM     26  O   UNL     1       8.090  -2.884  22.539  0.00  0.00    +0.000 OA
ATOM     27  O   UNL     1       9.806  -2.581  24.228  0.00  0.00    +0.000 OA
BRANCH  25  28
ATOM     28  C   UNL     1      10.030  -1.226  22.032  0.00  0.00    +0.000 C 
BRANCH  28  29
ATOM     29  C   UNL     1       9.249  -0.217  21.149  0.00  0.00    +0.000 C 
ATOM     30  C   UNL     1       7.910  -0.151  20.981  0.00  0.00    +0.000 C 
ATOM     31  F   UNL     1       9.812   1.049  21.448  0.00  0.00    +0.000 F 
BRANCH  30  32
ATOM     32  C   UNL     1       6.987  -0.466  19.797  0.00  0.00    +0.000 C 
ATOM     33  N   UNL     1       7.539   0.082  18.599  0.00  0.00    +0.000 NA
ENDBRANCH  30  32
ENDBRANCH  28  29
ENDBRANCH  25  28
ENDBRANCH   7  25
TORSDOF 7
ENDMDL
MODEL 3
REMARK VINA RESULT:      -6.9      2.500      6.864
REMARK  Name = 
REMARK  7 active torsions:
REMARK  status: ('A' for Active; 'I' for Inactive)
REMARK    1  A    between atoms: C_2  and  N_3
REMARK    2  A    between atoms: C_4  and  C_6
REMARK    3  A    between atoms: C_11  and  N_12
REMARK    4  A    between atoms: C_18  and  S_23
REMARK    5  A    between atoms: S_23  and  C_26
REMARK    6  A    between atoms: C_26  and  C_27
REMARK    7  A    between atoms: C_28  and  C_29
REMARK                            x       y       z     vdW  Elec       q    Type
REMARK                         _______ _______ _______ _____ _____    ______ ____
ROOT
ATOM      1  N   UNL     1       7.537  -2.203  24.131  0.00  0.00    +0.000 N 
ATOM      2  C   UNL     1       8.918  -2.387  23.743  0.00  0.00    +0.000 C 
ATOM      3  C   UNL     1       9.812  -1.311  24.317  0.00  0.00    +0.000 C 
ATOM      4  C   UNL     1       9.039  -0.063  24.658  0.00  0.00    +0.000 C 
ATOM      5  N   UNL     1       7.883   0.071  23.824  0.00  0.00    +0.000 N 
ATOM      6  C   UNL     1       6.859  -0.956  23.875  0.00  0.00    +0.000 C 
ATOM      7  C   UNL     1       7.873   1.028  22.796  0.00  0.00    +0.000 C 
ATOM      8  C   UNL     1       8.415   2.285  23.067  0.00  0.00    +0.000 C 
ATOM      9  C   UNL     1       9.061   2.431  24.557  0.00  0.00    +0.000 C 
ATOM     10  C   UNL     1       9.904   1.161  24.680  0.00  0.00    +0.000 C 
ATOM     11  C   UNL     1       7.587   3.657  22.918  0.00  0.00    +0.000 C 
ENDROOT
BRANCH   1  17
ATOM     12  C   UNL     1       5.573  -3.368  24.882  0.00  0.00    +0.000 C 
ATOM     13  C   UNL     1       5.155  -4.414  25.945  0.00  0.00    +0.000 C 
ATOM     14  C   UNL     1       6.033  -5.624  25.722  0.00  0.00    +0.000 C 
ATOM     15  C   UNL     1       7.426  -5.466  25.656  0.00  0.00    +0.000 C 
ATOM     16  C   UNL     1       7.869  -3.999  25.841  0.00  0.00    +0.000 C 
ATOM     17  C   UNL     1       7.083  -3.061  25.178  0.00  0.00    +0.000 C 
ATOM     18  O   UNL     1       8.528  -3.914  27.105  0.00  0.00    +0.000 OA
ATOM     19  F   UNL     1       5.586  -6.499  24.788  0.00  0.00    +0.000 F 
BRANCH  12  21
ATOM     20  N   UNL     1       4.344  -4.227  22.954  0.00  0.00    +0.000 NA
ATOM     21  C   UNL     1       5.537  -4.140  23.569  0.00  0.00    +0.000 C 
ATOM     22  O   UNL     1       6.338  -5.068  23.428  0.00  0.00    +0.000 OA
BRANCH  20  24
ATOM     23  C   UNL     1       2.812  -6.112  23.086  0.00  0.00    +0.000 C 
ATOM     24  C   UNL     1       3.209  -4.763  23.675  0.00  0.00    +0.000 C 
ENDBRANCH  20  24
ENDBRANCH  12  21
ENDBRANCH   1  17
BRANCH   7  25
ATOM     25  S   UNL     1       8.503   0.150  21.339  0.00  0.00    +0.000 S 
ATOM     26  O   UNL     1       9.897  -0.114  21.563  0.00  0.00    +0.000 OA
ATOM     27  O   UNL     1       8.244   1.043  20.215  0.00  0.00    +0.000 OA
BRANCH  25  28
ATOM     28  C   UNL     1       7.679  -1.357  21.010  0.00  0.00    +0.000 C 
BRANCH  28  29
ATOM     29  C   UNL     1       6.266  -1.088  20.431  0.00  0.00    +0.000 C 
ATOM     30  C   UNL     1       5.963  -0.708  19.170  0.00  0.00    +0.000 C 
ATOM     31  F   UNL     1       5.475  -2.183  20.862  0.00  0.00    +0.000 F 
BRANCH  30  32
ATOM     32  C   UNL     1       5.432   0.601  18.571  0.00  0.00    +0.000 C 
ATOM     33  N   UNL     1       6.255   0.993  17.470  0.00  0.00    +0.000 NA
ENDBRANCH  30  32
ENDBRANCH  28  29
ENDBRANCH  25  28
ENDBRANCH   7  25
TORSDOF 7
ENDMDL
MODEL 4
REMARK VINA RESULT:      -6.9      2.578      3.840
REMARK  Name = 
REMARK  7 active torsions:
REMARK  status: ('A' for Active; 'I' for Inactive)
REMARK    1  A    between atoms: C_2  and  N_3
REMARK    2  A    between atoms: C_4  and  C_6
REMARK    3  A    between atoms: C_11  and  N_12
REMARK    4  A    between atoms: C_18  and  S_23
REMARK    5  A    between atoms: S_23  and  C_26
REMARK    6  A    between atoms: C_26  and  C_27
REMARK    7  A    between atoms: C_28  and  C_29
REMARK                            x       y       z     vdW  Elec       q    Type
REMARK                         _______ _______ _______ _____ _____    ______ ____
ROOT
ATOM      1  N   UNL     1       7.470  -1.262  23.410  0.00  0.00    +0.000 N 
ATOM      2  C   UNL     1       8.731  -1.939  23.202  0.00  0.00    +0.000 C 
ATOM      3  C   UNL     1       8.577  -3.155  22.316  0.00  0.00    +0.000 C 
ATOM      4  C   UNL     1       7.164  -3.679  22.324  0.00  0.00    +0.000 C 
ATOM      5  N   UNL     1       6.506  -3.368  23.556  0.00  0.00    +0.000 N 
ATOM      6  C   UNL     1       6.327  -1.976  23.924  0.00  0.00    +0.000 C 
ATOM      7  C   UNL     1       6.284  -4.383  24.503  0.00  0.00    +0.000 C 
ATOM      8  C   UNL     1       5.865  -5.630  24.039  0.00  0.00    +0.000 C 
ATOM      9  C   UNL     1       5.764  -5.743  22.414  0.00  0.00    +0.000 C 
ATOM     10  C   UNL     1       7.087  -5.130  21.955  0.00  0.00    +0.000 C 
ATOM     11  C   UNL     1       4.502  -6.340  24.516  0.00  0.00    +0.000 C 
ENDROOT
BRANCH   1  17
ATOM     12  C   UNL     1       6.815   1.040  23.634  0.00  0.00    +0.000 C 
ATOM     13  C   UNL     1       6.768   2.340  22.794  0.00  0.00    +0.000 C 
ATOM     14  C   UNL     1       8.174   2.579  22.295  0.00  0.00    +0.000 C 
ATOM     15  C   UNL     1       8.859   1.549  21.633  0.00  0.00    +0.000 C 
ATOM     16  C   UNL     1       8.016   0.262  21.502  0.00  0.00    +0.000 C 
ATOM     17  C   UNL     1       7.283  -0.077  22.637  0.00  0.00    +0.000 C 
ATOM     18  O   UNL     1       7.690   0.110  20.121  0.00  0.00    +0.000 OA
ATOM     19  F   UNL     1       8.986   3.247  23.152  0.00  0.00    +0.000 F 
BRANCH  12  21
ATOM     20  N   UNL     1       8.059   0.417  25.642  0.00  0.00    +0.000 NA
ATOM     21  C   UNL     1       7.970   1.266  24.602  0.00  0.00    +0.000 C 
ATOM     22  O   UNL     1       8.371   2.423  24.755  0.00  0.00    +0.000 OA
BRANCH  20  24
ATOM     23  C   UNL     1       7.324   0.607  27.952  0.00  0.00    +0.000 C 
ATOM     24  C   UNL     1       6.925   0.250  26.525  0.00  0.00    +0.000 C 
ENDBRANCH  20  24
ENDBRANCH  12  21
ENDBRANCH   1  17
BRANCH   7  25
ATOM     25  S   UNL     1       7.748  -4.345  25.574  0.00  0.00    +0.000 S 
ATOM     26  O   UNL     1       8.030  -2.968  25.870  0.00  0.00    +0.000 OA
ATOM     27  O   UNL     1       8.796  -5.012  24.810  0.00  0.00    +0.000 OA
BRANCH  25  28
ATOM     28  C   UNL     1       7.551  -5.226  27.071  0.00  0.00    +0.000 C 
BRANCH  28  29
ATOM     29  C   UNL     1       6.101  -5.082  27.601  0.00  0.00    +0.000 C 
ATOM     30  C   UNL     1       5.502  -5.837  28.547  0.00  0.00    +0.000 C 
ATOM     31  F   UNL     1       5.931  -3.694  27.838  0.00  0.00    +0.000 F 
BRANCH  30  32
ATOM     32  C   UNL     1       4.382  -6.883  28.498  0.00  0.00    +0.000 C 
ATOM     33  N   UNL     1       3.981  -7.221  29.827  0.00  0.00    +0.000 NA
ENDBRANCH  30  32
ENDBRANCH  28  29
ENDBRANCH  25  28
ENDBRANCH   7  25
TORSDOF 7
ENDMDL
MODEL 5
REMARK VINA RESULT:      -6.8      2.087      2.609
REMARK  Name = 
REMARK  7 active torsions:
REMARK  status: ('A' for Active; 'I' for Inactive)
REMARK    1  A    between atoms: C_2  and  N_3
REMARK    2  A    between atoms: C_4  and  C_6
REMARK    3  A    between atoms: C_11  and  N_12
REMARK    4  A    between atoms: C_18  and  S_23
REMARK    5  A    between atoms: S_23  and  C_26
REMARK    6  A    between atoms: C_26  and  C_27
REMARK    7  A    between atoms: C_28  and  C_29
REMARK                            x       y       z     vdW  Elec       q    Type
REMARK                         _______ _______ _______ _____ _____    ______ ____
ROOT
ATOM      1  N   UNL     1       7.337   0.367  24.280  0.00  0.00    +0.000 N 
ATOM      2  C   UNL     1       5.936   0.095  24.512  0.00  0.00    +0.000 C 
ATOM      3  C   UNL     1       5.730  -0.813  25.703  0.00  0.00    +0.000 C 
ATOM      4  C   UNL     1       6.958  -1.633  26.003  0.00  0.00    +0.000 C 
ATOM      5  N   UNL     1       7.731  -1.855  24.818  0.00  0.00    +0.000 N 
ATOM      6  C   UNL     1       8.280  -0.712  24.115  0.00  0.00    +0.000 C 
ATOM      7  C   UNL     1       7.726  -3.123  24.212  0.00  0.00    +0.000 C 
ATOM      8  C   UNL     1       7.787  -4.244  25.040  0.00  0.00    +0.000 C 
ATOM      9  C   UNL     1       7.780  -3.903  26.635  0.00  0.00    +0.000 C 
ATOM     10  C   UNL     1       6.641  -2.891  26.754  0.00  0.00    +0.000 C 
ATOM     11  C   UNL     1       8.941  -5.361  24.935  0.00  0.00    +0.000 C 
ENDROOT
BRANCH   1  17
ATOM     12  C   UNL     1       8.557   2.294  23.518  0.00  0.00    +0.000 C 
ATOM     13  C   UNL     1       8.899   3.732  23.979  0.00  0.00    +0.000 C 
ATOM     14  C   UNL     1       7.582   4.421  24.245  0.00  0.00    +0.000 C 
ATOM     15  C   UNL     1       6.636   3.809  25.083  0.00  0.00    +0.000 C 
ATOM     16  C   UNL     1       7.123   2.455  25.642  0.00  0.00    +0.000 C 
ATOM     17  C   UNL     1       7.788   1.647  24.723  0.00  0.00    +0.000 C 
ATOM     18  O   UNL     1       7.351   2.633  27.040  0.00  0.00    +0.000 OA
ATOM     19  F   UNL     1       6.994   4.985  23.161  0.00  0.00    +0.000 F 
BRANCH  12  21
ATOM     20  N   UNL     1       7.252   1.422  21.646  0.00  0.00    +0.000 NA
ATOM     21  C   UNL     1       7.532   2.495  22.409  0.00  0.00    +0.000 C 
ATOM     22  O   UNL     1       7.455   3.614  21.895  0.00  0.00    +0.000 OA
BRANCH  20  24
ATOM     23  C   UNL     1       7.808   0.096  19.684  0.00  0.00    +0.000 C 
ATOM     24  C   UNL     1       8.328   0.728  20.970  0.00  0.00    +0.000 C 
ENDBRANCH  20  24
ENDBRANCH  12  21
ENDBRANCH   1  17
BRANCH   7  25
ATOM     25  S   UNL     1       6.373  -3.055  23.005  0.00  0.00    +0.000 S 
ATOM     26  O   UNL     1       6.516  -1.832  22.266  0.00  0.00    +0.000 OA
ATOM     27  O   UNL     1       5.152  -3.127  23.799  0.00  0.00    +0.000 OA
BRANCH  25  28
ATOM     28  C   UNL     1       6.352  -4.401  21.890  0.00  0.00    +0.000 C 
BRANCH  28  29
ATOM     29  C   UNL     1       6.238  -5.743  22.659  0.00  0.00    +0.000 C 
ATOM     30  C   UNL     1       5.112  -6.305  23.151  0.00  0.00    +0.000 C 
ATOM     31  F   UNL     1       7.011  -6.665  21.910  0.00  0.00    +0.000 F 
BRANCH  30  32
ATOM     32  C   UNL     1       4.587  -6.522  24.576  0.00  0.00    +0.000 C 
ATOM     33  N   UNL     1       3.806  -7.717  24.623  0.00  0.00    +0.000 NA
ENDBRANCH  30  32
ENDBRANCH  28  29
ENDBRANCH  25  28
ENDBRANCH   7  25
TORSDOF 7
ENDMDL
MODEL 6
REMARK VINA RESULT:      -6.6      2.655      3.614
REMARK  Name = 
REMARK  7 active torsions:
REMARK  status: ('A' for Active; 'I' for Inactive)
REMARK    1  A    between atoms: C_2  and  N_3
REMARK    2  A    between atoms: C_4  and  C_6
REMARK    3  A    between atoms: C_11  and  N_12
REMARK    4  A    between atoms: C_18  and  S_23
REMARK    5  A    between atoms: S_23  and  C_26
REMARK    6  A    between atoms: C_26  and  C_27
REMARK    7  A    between atoms: C_28  and  C_29
REMARK                            x       y       z     vdW  Elec       q    Type
REMARK                         _______ _______ _______ _____ _____    ______ ____
ROOT
ATOM      1  N   UNL     1       7.630  -1.925  24.034  0.00  0.00    +0.000 N 
ATOM      2  C   UNL     1       8.404  -2.870  24.808  0.00  0.00    +0.000 C 
ATOM      3  C   UNL     1       8.468  -4.225  24.139  0.00  0.00    +0.000 C 
ATOM      4  C   UNL     1       7.321  -4.435  23.185  0.00  0.00    +0.000 C 
ATOM      5  N   UNL     1       6.175  -3.675  23.583  0.00  0.00    +0.000 N 
ATOM      6  C   UNL     1       6.277  -2.229  23.640  0.00  0.00    +0.000 C 
ATOM      7  C   UNL     1       5.072  -4.329  24.159  0.00  0.00    +0.000 C 
ATOM      8  C   UNL     1       4.672  -5.546  23.606  0.00  0.00    +0.000 C 
ATOM      9  C   UNL     1       5.618  -6.073  22.386  0.00  0.00    +0.000 C 
ATOM     10  C   UNL     1       7.025  -5.885  22.951  0.00  0.00    +0.000 C 
ATOM     11  C   UNL     1       3.192  -5.813  23.031  0.00  0.00    +0.000 C 
ENDROOT
BRANCH   1  17
ATOM     12  C   UNL     1       7.718   0.417  23.499  0.00  0.00    +0.000 C 
ATOM     13  C   UNL     1       8.656   1.433  22.801  0.00  0.00    +0.000 C 
ATOM     14  C   UNL     1       9.990   1.338  23.505  0.00  0.00    +0.000 C 
ATOM     15  C   UNL     1      10.599   0.084  23.668  0.00  0.00    +0.000 C 
ATOM     16  C   UNL     1       9.768  -1.066  23.059  0.00  0.00    +0.000 C 
ATOM     17  C   UNL     1       8.397  -0.981  23.286  0.00  0.00    +0.000 C 
ATOM     18  O   UNL     1      10.481  -1.544  21.919  0.00  0.00    +0.000 OA
ATOM     19  F   UNL     1      10.111   2.100  24.620  0.00  0.00    +0.000 F 
BRANCH  12  21
ATOM     20  N   UNL     1       6.924   0.223  25.801  0.00  0.00    +0.000 NA
ATOM     21  C   UNL     1       7.856   0.743  24.981  0.00  0.00    +0.000 C 
ATOM     22  O   UNL     1       8.363   1.826  25.285  0.00  0.00    +0.000 OA
BRANCH  20  24
ATOM     23  C   UNL     1       4.729   0.367  26.838  0.00  0.00    +0.000 C 
ATOM     24  C   UNL     1       5.524   0.479  25.542  0.00  0.00    +0.000 C 
ENDBRANCH  20  24
ENDBRANCH  12  21
ENDBRANCH   1  17
BRANCH   7  25
ATOM     25  S   UNL     1       5.394  -4.295  25.944  0.00  0.00    +0.000 S 
ATOM     26  O   UNL     1       5.842  -2.971  26.276  0.00  0.00    +0.000 OA
ATOM     27  O   UNL     1       6.395  -5.332  26.170  0.00  0.00    +0.000 OA
BRANCH  25  28
ATOM     28  C   UNL     1       4.000  -4.692  26.922  0.00  0.00    +0.000 C 
BRANCH  28  29
ATOM     29  C   UNL     1       4.277  -5.956  27.776  0.00  0.00    +0.000 C 
ATOM     30  C   UNL     1       4.530  -6.001  29.103  0.00  0.00    +0.000 C 
ATOM     31  F   UNL     1       3.281  -6.889  27.391  0.00  0.00    +0.000 F 
BRANCH  30  32
ATOM     32  C   UNL     1       5.790  -6.318  29.918  0.00  0.00    +0.000 C 
ATOM     33  N   UNL     1       6.654  -7.164  29.157  0.00  0.00    +0.000 NA
ENDBRANCH  30  32
ENDBRANCH  28  29
ENDBRANCH  25  28
ENDBRANCH   7  25
TORSDOF 7
ENDMDL
MODEL 7
REMARK VINA RESULT:      -6.6      2.464      2.962
REMARK  Name = 
REMARK  7 active torsions:
REMARK  status: ('A' for Active; 'I' for Inactive)
REMARK    1  A    between atoms: C_2  and  N_3
REMARK    2  A    between atoms: C_4  and  C_6
REMARK    3  A    between atoms: C_11  and  N_12
REMARK    4  A    between atoms: C_18  and  S_23
REMARK    5  A    between atoms: S_23  and  C_26
REMARK    6  A    between atoms: C_26  and  C_27
REMARK    7  A    between atoms: C_28  and  C_29
REMARK                            x       y       z     vdW  Elec       q    Type
REMARK                         _______ _______ _______ _____ _____    ______ ____
ROOT
ATOM      1  N   UNL     1       7.453  -1.040  23.869  0.00  0.00    +0.000 N 
ATOM      2  C   UNL     1       7.803  -1.398  25.225  0.00  0.00    +0.000 C 
ATOM      3  C   UNL     1       7.934  -2.895  25.395  0.00  0.00    +0.000 C 
ATOM      4  C   UNL     1       7.165  -3.650  24.341  0.00  0.00    +0.000 C 
ATOM      5  N   UNL     1       6.047  -2.886  23.875  0.00  0.00    +0.000 N 
ATOM      6  C   UNL     1       6.289  -1.608  23.233  0.00  0.00    +0.000 C 
ATOM      7  C   UNL     1       4.747  -3.243  24.271  0.00  0.00    +0.000 C 
ATOM      8  C   UNL     1       4.421  -4.599  24.300  0.00  0.00    +0.000 C 
ATOM      9  C   UNL     1       5.659  -5.596  23.929  0.00  0.00    +0.000 C 
ATOM     10  C   UNL     1       6.801  -5.037  24.776  0.00  0.00    +0.000 C 
ATOM     11  C   UNL     1       3.206  -5.237  23.459  0.00  0.00    +0.000 C 
ENDROOT
BRANCH   1  17
ATOM     12  C   UNL     1       8.126   0.894  22.610  0.00  0.00    +0.000 C 
ATOM     13  C   UNL     1       9.373   1.451  21.881  0.00  0.00    +0.000 C 
ATOM     14  C   UNL     1      10.489   1.477  22.899  0.00  0.00    +0.000 C 
ATOM     15  C   UNL     1      10.782   0.318  23.635  0.00  0.00    +0.000 C 
ATOM     16  C   UNL     1       9.874  -0.872  23.259  0.00  0.00    +0.000 C 
ATOM     17  C   UNL     1       8.532  -0.549  23.074  0.00  0.00    +0.000 C 
ATOM     18  O   UNL     1      10.689  -1.827  22.581  0.00  0.00    +0.000 OA
ATOM     19  F   UNL     1      10.536   2.587  23.678  0.00  0.00    +0.000 F 
BRANCH  12  21
ATOM     20  N   UNL     1       6.863   1.679  24.547  0.00  0.00    +0.000 NA
ATOM     21  C   UNL     1       8.025   1.741  23.871  0.00  0.00    +0.000 C 
ATOM     22  O   UNL     1       8.667   2.795  23.908  0.00  0.00    +0.000 OA
BRANCH  20  24
ATOM     23  C   UNL     1       5.173   3.391  24.189  0.00  0.00    +0.000 C 
ATOM     24  C   UNL     1       5.623   1.972  23.860  0.00  0.00    +0.000 C 
ENDBRANCH  20  24
ENDBRANCH  12  21
ENDBRANCH   1  17
BRANCH   7  25
ATOM     25  S   UNL     1       4.442  -2.284  25.781  0.00  0.00    +0.000 S 
ATOM     26  O   UNL     1       3.055  -2.440  26.118  0.00  0.00    +0.000 OA
ATOM     27  O   UNL     1       4.818  -0.915  25.444  0.00  0.00    +0.000 OA
BRANCH  25  28
ATOM     28  C   UNL     1       5.423  -2.776  27.141  0.00  0.00    +0.000 C 
BRANCH  28  29
ATOM     29  C   UNL     1       4.745  -3.941  27.908  0.00  0.00    +0.000 C 
ATOM     30  C   UNL     1       5.305  -5.120  28.256  0.00  0.00    +0.000 C 
ATOM     31  F   UNL     1       4.074  -3.326  28.996  0.00  0.00    +0.000 F 
BRANCH  30  32
ATOM     32  C   UNL     1       5.098  -6.560  27.773  0.00  0.00    +0.000 C 
ATOM     33  N   UNL     1       5.791  -7.462  28.637  0.00  0.00    +0.000 NA
ENDBRANCH  30  32
ENDBRANCH  28  29
ENDBRANCH  25  28
ENDBRANCH   7  25
TORSDOF 7
ENDMDL
MODEL 8
REMARK VINA RESULT:      -6.4      2.987      7.191
REMARK  Name = 
REMARK  7 active torsions:
REMARK  status: ('A' for Active; 'I' for Inactive)
REMARK    1  A    between atoms: C_2  and  N_3
REMARK    2  A    between atoms: C_4  and  C_6
REMARK    3  A    between atoms: C_11  and  N_12
REMARK    4  A    between atoms: C_18  and  S_23
REMARK    5  A    between atoms: S_23  and  C_26
REMARK    6  A    between atoms: C_26  and  C_27
REMARK    7  A    between atoms: C_28  and  C_29
REMARK                            x       y       z     vdW  Elec       q    Type
REMARK                         _______ _______ _______ _____ _____    ______ ____
ROOT
ATOM      1  N   UNL     1       7.675  -1.145  24.419  0.00  0.00    +0.000 N 
ATOM      2  C   UNL     1       7.363  -1.209  23.009  0.00  0.00    +0.000 C 
ATOM      3  C   UNL     1       8.467  -0.617  22.161  0.00  0.00    +0.000 C 
ATOM      4  C   UNL     1       9.315   0.353  22.942  0.00  0.00    +0.000 C 
ATOM      5  N   UNL     1       8.564   0.957  24.001  0.00  0.00    +0.000 N 
ATOM      6  C   UNL     1       8.015   0.110  25.043  0.00  0.00    +0.000 C 
ATOM      7  C   UNL     1       8.148   2.294  23.884  0.00  0.00    +0.000 C 
ATOM      8  C   UNL     1       9.049   3.216  23.351  0.00  0.00    +0.000 C 
ATOM      9  C   UNL     1      10.464   2.567  22.863  0.00  0.00    +0.000 C 
ATOM     10  C   UNL     1      10.012   1.346  22.063  0.00  0.00    +0.000 C 
ATOM     11  C   UNL     1       9.531   4.538  24.133  0.00  0.00    +0.000 C 
ENDROOT
BRANCH   1  17
ATOM     12  C   UNL     1       7.138  -2.689  26.182  0.00  0.00    +0.000 C 
ATOM     13  C   UNL     1       7.553  -4.092  26.688  0.00  0.00    +0.000 C 
ATOM     14  C   UNL     1       7.363  -5.040  25.527  0.00  0.00    +0.000 C 
ATOM     15  C   UNL     1       7.939  -4.736  24.283  0.00  0.00    +0.000 C 
ATOM     16  C   UNL     1       8.730  -3.411  24.301  0.00  0.00    +0.000 C 
ATOM     17  C   UNL     1       8.118  -2.372  24.998  0.00  0.00    +0.000 C 
ATOM     18  O   UNL     1      10.113  -3.743  24.179  0.00  0.00    +0.000 OA
ATOM     19  F   UNL     1       6.110  -5.539  25.387  0.00  0.00    +0.000 F 
BRANCH  12  21
ATOM     20  N   UNL     1       5.034  -1.810  25.307  0.00  0.00    +0.000 NA
ATOM     21  C   UNL     1       5.766  -2.911  25.559  0.00  0.00    +0.000 C 
ATOM     22  O   UNL     1       5.172  -3.956  25.837  0.00  0.00    +0.000 OA
BRANCH  20  24
ATOM     23  C   UNL     1       3.442  -1.248  27.058  0.00  0.00    +0.000 C 
ATOM     24  C   UNL     1       4.756  -0.878  26.379  0.00  0.00    +0.000 C 
ENDBRANCH  20  24
ENDBRANCH  12  21
ENDBRANCH   1  17
BRANCH   7  25
ATOM     25  S   UNL     1       6.505   2.203  23.119  0.00  0.00    +0.000 S 
ATOM     26  O   UNL     1       5.687   1.367  23.954  0.00  0.00    +0.000 OA
ATOM     27  O   UNL     1       6.736   1.660  21.785  0.00  0.00    +0.000 OA
BRANCH  25  28
ATOM     28  C   UNL     1       5.728   3.757  22.924  0.00  0.00    +0.000 C 
BRANCH  28  29
ATOM     29  C   UNL     1       5.129   4.238  24.271  0.00  0.00    +0.000 C 
ATOM     30  C   UNL     1       5.810   4.628  25.370  0.00  0.00    +0.000 C 
ATOM     31  F   UNL     1       4.116   5.164  23.915  0.00  0.00    +0.000 F 
BRANCH  30  32
ATOM     32  C   UNL     1       6.007   4.002  26.757  0.00  0.00    +0.000 C 
ATOM     33  N   UNL     1       7.403   3.839  27.017  0.00  0.00    +0.000 NA
ENDBRANCH  30  32
ENDBRANCH  28  29
ENDBRANCH  25  28
ENDBRANCH   7  25
TORSDOF 7
ENDMDL
MODEL 9
REMARK VINA RESULT:      -6.4      2.594      6.987
REMARK  Name = 
REMARK  7 active torsions:
REMARK  status: ('A' for Active; 'I' for Inactive)
REMARK    1  A    between atoms: C_2  and  N_3
REMARK    2  A    between atoms: C_4  and  C_6
REMARK    3  A    between atoms: C_11  and  N_12
REMARK    4  A    between atoms: C_18  and  S_23
REMARK    5  A    between atoms: S_23  and  C_26
REMARK    6  A    between atoms: C_26  and  C_27
REMARK    7  A    between atoms: C_28  and  C_29
REMARK                            x       y       z     vdW  Elec       q    Type
REMARK                         _______ _______ _______ _____ _____    ______ ____
ROOT
ATOM      1  N   UNL     1       7.956  -1.854  24.501  0.00  0.00    +0.000 N 
ATOM      2  C   UNL     1       8.249  -1.966  23.090  0.00  0.00    +0.000 C 
ATOM      3  C   UNL     1       9.528  -1.247  22.722  0.00  0.00    +0.000 C 
ATOM      4  C   UNL     1       9.875  -0.173  23.721  0.00  0.00    +0.000 C 
ATOM      5  N   UNL     1       8.697   0.340  24.355  0.00  0.00    +0.000 N 
ATOM      6  C   UNL     1       7.872  -0.562  25.136  0.00  0.00    +0.000 C 
ATOM      7  C   UNL     1       8.217   1.614  24.005  0.00  0.00    +0.000 C 
ATOM      8  C   UNL     1       9.148   2.637  23.825  0.00  0.00    +0.000 C 
ATOM      9  C   UNL     1      10.703   2.167  23.982  0.00  0.00    +0.000 C 
ATOM     10  C   UNL     1      10.752   0.894  23.138  0.00  0.00    +0.000 C 
ATOM     11  C   UNL     1       9.123   4.014  24.659  0.00  0.00    +0.000 C 
ENDROOT
BRANCH   1  17
ATOM     12  C   UNL     1       7.120  -3.149  26.345  0.00  0.00    +0.000 C 
ATOM     13  C   UNL     1       7.399  -4.491  27.067  0.00  0.00    +0.000 C 
ATOM     14  C   UNL     1       7.320  -5.570  26.013  0.00  0.00    +0.000 C 
ATOM     15  C   UNL     1       8.068  -5.441  24.832  0.00  0.00    +0.000 C 
ATOM     16  C   UNL     1       8.911  -4.147  24.799  0.00  0.00    +0.000 C 
ATOM     17  C   UNL     1       8.261  -3.012  25.277  0.00  0.00    +0.000 C 
ATOM     18  O   UNL     1      10.281  -4.534  24.908  0.00  0.00    +0.000 OA
ATOM     19  F   UNL     1       6.075  -6.045  25.763  0.00  0.00    +0.000 F 
BRANCH  12  21
ATOM     20  N   UNL     1       5.164  -2.322  25.139  0.00  0.00    +0.000 NA
ATOM     21  C   UNL     1       5.833  -3.406  25.572  0.00  0.00    +0.000 C 
ATOM     22  O   UNL     1       5.185  -4.418  25.855  0.00  0.00    +0.000 OA
BRANCH  20  24
ATOM     23  C   UNL     1       3.485  -1.711  26.789  0.00  0.00    +0.000 C 
ATOM     24  C   UNL     1       4.774  -1.300  26.087  0.00  0.00    +0.000 C 
ENDBRANCH  20  24
ENDBRANCH  12  21
ENDBRANCH   1  17
BRANCH   7  25
ATOM     25  S   UNL     1       7.045   1.312  22.654  0.00  0.00    +0.000 S 
ATOM     26  O   UNL     1       6.308   2.527  22.444  0.00  0.00    +0.000 OA
ATOM     27  O   UNL     1       6.224   0.193  23.105  0.00  0.00    +0.000 OA
BRANCH  25  28
ATOM     28  C   UNL     1       7.803   0.833  21.153  0.00  0.00    +0.000 C 
BRANCH  28  29
ATOM     29  C   UNL     1       6.757   0.216  20.188  0.00  0.00    +0.000 C 
ATOM     30  C   UNL     1       6.553   0.544  18.894  0.00  0.00    +0.000 C 
ATOM     31  F   UNL     1       6.865  -1.186  20.373  0.00  0.00    +0.000 F 
BRANCH  30  32
ATOM     32  C   UNL     1       5.414   1.268  18.165  0.00  0.00    +0.000 C 
ATOM     33  N   UNL     1       4.434   1.698  19.111  0.00  0.00    +0.000 NA
ENDBRANCH  30  32
ENDBRANCH  28  29
ENDBRANCH  25  28
ENDBRANCH   7  25
TORSDOF 7
ENDMDL
