MODEL 1
REMARK VINA RESULT:      -7.1      0.000      0.000
REMARK  Name = 
REMARK  8 active torsions:
REMARK  status: ('A' for Active; 'I' for Inactive)
REMARK    1  A    between atoms: C_2  and  C_3
REMARK    2  A    between atoms: C_7  and  S_18
REMARK    3  A    between atoms: C_9  and  C_10
REMARK    4  A    between atoms: C_15  and  C_16
REMARK    5  A    between atoms: S_18  and  C_19
REMARK    6  A    between atoms: C_19  and  C_20
REMARK    7  A    between atoms: N_22  and  C_23
REMARK    8  A    between atoms: C_27  and  C_28
REMARK                            x       y       z     vdW  Elec       q    Type
REMARK                         _______ _______ _______ _____ _____    ______ ____
ROOT
ATOM      1  C   UNL     1       7.797  -4.305  26.108  0.00  0.00    +0.000 C 
ATOM      2  C   UNL     1       8.133  -5.237  24.928  0.00  0.00    +0.000 C 
ATOM      3  O   UNL     1       9.459  -4.944  24.555  0.00  0.00    +0.000 OA
ATOM      4  N   UNL     1       7.261  -5.017  23.833  0.00  0.00    +0.000 NA
ATOM      5  C   UNL     1       6.029  -4.984  24.150  0.00  0.00    +0.000 C 
ATOM      6  N   UNL     1       5.795  -4.044  24.971  0.00  0.00    +0.000 NA
ATOM      7  C   UNL     1       6.615  -3.485  25.713  0.00  0.00    +0.000 C 
ENDROOT
BRANCH   7   8
ATOM      8  C   UNL     1       6.790  -2.008  25.555  0.00  0.00    +0.000 C 
ATOM      9  C   UNL     1       8.002  -1.559  25.081  0.00  0.00    +0.000 C 
ATOM     10  C   UNL     1       9.181  -0.703  25.852  0.00  0.00    +0.000 C 
ATOM     11  C   UNL     1       8.368  -0.605  27.249  0.00  0.00    +0.000 C 
ATOM     12  C   UNL     1       6.884  -0.381  27.211  0.00  0.00    +0.000 C 
ATOM     13  C   UNL     1       5.919  -1.405  26.672  0.00  0.00    +0.000 C 
BRANCH  13  14
ATOM     14  C   UNL     1       4.989  -0.749  26.041  0.00  0.00    +0.000 C 
ATOM     15  N   UNL     1       3.943  -1.081  26.449  0.00  0.00    +0.000 NA
ENDBRANCH  13  14
ENDBRANCH   7   8
BRANCH   1  17
ATOM     16  N   UNL     1       7.125  -5.843  28.153  0.00  0.00    +0.000 NA
ATOM     17  C   UNL     1       7.424  -5.159  27.256  0.00  0.00    +0.000 C 
ENDBRANCH   1  17
BRANCH   5  18
ATOM     18  S   UNL     1       5.136  -4.585  22.642  0.00  0.00    +0.000 S 
BRANCH  18  19
ATOM     19  C   UNL     1       6.651  -4.136  21.737  0.00  0.00    +0.000 C 
BRANCH  19  20
ATOM     20  C   UNL     1       6.374  -2.764  21.106  0.00  0.00    +0.000 C 
ATOM     21  O   UNL     1       5.445  -2.659  20.316  0.00  0.00    +0.000 OA
ATOM     22  N   UNL     1       6.666  -1.728  21.930  0.00  0.00    +0.000 NA
BRANCH  22  23
ATOM     23  C   UNL     1       7.576  -0.919  21.354  0.00  0.00    +0.000 C 
ATOM     24  C   UNL     1       9.005  -1.039  21.682  0.00  0.00    +0.000 C 
ATOM     25  C   UNL     1       9.627   0.328  21.553  0.00  0.00    +0.000 C 
ATOM     26  C   UNL     1       8.520   1.292  21.400  0.00  0.00    +0.000 C 
ATOM     27  C   UNL     1       7.163   0.561  21.177  0.00  0.00    +0.000 C 
BRANCH  27  28
ATOM     28  C   UNL     1       6.847   0.743  19.687  0.00  0.00    +0.000 C 
ATOM     29  F   UNL     1       5.541   0.343  19.462  0.00  0.00    +0.000 F 
ATOM     30  F   UNL     1       7.689  -0.079  18.956  0.00  0.00    +0.000 F 
ENDBRANCH  27  28
ENDBRANCH  22  23
ENDBRANCH  19  20
ENDBRANCH  18  19
ENDBRANCH   5  18
TORSDOF 8
ENDMDL
MODEL 2
REMARK VINA RESULT:      -7.0      2.299      4.229
REMARK  Name = 
REMARK  8 active torsions:
REMARK  status: ('A' for Active; 'I' for Inactive)
REMARK    1  A    between atoms: C_2  and  C_3
REMARK    2  A    between atoms: C_7  and  S_18
REMARK    3  A    between atoms: C_9  and  C_10
REMARK    4  A    between atoms: C_15  and  C_16
REMARK    5  A    between atoms: S_18  and  C_19
REMARK    6  A    between atoms: C_19  and  C_20
REMARK    7  A    between atoms: N_22  and  C_23
REMARK    8  A    between atoms: C_27  and  C_28
REMARK                            x       y       z     vdW  Elec       q    Type
REMARK                         _______ _______ _______ _____ _____    ______ ____
ROOT
ATOM      1  C   UNL     1       5.990  -4.233  26.463  0.00  0.00    +0.000 C 
ATOM      2  C   UNL     1       6.131  -2.857  27.145  0.00  0.00    +0.000 C 
ATOM      3  O   UNL     1       4.824  -2.363  27.316  0.00  0.00    +0.000 OA
ATOM      4  N   UNL     1       6.889  -1.963  26.350  0.00  0.00    +0.000 NA
ATOM      5  C   UNL     1       7.979  -2.453  25.914  0.00  0.00    +0.000 C 
ATOM      6  N   UNL     1       7.760  -3.467  25.179  0.00  0.00    +0.000 NA
ATOM      7  C   UNL     1       6.745  -4.177  25.178  0.00  0.00    +0.000 C 
ENDROOT
BRANCH   7   8
ATOM      8  C   UNL     1       5.983  -4.286  23.896  0.00  0.00    +0.000 C 
ATOM      9  C   UNL     1       4.675  -3.857  23.895  0.00  0.00    +0.000 C 
ATOM     10  C   UNL     1       3.284  -4.728  23.744  0.00  0.00    +0.000 C 
ATOM     11  C   UNL     1       4.044  -6.149  23.582  0.00  0.00    +0.000 C 
ATOM     12  C   UNL     1       5.309  -6.207  22.775  0.00  0.00    +0.000 C 
ATOM     13  C   UNL     1       6.582  -5.525  23.206  0.00  0.00    +0.000 C 
BRANCH  13  14
ATOM     14  C   UNL     1       7.142  -5.060  22.128  0.00  0.00    +0.000 C 
ATOM     15  N   UNL     1       6.663  -5.580  21.195  0.00  0.00    +0.000 NA
ENDBRANCH  13  14
ENDBRANCH   7   8
BRANCH   1  17
ATOM     16  N   UNL     1       7.109  -6.029  28.049  0.00  0.00    +0.000 NA
ATOM     17  C   UNL     1       6.623  -5.234  27.348  0.00  0.00    +0.000 C 
ENDBRANCH   1  17
BRANCH   5  18
ATOM     18  S   UNL     1       8.703  -1.196  24.853  0.00  0.00    +0.000 S 
BRANCH  18  19
ATOM     19  C   UNL     1       9.413  -2.419  23.707  0.00  0.00    +0.000 C 
BRANCH  19  20
ATOM     20  C   UNL     1       9.905  -1.621  22.491  0.00  0.00    +0.000 C 
ATOM     21  O   UNL     1      11.100  -1.626  22.231  0.00  0.00    +0.000 OA
ATOM     22  N   UNL     1       9.005  -1.581  21.478  0.00  0.00    +0.000 NA
BRANCH  22  23
ATOM     23  C   UNL     1       8.691  -0.304  21.185  0.00  0.00    +0.000 C 
ATOM     24  C   UNL     1       9.499   0.809  21.708  0.00  0.00    +0.000 C 
ATOM     25  C   UNL     1       8.588   1.995  21.895  0.00  0.00    +0.000 C 
ATOM     26  C   UNL     1       7.205   1.507  21.725  0.00  0.00    +0.000 C 
ATOM     27  C   UNL     1       7.186   0.048  21.181  0.00  0.00    +0.000 C 
BRANCH  27  28
ATOM     28  C   UNL     1       6.778   0.173  19.708  0.00  0.00    +0.000 C 
ATOM     29  F   UNL     1       7.913   0.050  18.925  0.00  0.00    +0.000 F 
ATOM     30  F   UNL     1       6.241   1.433  19.506  0.00  0.00    +0.000 F 
ENDBRANCH  27  28
ENDBRANCH  22  23
ENDBRANCH  19  20
ENDBRANCH  18  19
ENDBRANCH   5  18
TORSDOF 8
ENDMDL
MODEL 3
REMARK VINA RESULT:      -6.8      2.558      4.457
REMARK  Name = 
REMARK  8 active torsions:
REMARK  status: ('A' for Active; 'I' for Inactive)
REMARK    1  A    between atoms: C_2  and  C_3
REMARK    2  A    between atoms: C_7  and  S_18
REMARK    3  A    between atoms: C_9  and  C_10
REMARK    4  A    between atoms: C_15  and  C_16
REMARK    5  A    between atoms: S_18  and  C_19
REMARK    6  A    between atoms: C_19  and  C_20
REMARK    7  A    between atoms: N_22  and  C_23
REMARK    8  A    between atoms: C_27  and  C_28
REMARK                            x       y       z     vdW  Elec       q    Type
REMARK                         _______ _______ _______ _____ _____    ______ ____
ROOT
ATOM      1  C   UNL     1       7.809  -5.071  25.366  0.00  0.00    +0.000 C 
ATOM      2  C   UNL     1       7.462  -4.890  26.857  0.00  0.00    +0.000 C 
ATOM      3  O   UNL     1       6.628  -5.970  27.205  0.00  0.00    +0.000 OA
ATOM      4  N   UNL     1       6.789  -3.664  27.084  0.00  0.00    +0.000 NA
ATOM      5  C   UNL     1       7.348  -2.658  26.542  0.00  0.00    +0.000 C 
ATOM      6  N   UNL     1       7.404  -2.792  25.280  0.00  0.00    +0.000 NA
ATOM      7  C   UNL     1       7.343  -3.852  24.644  0.00  0.00    +0.000 C 
ENDROOT
BRANCH   7   8
ATOM      8  C   UNL     1       6.239  -3.992  23.644  0.00  0.00    +0.000 C 
ATOM      9  C   UNL     1       5.242  -4.900  23.922  0.00  0.00    +0.000 C 
ATOM     10  C   UNL     1       4.877  -6.322  23.173  0.00  0.00    +0.000 C 
ATOM     11  C   UNL     1       6.055  -6.187  22.070  0.00  0.00    +0.000 C 
ATOM     12  C   UNL     1       6.347  -4.836  21.482  0.00  0.00    +0.000 C 
ATOM     13  C   UNL     1       6.916  -3.701  22.293  0.00  0.00    +0.000 C 
BRANCH  13  14
ATOM     14  C   UNL     1       6.342  -2.613  21.868  0.00  0.00    +0.000 C 
ATOM     15  N   UNL     1       5.684  -2.868  20.934  0.00  0.00    +0.000 NA
ENDBRANCH  13  14
ENDBRANCH   7   8
BRANCH   1  17
ATOM     16  N   UNL     1      10.444  -5.228  25.190  0.00  0.00    +0.000 NA
ATOM     17  C   UNL     1       9.282  -5.157  25.260  0.00  0.00    +0.000 C 
ENDBRANCH   1  17
BRANCH   5  18
ATOM     18  S   UNL     1       6.272  -1.255  26.864  0.00  0.00    +0.000 S 
BRANCH  18  19
ATOM     19  C   UNL     1       7.659  -0.085  27.003  0.00  0.00    +0.000 C 
BRANCH  19  20
ATOM     20  C   UNL     1       7.628   0.760  25.722  0.00  0.00    +0.000 C 
ATOM     21  O   UNL     1       6.843   1.697  25.657  0.00  0.00    +0.000 OA
ATOM     22  N   UNL     1       8.838   0.865  25.120  0.00  0.00    +0.000 NA
BRANCH  22  23
ATOM     23  C   UNL     1       8.772   0.395  23.860  0.00  0.00    +0.000 C 
ATOM     24  C   UNL     1       9.430  -0.868  23.490  0.00  0.00    +0.000 C 
ATOM     25  C   UNL     1       9.849  -0.767  22.046  0.00  0.00    +0.000 C 
ATOM     26  C   UNL     1       9.668   0.641  21.642  0.00  0.00    +0.000 C 
ATOM     27  C   UNL     1       8.896   1.444  22.730  0.00  0.00    +0.000 C 
BRANCH  27  28
ATOM     28  C   UNL     1       7.483   1.635  22.164  0.00  0.00    +0.000 C 
ATOM     29  F   UNL     1       6.674   0.621  22.649  0.00  0.00    +0.000 F 
ATOM     30  F   UNL     1       7.544   1.525  20.785  0.00  0.00    +0.000 F 
ENDBRANCH  27  28
ENDBRANCH  22  23
ENDBRANCH  19  20
ENDBRANCH  18  19
ENDBRANCH   5  18
TORSDOF 8
ENDMDL
MODEL 4
REMARK VINA RESULT:      -6.8      2.701      4.597
REMARK  Name = 
REMARK  8 active torsions:
REMARK  status: ('A' for Active; 'I' for Inactive)
REMARK    1  A    between atoms: C_2  and  C_3
REMARK    2  A    between atoms: C_7  and  S_18
REMARK    3  A    between atoms: C_9  and  C_10
REMARK    4  A    between atoms: C_15  and  C_16
REMARK    5  A    between atoms: S_18  and  C_19
REMARK    6  A    between atoms: C_19  and  C_20
REMARK    7  A    between atoms: N_22  and  C_23
REMARK    8  A    between atoms: C_27  and  C_28
REMARK                            x       y       z     vdW  Elec       q    Type
REMARK                         _______ _______ _______ _____ _____    ______ ____
ROOT
ATOM      1  C   UNL     1       6.314  -5.335  23.013  0.00  0.00    +0.000 C 
ATOM      2  C   UNL     1       7.610  -4.521  23.194  0.00  0.00    +0.000 C 
ATOM      3  O   UNL     1       8.455  -5.297  24.010  0.00  0.00    +0.000 OA
ATOM      4  N   UNL     1       7.351  -3.272  23.812  0.00  0.00    +0.000 NA
ATOM      5  C   UNL     1       6.387  -2.626  23.291  0.00  0.00    +0.000 C 
ATOM      6  N   UNL     1       5.302  -3.282  23.374  0.00  0.00    +0.000 NA
ATOM      7  C   UNL     1       5.185  -4.506  23.526  0.00  0.00    +0.000 C 
ENDROOT
BRANCH   7   8
ATOM      8  C   UNL     1       4.441  -4.981  24.734  0.00  0.00    +0.000 C 
ATOM      9  C   UNL     1       4.436  -4.161  25.840  0.00  0.00    +0.000 C 
ATOM     10  C   UNL     1       5.148  -4.377  27.311  0.00  0.00    +0.000 C 
ATOM     11  C   UNL     1       5.763  -5.828  26.939  0.00  0.00    +0.000 C 
ATOM     12  C   UNL     1       4.937  -6.778  26.120  0.00  0.00    +0.000 C 
ATOM     13  C   UNL     1       4.578  -6.513  24.681  0.00  0.00    +0.000 C 
BRANCH  13  14
ATOM     14  C   UNL     1       3.362  -6.944  24.513  0.00  0.00    +0.000 C 
ATOM     15  N   UNL     1       3.345  -8.105  24.662  0.00  0.00    +0.000 NA
ENDBRANCH  13  14
ENDBRANCH   7   8
BRANCH   1  17
ATOM     16  N   UNL     1       5.968  -5.734  20.421  0.00  0.00    +0.000 NA
ATOM     17  C   UNL     1       6.126  -5.554  21.562  0.00  0.00    +0.000 C 
ENDBRANCH   1  17
BRANCH   5  18
ATOM     18  S   UNL     1       6.174  -1.151  24.296  0.00  0.00    +0.000 S 
BRANCH  18  19
ATOM     19  C   UNL     1       7.701  -1.445  25.242  0.00  0.00    +0.000 C 
BRANCH  19  20
ATOM     20  C   UNL     1       8.473  -0.118  25.218  0.00  0.00    +0.000 C 
ATOM     21  O   UNL     1       8.108   0.786  25.957  0.00  0.00    +0.000 OA
ATOM     22  N   UNL     1       9.795  -0.273  24.960  0.00  0.00    +0.000 NA
BRANCH  22  23
ATOM     23  C   UNL     1      10.140   0.426  23.862  0.00  0.00    +0.000 C 
ATOM     24  C   UNL     1      10.813   1.730  23.979  0.00  0.00    +0.000 C 
ATOM     25  C   UNL     1      10.404   2.571  22.797  0.00  0.00    +0.000 C 
ATOM     26  C   UNL     1       9.298   1.861  22.125  0.00  0.00    +0.000 C 
ATOM     27  C   UNL     1       9.119   0.424  22.700  0.00  0.00    +0.000 C 
BRANCH  27  28
ATOM     28  C   UNL     1       9.691  -0.513  21.629  0.00  0.00    +0.000 C 
ATOM     29  F   UNL     1       8.969  -0.336  20.460  0.00  0.00    +0.000 F 
ATOM     30  F   UNL     1       9.523  -1.820  22.054  0.00  0.00    +0.000 F 
ENDBRANCH  27  28
ENDBRANCH  22  23
ENDBRANCH  19  20
ENDBRANCH  18  19
ENDBRANCH   5  18
TORSDOF 8
ENDMDL
MODEL 5
REMARK VINA RESULT:      -6.8      3.620      6.429
REMARK  Name = 
REMARK  8 active torsions:
REMARK  status: ('A' for Active; 'I' for Inactive)
REMARK    1  A    between atoms: C_2  and  C_3
REMARK    2  A    between atoms: C_7  and  S_18
REMARK    3  A    between atoms: C_9  and  C_10
REMARK    4  A    between atoms: C_15  and  C_16
REMARK    5  A    between atoms: S_18  and  C_19
REMARK    6  A    between atoms: C_19  and  C_20
REMARK    7  A    between atoms: N_22  and  C_23
REMARK    8  A    between atoms: C_27  and  C_28
REMARK                            x       y       z     vdW  Elec       q    Type
REMARK                         _______ _______ _______ _____ _____    ______ ____
ROOT
ATOM      1  C   UNL     1       9.608   0.875  23.044  0.00  0.00    +0.000 C 
ATOM      2  C   UNL     1      10.367  -0.279  23.729  0.00  0.00    +0.000 C 
ATOM      3  O   UNL     1      10.676  -1.207  22.716  0.00  0.00    +0.000 OA
ATOM      4  N   UNL     1       9.574  -0.897  24.727  0.00  0.00    +0.000 NA
ATOM      5  C   UNL     1       9.018  -0.079  25.528  0.00  0.00    +0.000 C 
ATOM      6  N   UNL     1       8.238   0.708  24.906  0.00  0.00    +0.000 NA
ATOM      7  C   UNL     1       8.272   0.986  23.699  0.00  0.00    +0.000 C 
ENDROOT
BRANCH   7   8
ATOM      8  C   UNL     1       7.052   0.683  22.889  0.00  0.00    +0.000 C 
ATOM      9  C   UNL     1       6.621  -0.624  22.852  0.00  0.00    +0.000 C 
ATOM     10  C   UNL     1       6.614  -1.694  21.598  0.00  0.00    +0.000 C 
ATOM     11  C   UNL     1       7.237  -0.642  20.535  0.00  0.00    +0.000 C 
ATOM     12  C   UNL     1       6.788   0.789  20.583  0.00  0.00    +0.000 C 
ATOM     13  C   UNL     1       7.102   1.704  21.738  0.00  0.00    +0.000 C 
BRANCH  13  14
ATOM     14  C   UNL     1       6.053   2.452  21.920  0.00  0.00    +0.000 C 
ATOM     15  N   UNL     1       6.400   3.542  22.173  0.00  0.00    +0.000 NA
ENDBRANCH  13  14
ENDBRANCH   7   8
BRANCH   1  17
ATOM     16  N   UNL     1      10.976   3.096  23.482  0.00  0.00    +0.000 NA
ATOM     17  C   UNL     1      10.369   2.117  23.296  0.00  0.00    +0.000 C 
ENDBRANCH   1  17
BRANCH   5  18
ATOM     18  S   UNL     1       7.989  -1.069  26.619  0.00  0.00    +0.000 S 
BRANCH  18  19
ATOM     19  C   UNL     1       8.765  -2.634  26.106  0.00  0.00    +0.000 C 
BRANCH  19  20
ATOM     20  C   UNL     1       7.653  -3.691  26.157  0.00  0.00    +0.000 C 
ATOM     21  O   UNL     1       7.325  -4.146  27.245  0.00  0.00    +0.000 OA
ATOM     22  N   UNL     1       6.711  -3.524  25.196  0.00  0.00    +0.000 NA
BRANCH  22  23
ATOM     23  C   UNL     1       6.629  -4.628  24.429  0.00  0.00    +0.000 C 
ATOM     24  C   UNL     1       7.662  -4.927  23.425  0.00  0.00    +0.000 C 
ATOM     25  C   UNL     1       7.004  -5.671  22.291  0.00  0.00    +0.000 C 
ATOM     26  C   UNL     1       5.546  -5.586  22.508  0.00  0.00    +0.000 C 
ATOM     27  C   UNL     1       5.219  -5.000  23.913  0.00  0.00    +0.000 C 
BRANCH  27  28
ATOM     28  C   UNL     1       4.757  -6.199  24.752  0.00  0.00    +0.000 C 
ATOM     29  F   UNL     1       5.709  -6.446  25.727  0.00  0.00    +0.000 F 
ATOM     30  F   UNL     1       4.677  -7.307  23.927  0.00  0.00    +0.000 F 
ENDBRANCH  27  28
ENDBRANCH  22  23
ENDBRANCH  19  20
ENDBRANCH  18  19
ENDBRANCH   5  18
TORSDOF 8
ENDMDL
MODEL 6
REMARK VINA RESULT:      -6.7      2.737      4.043
REMARK  Name = 
REMARK  8 active torsions:
REMARK  status: ('A' for Active; 'I' for Inactive)
REMARK    1  A    between atoms: C_2  and  C_3
REMARK    2  A    between atoms: C_7  and  S_18
REMARK    3  A    between atoms: C_9  and  C_10
REMARK    4  A    between atoms: C_15  and  C_16
REMARK    5  A    between atoms: S_18  and  C_19
REMARK    6  A    between atoms: C_19  and  C_20
REMARK    7  A    between atoms: N_22  and  C_23
REMARK    8  A    between atoms: C_27  and  C_28
REMARK                            x       y       z     vdW  Elec       q    Type
REMARK                         _______ _______ _______ _____ _____    ______ ____
ROOT
ATOM      1  C   UNL     1       5.345  -5.526  23.413  0.00  0.00    +0.000 C 
ATOM      2  C   UNL     1       6.148  -5.418  22.101  0.00  0.00    +0.000 C 
ATOM      3  O   UNL     1       7.185  -6.366  22.192  0.00  0.00    +0.000 OA
ATOM      4  N   UNL     1       6.689  -4.120  21.934  0.00  0.00    +0.000 NA
ATOM      5  C   UNL     1       5.852  -3.181  22.123  0.00  0.00    +0.000 C 
ATOM      6  N   UNL     1       5.392  -3.212  23.306  0.00  0.00    +0.000 NA
ATOM      7  C   UNL     1       5.374  -4.187  24.070  0.00  0.00    +0.000 C 
ENDROOT
BRANCH   7   8
ATOM      8  C   UNL     1       6.084  -4.049  25.379  0.00  0.00    +0.000 C 
ATOM      9  C   UNL     1       6.822  -2.904  25.584  0.00  0.00    +0.000 C 
ATOM     10  C   UNL     1       8.454  -2.714  25.708  0.00  0.00    +0.000 C 
ATOM     11  C   UNL     1       8.776  -4.291  25.534  0.00  0.00    +0.000 C 
ATOM     12  C   UNL     1       7.871  -5.293  26.190  0.00  0.00    +0.000 C 
ATOM     13  C   UNL     1       6.438  -5.496  25.769  0.00  0.00    +0.000 C 
BRANCH  13  14
ATOM     14  C   UNL     1       5.756  -5.717  26.855  0.00  0.00    +0.000 C 
ATOM     15  N   UNL     1       5.349  -6.814  26.833  0.00  0.00    +0.000 NA
ENDBRANCH  13  14
ENDBRANCH   7   8
BRANCH   1  17
ATOM     16  N   UNL     1       2.848  -6.122  22.776  0.00  0.00    +0.000 NA
ATOM     17  C   UNL     1       3.948  -5.853  23.053  0.00  0.00    +0.000 C 
ENDBRANCH   1  17
BRANCH   5  18
ATOM     18  S   UNL     1       6.778  -1.648  21.971  0.00  0.00    +0.000 S 
BRANCH  18  19
ATOM     19  C   UNL     1       8.374  -2.453  22.315  0.00  0.00    +0.000 C 
BRANCH  19  20
ATOM     20  C   UNL     1       9.437  -1.353  22.188  0.00  0.00    +0.000 C 
ATOM     21  O   UNL     1      10.606  -1.681  22.041  0.00  0.00    +0.000 OA
ATOM     22  N   UNL     1       8.978  -0.234  21.574  0.00  0.00    +0.000 NA
BRANCH  22  23
ATOM     23  C   UNL     1       9.119   0.832  22.385  0.00  0.00    +0.000 C 
ATOM     24  C   UNL     1      10.119   1.872  22.095  0.00  0.00    +0.000 C 
ATOM     25  C   UNL     1      10.581   2.450  23.408  0.00  0.00    +0.000 C 
ATOM     26  C   UNL     1      10.048   1.578  24.474  0.00  0.00    +0.000 C 
ATOM     27  C   UNL     1       9.021   0.555  23.904  0.00  0.00    +0.000 C 
BRANCH  27  28
ATOM     28  C   UNL     1       7.647   1.074  24.346  0.00  0.00    +0.000 C 
ATOM     29  F   UNL     1       7.755   2.427  24.619  0.00  0.00    +0.000 F 
ATOM     30  F   UNL     1       7.285   0.419  25.512  0.00  0.00    +0.000 F 
ENDBRANCH  27  28
ENDBRANCH  22  23
ENDBRANCH  19  20
ENDBRANCH  18  19
ENDBRANCH   5  18
TORSDOF 8
ENDMDL
MODEL 7
REMARK VINA RESULT:      -6.7      2.479      4.071
REMARK  Name = 
REMARK  8 active torsions:
REMARK  status: ('A' for Active; 'I' for Inactive)
REMARK    1  A    between atoms: C_2  and  C_3
REMARK    2  A    between atoms: C_7  and  S_18
REMARK    3  A    between atoms: C_9  and  C_10
REMARK    4  A    between atoms: C_15  and  C_16
REMARK    5  A    between atoms: S_18  and  C_19
REMARK    6  A    between atoms: C_19  and  C_20
REMARK    7  A    between atoms: N_22  and  C_23
REMARK    8  A    between atoms: C_27  and  C_28
REMARK                            x       y       z     vdW  Elec       q    Type
REMARK                         _______ _______ _______ _____ _____    ______ ____
ROOT
ATOM      1  C   UNL     1       4.776  -6.045  23.582  0.00  0.00    +0.000 C 
ATOM      2  C   UNL     1       5.676  -5.437  22.488  0.00  0.00    +0.000 C 
ATOM      3  O   UNL     1       6.544  -6.464  22.072  0.00  0.00    +0.000 OA
ATOM      4  N   UNL     1       6.423  -4.341  22.986  0.00  0.00    +0.000 NA
ATOM      5  C   UNL     1       5.731  -3.494  23.636  0.00  0.00    +0.000 C 
ATOM      6  N   UNL     1       5.190  -4.032  24.652  0.00  0.00    +0.000 NA
ATOM      7  C   UNL     1       4.966  -5.238  24.822  0.00  0.00    +0.000 C 
ENDROOT
BRANCH   7   8
ATOM      8  C   UNL     1       5.596  -5.893  26.011  0.00  0.00    +0.000 C 
ATOM      9  C   UNL     1       4.842  -6.814  26.703  0.00  0.00    +0.000 C 
ATOM     10  C   UNL     1       4.209  -6.725  28.222  0.00  0.00    +0.000 C 
ATOM     11  C   UNL     1       4.819  -5.256  28.525  0.00  0.00    +0.000 C 
ATOM     12  C   UNL     1       6.201  -4.930  28.037  0.00  0.00    +0.000 C 
ATOM     13  C   UNL     1       6.543  -4.818  26.574  0.00  0.00    +0.000 C 
BRANCH  13  14
ATOM     14  C   UNL     1       7.734  -5.323  26.427  0.00  0.00    +0.000 C 
ATOM     15  N   UNL     1       8.524  -4.562  26.836  0.00  0.00    +0.000 NA
ENDBRANCH  13  14
ENDBRANCH   7   8
BRANCH   1  17
ATOM     16  N   UNL     1       2.271  -5.806  22.767  0.00  0.00    +0.000 NA
ATOM     17  C   UNL     1       3.374  -5.906  23.131  0.00  0.00    +0.000 C 
ENDBRANCH   1  17
BRANCH   5  18
ATOM     18  S   UNL     1       6.893  -2.272  24.259  0.00  0.00    +0.000 S 
BRANCH  18  19
ATOM     19  C   UNL     1       8.274  -2.921  23.265  0.00  0.00    +0.000 C 
BRANCH  19  20
ATOM     20  C   UNL     1       9.180  -1.719  22.968  0.00  0.00    +0.000 C 
ATOM     21  O   UNL     1      10.060  -1.436  23.769  0.00  0.00    +0.000 OA
ATOM     22  N   UNL     1       9.402  -1.531  21.643  0.00  0.00    +0.000 NA
BRANCH  22  23
ATOM     23  C   UNL     1       8.996  -0.301  21.275  0.00  0.00    +0.000 C 
ATOM     24  C   UNL     1       9.705   0.900  21.745  0.00  0.00    +0.000 C 
ATOM     25  C   UNL     1       8.702   2.019  21.851  0.00  0.00    +0.000 C 
ATOM     26  C   UNL     1       7.365   1.416  21.691  0.00  0.00    +0.000 C 
ATOM     27  C   UNL     1       7.468  -0.068  21.231  0.00  0.00    +0.000 C 
BRANCH  27  28
ATOM     28  C   UNL     1       7.077  -0.058  19.747  0.00  0.00    +0.000 C 
ATOM     29  F   UNL     1       8.234  -0.119  18.988  0.00  0.00    +0.000 F 
ATOM     30  F   UNL     1       6.434   1.136  19.471  0.00  0.00    +0.000 F 
ENDBRANCH  27  28
ENDBRANCH  22  23
ENDBRANCH  19  20
ENDBRANCH  18  19
ENDBRANCH   5  18
TORSDOF 8
ENDMDL
MODEL 8
REMARK VINA RESULT:      -6.7      2.808      4.663
REMARK  Name = 
REMARK  8 active torsions:
REMARK  status: ('A' for Active; 'I' for Inactive)
REMARK    1  A    between atoms: C_2  and  C_3
REMARK    2  A    between atoms: C_7  and  S_18
REMARK    3  A    between atoms: C_9  and  C_10
REMARK    4  A    between atoms: C_15  and  C_16
REMARK    5  A    between atoms: S_18  and  C_19
REMARK    6  A    between atoms: C_19  and  C_20
REMARK    7  A    between atoms: N_22  and  C_23
REMARK    8  A    between atoms: C_27  and  C_28
REMARK                            x       y       z     vdW  Elec       q    Type
REMARK                         _______ _______ _______ _____ _____    ______ ____
ROOT
ATOM      1  C   UNL     1       7.822  -5.122  25.328  0.00  0.00    +0.000 C 
ATOM      2  C   UNL     1       7.408  -4.803  26.778  0.00  0.00    +0.000 C 
ATOM      3  O   UNL     1       6.524  -5.826  27.172  0.00  0.00    +0.000 OA
ATOM      4  N   UNL     1       6.763  -3.544  26.865  0.00  0.00    +0.000 NA
ATOM      5  C   UNL     1       7.380  -2.604  26.270  0.00  0.00    +0.000 C 
ATOM      6  N   UNL     1       7.494  -2.847  25.029  0.00  0.00    +0.000 NA
ATOM      7  C   UNL     1       7.431  -3.957  24.482  0.00  0.00    +0.000 C 
ENDROOT
BRANCH   7   8
ATOM      8  C   UNL     1       6.374  -4.152  23.442  0.00  0.00    +0.000 C 
ATOM      9  C   UNL     1       5.146  -3.571  23.666  0.00  0.00    +0.000 C 
ATOM     10  C   UNL     1       3.691  -4.277  23.982  0.00  0.00    +0.000 C 
ATOM     11  C   UNL     1       4.264  -5.788  23.892  0.00  0.00    +0.000 C 
ATOM     12  C   UNL     1       5.286  -6.116  22.841  0.00  0.00    +0.000 C 
ATOM     13  C   UNL     1       6.679  -5.542  22.852  0.00  0.00    +0.000 C 
BRANCH  13  14
ATOM     14  C   UNL     1       6.997  -5.307  21.613  0.00  0.00    +0.000 C 
ATOM     15  N   UNL     1       6.127  -5.673  20.920  0.00  0.00    +0.000 NA
ENDBRANCH  13  14
ENDBRANCH   7   8
BRANCH   1  17
ATOM     16  N   UNL     1      10.455  -5.374  25.296  0.00  0.00    +0.000 NA
ATOM     17  C   UNL     1       9.295  -5.256  25.307  0.00  0.00    +0.000 C 
ENDBRANCH   1  17
BRANCH   5  18
ATOM     18  S   UNL     1       6.333  -1.150  26.415  0.00  0.00    +0.000 S 
BRANCH  18  19
ATOM     19  C   UNL     1       7.675  -0.006  25.961  0.00  0.00    +0.000 C 
BRANCH  19  20
ATOM     20  C   UNL     1       7.309   0.543  24.576  0.00  0.00    +0.000 C 
ATOM     21  O   UNL     1       6.137   0.804  24.339  0.00  0.00    +0.000 OA
ATOM     22  N   UNL     1       8.283   1.313  24.030  0.00  0.00    +0.000 NA
BRANCH  22  23
ATOM     23  C   UNL     1       8.669   0.803  22.845  0.00  0.00    +0.000 C 
ATOM     24  C   UNL     1       8.226   1.414  21.582  0.00  0.00    +0.000 C 
ATOM     25  C   UNL     1       8.129   0.323  20.547  0.00  0.00    +0.000 C 
ATOM     26  C   UNL     1       8.266  -0.962  21.262  0.00  0.00    +0.000 C 
ATOM     27  C   UNL     1       8.702  -0.740  22.741  0.00  0.00    +0.000 C 
BRANCH  27  28
ATOM     28  C   UNL     1      10.181  -1.142  22.789  0.00  0.00    +0.000 C 
ATOM     29  F   UNL     1      10.278  -2.391  23.378  0.00  0.00    +0.000 F 
ATOM     30  F   UNL     1      10.858  -0.230  23.582  0.00  0.00    +0.000 F 
ENDBRANCH  27  28
ENDBRANCH  22  23
ENDBRANCH  19  20
ENDBRANCH  18  19
ENDBRANCH   5  18
TORSDOF 8
ENDMDL
MODEL 9
REMARK VINA RESULT:      -6.7      2.675      4.358
REMARK  Name = 
REMARK  8 active torsions:
REMARK  status: ('A' for Active; 'I' for Inactive)
REMARK    1  A    between atoms: C_2  and  C_3
REMARK    2  A    between atoms: C_7  and  S_18
REMARK    3  A    between atoms: C_9  and  C_10
REMARK    4  A    between atoms: C_15  and  C_16
REMARK    5  A    between atoms: S_18  and  C_19
REMARK    6  A    between atoms: C_19  and  C_20
REMARK    7  A    between atoms: N_22  and  C_23
REMARK    8  A    between atoms: C_27  and  C_28
REMARK                            x       y       z     vdW  Elec       q    Type
REMARK                         _______ _______ _______ _____ _____    ______ ____
ROOT
ATOM      1  C   UNL     1       5.308  -5.467  26.681  0.00  0.00    +0.000 C 
ATOM      2  C   UNL     1       5.737  -4.081  27.202  0.00  0.00    +0.000 C 
ATOM      3  O   UNL     1       4.598  -3.257  27.125  0.00  0.00    +0.000 OA
ATOM      4  N   UNL     1       6.784  -3.537  26.418  0.00  0.00    +0.000 NA
ATOM      5  C   UNL     1       7.744  -4.345  26.202  0.00  0.00    +0.000 C 
ATOM      6  N   UNL     1       7.342  -5.374  25.575  0.00  0.00    +0.000 NA
ATOM      7  C   UNL     1       6.180  -5.801  25.519  0.00  0.00    +0.000 C 
ENDROOT
BRANCH   7   8
ATOM      8  C   UNL     1       5.554  -5.915  24.165  0.00  0.00    +0.000 C 
ATOM      9  C   UNL     1       6.348  -5.646  23.073  0.00  0.00    +0.000 C 
ATOM     10  C   UNL     1       6.277  -4.393  22.004  0.00  0.00    +0.000 C 
ATOM     11  C   UNL     1       4.987  -3.708  22.704  0.00  0.00    +0.000 C 
ATOM     12  C   UNL     1       3.891  -4.590  23.228  0.00  0.00    +0.000 C 
ATOM     13  C   UNL     1       4.084  -5.522  24.397  0.00  0.00    +0.000 C 
BRANCH  13  14
ATOM     14  C   UNL     1       3.411  -6.603  24.129  0.00  0.00    +0.000 C 
ATOM     15  N   UNL     1       2.626  -6.366  23.294  0.00  0.00    +0.000 NA
ENDBRANCH  13  14
ENDBRANCH   7   8
BRANCH   1  17
ATOM     16  N   UNL     1       5.746  -7.225  28.609  0.00  0.00    +0.000 NA
ATOM     17  C   UNL     1       5.556  -6.444  27.763  0.00  0.00    +0.000 C 
ENDBRANCH   1  17
BRANCH   5  18
ATOM     18  S   UNL     1       8.882  -3.487  25.108  0.00  0.00    +0.000 S 
BRANCH  18  19
ATOM     19  C   UNL     1       8.611  -1.876  25.913  0.00  0.00    +0.000 C 
BRANCH  19  20
ATOM     20  C   UNL     1       9.174  -0.823  24.948  0.00  0.00    +0.000 C 
ATOM     21  O   UNL     1       9.987  -0.014  25.373  0.00  0.00    +0.000 OA
ATOM     22  N   UNL     1       9.287  -1.272  23.673  0.00  0.00    +0.000 NA
BRANCH  22  23
ATOM     23  C   UNL     1       8.570  -0.492  22.841  0.00  0.00    +0.000 C 
ATOM     24  C   UNL     1       7.231  -0.903  22.391  0.00  0.00    +0.000 C 
ATOM     25  C   UNL     1       7.012  -0.338  21.011  0.00  0.00    +0.000 C 
ATOM     26  C   UNL     1       8.313   0.186  20.549  0.00  0.00    +0.000 C 
ATOM     27  C   UNL     1       9.357   0.202  21.705  0.00  0.00    +0.000 C 
BRANCH  27  28
ATOM     28  C   UNL     1       9.486   1.675  22.111  0.00  0.00    +0.000 C 
ATOM     29  F   UNL     1       8.494   2.397  21.469  0.00  0.00    +0.000 F 
ATOM     30  F   UNL     1      10.716   2.143  21.680  0.00  0.00    +0.000 F 
ENDBRANCH  27  28
ENDBRANCH  22  23
ENDBRANCH  19  20
ENDBRANCH  18  19
ENDBRANCH   5  18
TORSDOF 8
ENDMDL
