MODEL 1
REMARK VINA RESULT:      -7.1      0.000      0.000
REMARK  Name = 
REMARK  9 active torsions:
REMARK  status: ('A' for Active; 'I' for Inactive)
REMARK    1  A    between atoms: C_2  and  C_3
REMARK    2  A    between atoms: C_3  and  C_4
REMARK    3  A    between atoms: C_9  and  C_10
REMARK    4  A    between atoms: C_10  and  O_11
REMARK    5  A    between atoms: O_11  and  C_12
REMARK    6  A    between atoms: C_12  and  N_13
REMARK    7  A    between atoms: C_19  and  N_20
REMARK    8  A    between atoms: N_20  and  C_21
REMARK    9  A    between atoms: C_21  and  S_22
REMARK                            x       y       z     vdW  Elec       q    Type
REMARK                         _______ _______ _______ _____ _____    ______ ____
ROOT
ATOM      1  N   UNL     1       7.941  -0.235  22.663  0.00  0.00    +0.000 N 
ATOM      2  C   UNL     1       9.371  -0.453  22.528  0.00  0.00    +0.000 C 
ATOM      3  C   UNL     1       9.939  -0.942  23.859  0.00  0.00    +0.000 C 
ATOM      4  C   UNL     1      10.056   0.828  22.155  0.00  0.00    +0.000 C 
ATOM      5  C   UNL     1       9.383   2.078  22.355  0.00  0.00    +0.000 C 
ATOM      6  C   UNL     1       7.977   1.996  21.764  0.00  0.00    +0.000 C 
ATOM      7  C   UNL     1       7.385   0.756  21.766  0.00  0.00    +0.000 C 
ATOM      8  C   UNL     1       7.284   3.370  22.031  0.00  0.00    +0.000 C 
ENDROOT
BRANCH   1   9
ATOM      9  C   UNL     1       7.369  -0.190  24.011  0.00  0.00    +0.000 C 
BRANCH   9  10
ATOM     10  O   UNL     1       6.253  -1.034  24.080  0.00  0.00    +0.000 OA
BRANCH  10  11
ATOM     11  C   UNL     1       6.590  -2.223  24.650  0.00  0.00    +0.000 C 
BRANCH  11  17
ATOM     12  C   UNL     1       6.610  -4.715  24.692  0.00  0.00    +0.000 C 
ATOM     13  F   UNL     1       6.078  -5.828  24.076  0.00  0.00    +0.000 F 
ATOM     14  C   UNL     1       8.068  -4.553  24.250  0.00  0.00    +0.000 C 
ATOM     15  O   UNL     1       8.037  -3.897  23.006  0.00  0.00    +0.000 OA
ATOM     16  C   UNL     1       6.726  -3.567  22.618  0.00  0.00    +0.000 C 
ATOM     17  C   UNL     1       5.946  -3.437  24.016  0.00  0.00    +0.000 C 
BRANCH  12  18
ATOM     18  C   UNL     1       6.363  -4.701  26.131  0.00  0.00    +0.000 C 
BRANCH  18  20
ATOM     19  O   UNL     1       7.355  -5.936  27.902  0.00  0.00    +0.000 OA
ATOM     20  C   UNL     1       7.677  -5.106  26.824  0.00  0.00    +0.000 C 
ENDBRANCH  18  20
ENDBRANCH  12  18
ENDBRANCH  11  17
ENDBRANCH  10  11
ENDBRANCH   9  10
ENDBRANCH   1   9
BRANCH   7  21
ATOM     21  N   UNL     1       7.030  -0.063  20.667  0.00  0.00    +0.000 NA
BRANCH  21  22
ATOM     22  C   UNL     1       7.544   0.248  19.357  0.00  0.00    +0.000 C 
BRANCH  22  23
ATOM     23  S   UNL     1       6.176   0.430  18.225  0.00  0.00    +0.000 S 
ATOM     24  O   UNL     1       6.568   1.403  17.238  0.00  0.00    +0.000 OA
ATOM     25  O   UNL     1       5.867  -0.880  17.725  0.00  0.00    +0.000 OA
ATOM     26  N   UNL     1       4.864   1.018  19.025  0.00  0.00    +0.000 NA
ENDBRANCH  22  23
ENDBRANCH  21  22
ENDBRANCH   7  21
TORSDOF 9
ENDMDL
MODEL 2
REMARK VINA RESULT:      -7.1      1.379      2.363
REMARK  Name = 
REMARK  9 active torsions:
REMARK  status: ('A' for Active; 'I' for Inactive)
REMARK    1  A    between atoms: C_2  and  C_3
REMARK    2  A    between atoms: C_3  and  C_4
REMARK    3  A    between atoms: C_9  and  C_10
REMARK    4  A    between atoms: C_10  and  O_11
REMARK    5  A    between atoms: O_11  and  C_12
REMARK    6  A    between atoms: C_12  and  N_13
REMARK    7  A    between atoms: C_19  and  N_20
REMARK    8  A    between atoms: N_20  and  C_21
REMARK    9  A    between atoms: C_21  and  S_22
REMARK                            x       y       z     vdW  Elec       q    Type
REMARK                         _______ _______ _______ _____ _____    ______ ____
ROOT
ATOM      1  N   UNL     1       8.284  -0.212  22.527  0.00  0.00    +0.000 N 
ATOM      2  C   UNL     1       9.688   0.073  22.282  0.00  0.00    +0.000 C 
ATOM      3  C   UNL     1      10.496  -0.232  23.542  0.00  0.00    +0.000 C 
ATOM      4  C   UNL     1       9.868   1.520  21.934  0.00  0.00    +0.000 C 
ATOM      5  C   UNL     1       8.833   2.461  22.248  0.00  0.00    +0.000 C 
ATOM      6  C   UNL     1       7.492   1.923  21.752  0.00  0.00    +0.000 C 
ATOM      7  C   UNL     1       7.354   0.556  21.725  0.00  0.00    +0.000 C 
ATOM      8  C   UNL     1       6.403   2.973  22.140  0.00  0.00    +0.000 C 
ENDROOT
BRANCH   1   9
ATOM      9  C   UNL     1       7.844  -0.402  23.911  0.00  0.00    +0.000 C 
BRANCH   9  10
ATOM     10  O   UNL     1       6.891  -1.427  23.968  0.00  0.00    +0.000 OA
BRANCH  10  11
ATOM     11  C   UNL     1       7.384  -2.499  24.646  0.00  0.00    +0.000 C 
BRANCH  11  17
ATOM     12  C   UNL     1       7.407  -4.858  23.844  0.00  0.00    +0.000 C 
ATOM     13  F   UNL     1       8.159  -5.770  23.134  0.00  0.00    +0.000 F 
ATOM     14  C   UNL     1       7.493  -5.199  25.335  0.00  0.00    +0.000 C 
ATOM     15  O   UNL     1       8.692  -4.632  25.805  0.00  0.00    +0.000 OA
ATOM     16  C   UNL     1       9.364  -3.916  24.798  0.00  0.00    +0.000 C 
ATOM     17  C   UNL     1       8.183  -3.471  23.806  0.00  0.00    +0.000 C 
BRANCH  12  18
ATOM     18  C   UNL     1       6.064  -4.693  23.293  0.00  0.00    +0.000 C 
BRANCH  18  20
ATOM     19  O   UNL     1       5.498  -3.411  21.373  0.00  0.00    +0.000 OA
ATOM     20  C   UNL     1       6.213  -4.547  21.766  0.00  0.00    +0.000 C 
ENDBRANCH  18  20
ENDBRANCH  12  18
ENDBRANCH  11  17
ENDBRANCH  10  11
ENDBRANCH   9  10
ENDBRANCH   1   9
BRANCH   7  21
ATOM     21  N   UNL     1       7.206  -0.303  20.611  0.00  0.00    +0.000 NA
BRANCH  21  22
ATOM     22  C   UNL     1       7.579   0.166  19.300  0.00  0.00    +0.000 C 
BRANCH  22  23
ATOM     23  S   UNL     1       6.117   0.258  18.278  0.00  0.00    +0.000 S 
ATOM     24  O   UNL     1       6.004  -1.002  17.588  0.00  0.00    +0.000 OA
ATOM     25  O   UNL     1       5.022   0.601  19.142  0.00  0.00    +0.000 OA
ATOM     26  N   UNL     1       6.298   1.441  17.150  0.00  0.00    +0.000 NA
ENDBRANCH  22  23
ENDBRANCH  21  22
ENDBRANCH   7  21
TORSDOF 9
ENDMDL
MODEL 3
REMARK VINA RESULT:      -7.1      1.263      1.558
REMARK  Name = 
REMARK  9 active torsions:
REMARK  status: ('A' for Active; 'I' for Inactive)
REMARK    1  A    between atoms: C_2  and  C_3
REMARK    2  A    between atoms: C_3  and  C_4
REMARK    3  A    between atoms: C_9  and  C_10
REMARK    4  A    between atoms: C_10  and  O_11
REMARK    5  A    between atoms: O_11  and  C_12
REMARK    6  A    between atoms: C_12  and  N_13
REMARK    7  A    between atoms: C_19  and  N_20
REMARK    8  A    between atoms: N_20  and  C_21
REMARK    9  A    between atoms: C_21  and  S_22
REMARK                            x       y       z     vdW  Elec       q    Type
REMARK                         _______ _______ _______ _____ _____    ______ ____
ROOT
ATOM      1  N   UNL     1       8.059  -0.262  22.457  0.00  0.00    +0.000 N 
ATOM      2  C   UNL     1       9.500  -0.174  22.290  0.00  0.00    +0.000 C 
ATOM      3  C   UNL     1      10.189  -0.593  23.587  0.00  0.00    +0.000 C 
ATOM      4  C   UNL     1       9.898   1.236  21.968  0.00  0.00    +0.000 C 
ATOM      5  C   UNL     1       8.988   2.310  22.238  0.00  0.00    +0.000 C 
ATOM      6  C   UNL     1       7.614   1.966  21.666  0.00  0.00    +0.000 C 
ATOM      7  C   UNL     1       7.289   0.632  21.616  0.00  0.00    +0.000 C 
ATOM      8  C   UNL     1       6.661   3.155  22.008  0.00  0.00    +0.000 C 
ENDROOT
BRANCH   1   9
ATOM      9  C   UNL     1       7.524  -0.394  23.814  0.00  0.00    +0.000 C 
BRANCH   9  10
ATOM     10  O   UNL     1       6.407  -1.240  23.801  0.00  0.00    +0.000 OA
BRANCH  10  11
ATOM     11  C   UNL     1       6.774  -2.508  23.468  0.00  0.00    +0.000 C 
BRANCH  11  17
ATOM     12  C   UNL     1       6.517  -4.980  23.653  0.00  0.00    +0.000 C 
ATOM     13  F   UNL     1       5.941  -5.971  24.420  0.00  0.00    +0.000 F 
ATOM     14  C   UNL     1       5.722  -4.837  22.351  0.00  0.00    +0.000 C 
ATOM     15  O   UNL     1       4.617  -4.017  22.647  0.00  0.00    +0.000 OA
ATOM     16  C   UNL     1       4.637  -3.569  23.980  0.00  0.00    +0.000 C 
ATOM     17  C   UNL     1       6.199  -3.590  24.356  0.00  0.00    +0.000 C 
BRANCH  12  18
ATOM     18  C   UNL     1       7.962  -5.149  23.516  0.00  0.00    +0.000 C 
BRANCH  18  20
ATOM     19  O   UNL     1       9.926  -4.961  24.840  0.00  0.00    +0.000 OA
ATOM     20  C   UNL     1       8.552  -5.203  24.938  0.00  0.00    +0.000 C 
ENDBRANCH  18  20
ENDBRANCH  12  18
ENDBRANCH  11  17
ENDBRANCH  10  11
ENDBRANCH   9  10
ENDBRANCH   1   9
BRANCH   7  21
ATOM     21  N   UNL     1       7.083  -0.194  20.486  0.00  0.00    +0.000 NA
BRANCH  21  22
ATOM     22  C   UNL     1       7.557   0.241  19.195  0.00  0.00    +0.000 C 
BRANCH  22  23
ATOM     23  S   UNL     1       6.155   0.488  18.116  0.00  0.00    +0.000 S 
ATOM     24  O   UNL     1       6.531   1.496  17.158  0.00  0.00    +0.000 OA
ATOM     25  O   UNL     1       5.812  -0.797  17.574  0.00  0.00    +0.000 OA
ATOM     26  N   UNL     1       4.878   1.059  18.982  0.00  0.00    +0.000 NA
ENDBRANCH  22  23
ENDBRANCH  21  22
ENDBRANCH   7  21
TORSDOF 9
ENDMDL
MODEL 4
REMARK VINA RESULT:      -6.4      3.975      7.675
REMARK  Name = 
REMARK  9 active torsions:
REMARK  status: ('A' for Active; 'I' for Inactive)
REMARK    1  A    between atoms: C_2  and  C_3
REMARK    2  A    between atoms: C_3  and  C_4
REMARK    3  A    between atoms: C_9  and  C_10
REMARK    4  A    between atoms: C_10  and  O_11
REMARK    5  A    between atoms: O_11  and  C_12
REMARK    6  A    between atoms: C_12  and  N_13
REMARK    7  A    between atoms: C_19  and  N_20
REMARK    8  A    between atoms: N_20  and  C_21
REMARK    9  A    between atoms: C_21  and  S_22
REMARK                            x       y       z     vdW  Elec       q    Type
REMARK                         _______ _______ _______ _____ _____    ______ ____
ROOT
ATOM      1  N   UNL     1       7.186  -4.930  23.772  0.00  0.00    +0.000 N 
ATOM      2  C   UNL     1       6.424  -5.776  22.870  0.00  0.00    +0.000 C 
ATOM      3  C   UNL     1       6.972  -5.631  21.452  0.00  0.00    +0.000 C 
ATOM      4  C   UNL     1       4.981  -5.366  22.872  0.00  0.00    +0.000 C 
ATOM      5  C   UNL     1       4.610  -4.076  23.374  0.00  0.00    +0.000 C 
ATOM      6  C   UNL     1       5.262  -3.856  24.738  0.00  0.00    +0.000 C 
ATOM      7  C   UNL     1       6.467  -4.483  24.947  0.00  0.00    +0.000 C 
ATOM      8  C   UNL     1       4.845  -2.431  25.223  0.00  0.00    +0.000 C 
ENDROOT
BRANCH   1   9
ATOM      9  C   UNL     1       8.057  -3.904  23.194  0.00  0.00    +0.000 C 
BRANCH   9  10
ATOM     10  O   UNL     1       9.205  -3.758  23.983  0.00  0.00    +0.000 OA
BRANCH  10  11
ATOM     11  C   UNL     1       9.712  -2.501  23.860  0.00  0.00    +0.000 C 
BRANCH  11  17
ATOM     12  C   UNL     1       9.230  -0.198  23.040  0.00  0.00    +0.000 C 
ATOM     13  F   UNL     1       8.335   0.844  23.154  0.00  0.00    +0.000 F 
ATOM     14  C   UNL     1      10.515   0.168  23.789  0.00  0.00    +0.000 C 
ATOM     15  O   UNL     1      10.284  -0.129  25.145  0.00  0.00    +0.000 OA
ATOM     16  C   UNL     1       9.014  -0.698  25.349  0.00  0.00    +0.000 C 
ATOM     17  C   UNL     1       8.686  -1.392  23.938  0.00  0.00    +0.000 C 
BRANCH  12  18
ATOM     18  C   UNL     1       9.390  -0.647  21.659  0.00  0.00    +0.000 C 
BRANCH  18  20
ATOM     19  O   UNL     1       8.045   0.166  19.878  0.00  0.00    +0.000 OA
ATOM     20  C   UNL     1       7.991  -0.646  21.014  0.00  0.00    +0.000 C 
ENDBRANCH  18  20
ENDBRANCH  12  18
ENDBRANCH  11  17
ENDBRANCH  10  11
ENDBRANCH   9  10
ENDBRANCH   1   9
BRANCH   7  21
ATOM     21  N   UNL     1       6.784  -5.522  25.853  0.00  0.00    +0.000 NA
BRANCH  21  22
ATOM     22  C   UNL     1       7.137  -5.194  27.212  0.00  0.00    +0.000 C 
BRANCH  22  23
ATOM     23  S   UNL     1       5.873  -5.820  28.307  0.00  0.00    +0.000 S 
ATOM     24  O   UNL     1       5.528  -7.140  27.845  0.00  0.00    +0.000 OA
ATOM     25  O   UNL     1       6.396  -5.740  29.642  0.00  0.00    +0.000 OA
ATOM     26  N   UNL     1       4.529  -4.877  28.204  0.00  0.00    +0.000 NA
ENDBRANCH  22  23
ENDBRANCH  21  22
ENDBRANCH   7  21
TORSDOF 9
ENDMDL
MODEL 5
REMARK VINA RESULT:      -6.2      3.484      7.403
REMARK  Name = 
REMARK  9 active torsions:
REMARK  status: ('A' for Active; 'I' for Inactive)
REMARK    1  A    between atoms: C_2  and  C_3
REMARK    2  A    between atoms: C_3  and  C_4
REMARK    3  A    between atoms: C_9  and  C_10
REMARK    4  A    between atoms: C_10  and  O_11
REMARK    5  A    between atoms: O_11  and  C_12
REMARK    6  A    between atoms: C_12  and  N_13
REMARK    7  A    between atoms: C_19  and  N_20
REMARK    8  A    between atoms: N_20  and  C_21
REMARK    9  A    between atoms: C_21  and  S_22
REMARK                            x       y       z     vdW  Elec       q    Type
REMARK                         _______ _______ _______ _____ _____    ______ ____
ROOT
ATOM      1  N   UNL     1       6.190  -4.560  23.060  0.00  0.00    +0.000 N 
ATOM      2  C   UNL     1       5.920  -5.866  22.483  0.00  0.00    +0.000 C 
ATOM      3  C   UNL     1       5.962  -5.767  20.959  0.00  0.00    +0.000 C 
ATOM      4  C   UNL     1       4.559  -6.343  22.897  0.00  0.00    +0.000 C 
ATOM      5  C   UNL     1       3.603  -5.405  23.409  0.00  0.00    +0.000 C 
ATOM      6  C   UNL     1       4.259  -4.556  24.496  0.00  0.00    +0.000 C 
ATOM      7  C   UNL     1       5.610  -4.337  24.369  0.00  0.00    +0.000 C 
ATOM      8  C   UNL     1       3.184  -3.540  24.998  0.00  0.00    +0.000 C 
ENDROOT
BRANCH   1   9
ATOM      9  C   UNL     1       6.128  -3.387  22.186  0.00  0.00    +0.000 C 
BRANCH   9  10
ATOM     10  O   UNL     1       6.492  -2.241  22.904  0.00  0.00    +0.000 OA
BRANCH  10  11
ATOM     11  C   UNL     1       7.503  -1.583  22.272  0.00  0.00    +0.000 C 
BRANCH  11  17
ATOM     12  C   UNL     1       8.358   0.453  21.118  0.00  0.00    +0.000 C 
ATOM     13  F   UNL     1       8.278   1.829  21.115  0.00  0.00    +0.000 F 
ATOM     14  C   UNL     1       9.704   0.036  21.719  0.00  0.00    +0.000 C 
ATOM     15  O   UNL     1       9.543   0.067  23.117  0.00  0.00    +0.000 OA
ATOM     16  C   UNL     1       8.229   0.404  23.487  0.00  0.00    +0.000 C 
ATOM     17  C   UNL     1       7.353  -0.078  22.230  0.00  0.00    +0.000 C 
BRANCH  12  18
ATOM     18  C   UNL     1       8.018  -0.129  19.822  0.00  0.00    +0.000 C 
BRANCH  18  20
ATOM     19  O   UNL     1       6.511   0.191  18.013  0.00  0.00    +0.000 OA
ATOM     20  C   UNL     1       6.708   0.534  19.354  0.00  0.00    +0.000 C 
ENDBRANCH  18  20
ENDBRANCH  12  18
ENDBRANCH  11  17
ENDBRANCH  10  11
ENDBRANCH   9  10
ENDBRANCH   1   9
BRANCH   7  21
ATOM     21  N   UNL     1       6.666  -4.783  25.197  0.00  0.00    +0.000 NA
BRANCH  21  22
ATOM     22  C   UNL     1       7.689  -3.853  25.605  0.00  0.00    +0.000 C 
BRANCH  22  23
ATOM     23  S   UNL     1       9.278  -4.466  25.069  0.00  0.00    +0.000 S 
ATOM     24  O   UNL     1      10.049  -4.739  26.255  0.00  0.00    +0.000 OA
ATOM     25  O   UNL     1       9.027  -5.591  24.212  0.00  0.00    +0.000 OA
ATOM     26  N   UNL     1      10.063  -3.305  24.208  0.00  0.00    +0.000 NA
ENDBRANCH  22  23
ENDBRANCH  21  22
ENDBRANCH   7  21
TORSDOF 9
ENDMDL
MODEL 6
REMARK VINA RESULT:      -6.2      3.303      6.707
REMARK  Name = 
REMARK  9 active torsions:
REMARK  status: ('A' for Active; 'I' for Inactive)
REMARK    1  A    between atoms: C_2  and  C_3
REMARK    2  A    between atoms: C_3  and  C_4
REMARK    3  A    between atoms: C_9  and  C_10
REMARK    4  A    between atoms: C_10  and  O_11
REMARK    5  A    between atoms: O_11  and  C_12
REMARK    6  A    between atoms: C_12  and  N_13
REMARK    7  A    between atoms: C_19  and  N_20
REMARK    8  A    between atoms: N_20  and  C_21
REMARK    9  A    between atoms: C_21  and  S_22
REMARK                            x       y       z     vdW  Elec       q    Type
REMARK                         _______ _______ _______ _____ _____    ______ ____
ROOT
ATOM      1  N   UNL     1       6.958  -2.222  25.037  0.00  0.00    +0.000 N 
ATOM      2  C   UNL     1       6.080  -2.259  26.194  0.00  0.00    +0.000 C 
ATOM      3  C   UNL     1       6.395  -1.078  27.109  0.00  0.00    +0.000 C 
ATOM      4  C   UNL     1       6.289  -3.531  26.961  0.00  0.00    +0.000 C 
ATOM      5  C   UNL     1       7.480  -4.300  26.749  0.00  0.00    +0.000 C 
ATOM      6  C   UNL     1       7.693  -4.503  25.250  0.00  0.00    +0.000 C 
ATOM      7  C   UNL     1       7.222  -3.509  24.426  0.00  0.00    +0.000 C 
ATOM      8  C   UNL     1       9.011  -5.323  25.078  0.00  0.00    +0.000 C 
ENDROOT
BRANCH   1   9
ATOM      9  C   UNL     1       8.130  -1.344  25.081  0.00  0.00    +0.000 C 
BRANCH   9  10
ATOM     10  O   UNL     1       8.948  -1.592  23.972  0.00  0.00    +0.000 OA
BRANCH  10  11
ATOM     11  C   UNL     1       9.443  -0.426  23.474  0.00  0.00    +0.000 C 
BRANCH  11  17
ATOM     12  C   UNL     1       8.693   1.169  21.713  0.00  0.00    +0.000 C 
ATOM     13  F   UNL     1       7.791   2.180  21.459  0.00  0.00    +0.000 F 
ATOM     14  C   UNL     1      10.085   1.781  21.895  0.00  0.00    +0.000 C 
ATOM     15  O   UNL     1      10.153   2.227  23.228  0.00  0.00    +0.000 OA
ATOM     16  C   UNL     1       8.981   1.923  23.944  0.00  0.00    +0.000 C 
ATOM     17  C   UNL     1       8.403   0.633  23.182  0.00  0.00    +0.000 C 
BRANCH  12  18
ATOM     18  C   UNL     1       8.587   0.072  20.754  0.00  0.00    +0.000 C 
BRANCH  18  20
ATOM     19  O   UNL     1       7.761   0.016  18.526  0.00  0.00    +0.000 OA
ATOM     20  C   UNL     1       7.401   0.393  19.824  0.00  0.00    +0.000 C 
ENDBRANCH  18  20
ENDBRANCH  12  18
ENDBRANCH  11  17
ENDBRANCH  10  11
ENDBRANCH   9  10
ENDBRANCH   1   9
BRANCH   7  21
ATOM     21  N   UNL     1       6.176  -3.561  23.475  0.00  0.00    +0.000 NA
BRANCH  21  22
ATOM     22  C   UNL     1       6.495  -3.722  22.079  0.00  0.00    +0.000 C 
BRANCH  22  23
ATOM     23  S   UNL     1       6.023  -5.364  21.561  0.00  0.00    +0.000 S 
ATOM     24  O   UNL     1       4.776  -5.672  22.213  0.00  0.00    +0.000 OA
ATOM     25  O   UNL     1       5.995  -5.360  20.125  0.00  0.00    +0.000 OA
ATOM     26  N   UNL     1       7.145  -6.454  22.069  0.00  0.00    +0.000 NA
ENDBRANCH  22  23
ENDBRANCH  21  22
ENDBRANCH   7  21
TORSDOF 9
ENDMDL
MODEL 7
REMARK VINA RESULT:      -6.1      1.737      2.388
REMARK  Name = 
REMARK  9 active torsions:
REMARK  status: ('A' for Active; 'I' for Inactive)
REMARK    1  A    between atoms: C_2  and  C_3
REMARK    2  A    between atoms: C_3  and  C_4
REMARK    3  A    between atoms: C_9  and  C_10
REMARK    4  A    between atoms: C_10  and  O_11
REMARK    5  A    between atoms: O_11  and  C_12
REMARK    6  A    between atoms: C_12  and  N_13
REMARK    7  A    between atoms: C_19  and  N_20
REMARK    8  A    between atoms: N_20  and  C_21
REMARK    9  A    between atoms: C_21  and  S_22
REMARK                            x       y       z     vdW  Elec       q    Type
REMARK                         _______ _______ _______ _____ _____    ______ ____
ROOT
ATOM      1  N   UNL     1       7.924  -1.069  22.604  0.00  0.00    +0.000 N 
ATOM      2  C   UNL     1       9.206  -1.717  22.387  0.00  0.00    +0.000 C 
ATOM      3  C   UNL     1       9.587  -2.519  23.630  0.00  0.00    +0.000 C 
ATOM      4  C   UNL     1      10.269  -0.689  22.134  0.00  0.00    +0.000 C 
ATOM      5  C   UNL     1      10.038   0.677  22.500  0.00  0.00    +0.000 C 
ATOM      6  C   UNL     1       8.680   1.123  21.962  0.00  0.00    +0.000 C 
ATOM      7  C   UNL     1       7.718   0.149  21.846  0.00  0.00    +0.000 C 
ATOM      8  C   UNL     1       8.471   2.605  22.410  0.00  0.00    +0.000 C 
ENDROOT
BRANCH   1   9
ATOM      9  C   UNL     1       7.399  -1.004  23.969  0.00  0.00    +0.000 C 
BRANCH   9  10
ATOM     10  O   UNL     1       6.006  -1.143  23.948  0.00  0.00    +0.000 OA
BRANCH  10  11
ATOM     11  C   UNL     1       5.649  -2.413  24.285  0.00  0.00    +0.000 C 
BRANCH  11  17
ATOM     12  C   UNL     1       4.685  -3.954  25.989  0.00  0.00    +0.000 C 
ATOM     13  F   UNL     1       4.610  -4.182  27.347  0.00  0.00    +0.000 F 
ATOM     14  C   UNL     1       3.343  -3.396  25.506  0.00  0.00    +0.000 C 
ATOM     15  O   UNL     1       3.364  -2.015  25.777  0.00  0.00    +0.000 OA
ATOM     16  C   UNL     1       4.591  -1.608  26.331  0.00  0.00    +0.000 C 
ATOM     17  C   UNL     1       5.632  -2.696  25.771  0.00  0.00    +0.000 C 
BRANCH  12  18
ATOM     18  C   UNL     1       5.211  -5.105  25.258  0.00  0.00    +0.000 C 
BRANCH  18  20
ATOM     19  O   UNL     1       7.060  -5.907  26.517  0.00  0.00    +0.000 OA
ATOM     20  C   UNL     1       5.695  -6.127  26.304  0.00  0.00    +0.000 C 
ENDBRANCH  18  20
ENDBRANCH  12  18
ENDBRANCH  11  17
ENDBRANCH  10  11
ENDBRANCH   9  10
ENDBRANCH   1   9
BRANCH   7  21
ATOM     21  N   UNL     1       7.116  -0.374  20.678  0.00  0.00    +0.000 NA
BRANCH  21  22
ATOM     22  C   UNL     1       7.538   0.107  19.387  0.00  0.00    +0.000 C 
BRANCH  22  23
ATOM     23  S   UNL     1       6.110   0.245  18.323  0.00  0.00    +0.000 S 
ATOM     24  O   UNL     1       5.961  -1.019  17.648  0.00  0.00    +0.000 OA
ATOM     25  O   UNL     1       5.008   0.647  19.151  0.00  0.00    +0.000 OA
ATOM     26  N   UNL     1       6.372   1.403  17.184  0.00  0.00    +0.000 NA
ENDBRANCH  22  23
ENDBRANCH  21  22
ENDBRANCH   7  21
TORSDOF 9
ENDMDL
MODEL 8
REMARK VINA RESULT:      -6.1      4.126      7.642
REMARK  Name = 
REMARK  9 active torsions:
REMARK  status: ('A' for Active; 'I' for Inactive)
REMARK    1  A    between atoms: C_2  and  C_3
REMARK    2  A    between atoms: C_3  and  C_4
REMARK    3  A    between atoms: C_9  and  C_10
REMARK    4  A    between atoms: C_10  and  O_11
REMARK    5  A    between atoms: O_11  and  C_12
REMARK    6  A    between atoms: C_12  and  N_13
REMARK    7  A    between atoms: C_19  and  N_20
REMARK    8  A    between atoms: N_20  and  C_21
REMARK    9  A    between atoms: C_21  and  S_22
REMARK                            x       y       z     vdW  Elec       q    Type
REMARK                         _______ _______ _______ _____ _____    ______ ____
ROOT
ATOM      1  N   UNL     1       6.914  -5.278  23.826  0.00  0.00    +0.000 N 
ATOM      2  C   UNL     1       6.193  -5.999  22.790  0.00  0.00    +0.000 C 
ATOM      3  C   UNL     1       6.888  -5.785  21.446  0.00  0.00    +0.000 C 
ATOM      4  C   UNL     1       4.786  -5.491  22.690  0.00  0.00    +0.000 C 
ATOM      5  C   UNL     1       4.448  -4.219  23.259  0.00  0.00    +0.000 C 
ATOM      6  C   UNL     1       4.974  -4.149  24.691  0.00  0.00    +0.000 C 
ATOM      7  C   UNL     1       6.110  -4.872  24.961  0.00  0.00    +0.000 C 
ATOM      8  C   UNL     1       4.599  -2.739  25.250  0.00  0.00    +0.000 C 
ENDROOT
BRANCH   1   9
ATOM      9  C   UNL     1       7.899  -4.275  23.419  0.00  0.00    +0.000 C 
BRANCH   9  10
ATOM     10  O   UNL     1       8.056  -3.325  24.436  0.00  0.00    +0.000 OA
BRANCH  10  11
ATOM     11  C   UNL     1       8.012  -2.065  23.922  0.00  0.00    +0.000 C 
BRANCH  11  17
ATOM     12  C   UNL     1       9.097  -0.662  22.172  0.00  0.00    +0.000 C 
ATOM     13  F   UNL     1       9.259  -0.537  20.808  0.00  0.00    +0.000 F 
ATOM     14  C   UNL     1       8.124   0.417  22.657  0.00  0.00    +0.000 C 
ATOM     15  O   UNL     1       6.828  -0.079  22.420  0.00  0.00    +0.000 OA
ATOM     16  C   UNL     1       6.854  -1.380  21.887  0.00  0.00    +0.000 C 
ATOM     17  C   UNL     1       8.242  -1.978  22.430  0.00  0.00    +0.000 C 
BRANCH  12  18
ATOM     18  C   UNL     1      10.372  -0.751  22.879  0.00  0.00    +0.000 C 
BRANCH  18  20
ATOM     19  O   UNL     1      10.692   0.197  25.035  0.00  0.00    +0.000 OA
ATOM     20  C   UNL     1      10.536   0.548  23.690  0.00  0.00    +0.000 C 
ENDBRANCH  18  20
ENDBRANCH  12  18
ENDBRANCH  11  17
ENDBRANCH  10  11
ENDBRANCH   9  10
ENDBRANCH   1   9
BRANCH   7  21
ATOM     21  N   UNL     1       6.271  -5.997  25.805  0.00  0.00    +0.000 NA
BRANCH  21  22
ATOM     22  C   UNL     1       5.146  -6.476  26.569  0.00  0.00    +0.000 C 
BRANCH  22  23
ATOM     23  S   UNL     1       5.503  -6.286  28.308  0.00  0.00    +0.000 S 
ATOM     24  O   UNL     1       5.845  -7.590  28.815  0.00  0.00    +0.000 OA
ATOM     25  O   UNL     1       6.524  -5.282  28.420  0.00  0.00    +0.000 OA
ATOM     26  N   UNL     1       4.158  -5.769  29.101  0.00  0.00    +0.000 NA
ENDBRANCH  22  23
ENDBRANCH  21  22
ENDBRANCH   7  21
TORSDOF 9
ENDMDL
MODEL 9
REMARK VINA RESULT:      -5.9      3.689      6.850
REMARK  Name = 
REMARK  9 active torsions:
REMARK  status: ('A' for Active; 'I' for Inactive)
REMARK    1  A    between atoms: C_2  and  C_3
REMARK    2  A    between atoms: C_3  and  C_4
REMARK    3  A    between atoms: C_9  and  C_10
REMARK    4  A    between atoms: C_10  and  O_11
REMARK    5  A    between atoms: O_11  and  C_12
REMARK    6  A    between atoms: C_12  and  N_13
REMARK    7  A    between atoms: C_19  and  N_20
REMARK    8  A    between atoms: N_20  and  C_21
REMARK    9  A    between atoms: C_21  and  S_22
REMARK                            x       y       z     vdW  Elec       q    Type
REMARK                         _______ _______ _______ _____ _____    ______ ____
ROOT
ATOM      1  N   UNL     1       7.410  -2.626  25.097  0.00  0.00    +0.000 N 
ATOM      2  C   UNL     1       6.181  -3.091  25.717  0.00  0.00    +0.000 C 
ATOM      3  C   UNL     1       5.739  -2.089  26.782  0.00  0.00    +0.000 C 
ATOM      4  C   UNL     1       6.404  -4.422  26.372  0.00  0.00    +0.000 C 
ATOM      5  C   UNL     1       7.739  -4.859  26.655  0.00  0.00    +0.000 C 
ATOM      6  C   UNL     1       8.603  -4.692  25.407  0.00  0.00    +0.000 C 
ATOM      7  C   UNL     1       8.256  -3.670  24.556  0.00  0.00    +0.000 C 
ATOM      8  C   UNL     1      10.046  -5.160  25.779  0.00  0.00    +0.000 C 
ENDROOT
BRANCH   1   9
ATOM      9  C   UNL     1       8.156  -1.550  25.753  0.00  0.00    +0.000 C 
BRANCH   9  10
ATOM     10  O   UNL     1       9.348  -1.308  25.057  0.00  0.00    +0.000 OA
BRANCH  10  11
ATOM     11  C   UNL     1       9.440   0.006  24.712  0.00  0.00    +0.000 C 
BRANCH  11  17
ATOM     12  C   UNL     1       9.670   1.565  22.782  0.00  0.00    +0.000 C 
ATOM     13  F   UNL     1      10.398   1.790  21.633  0.00  0.00    +0.000 F 
ATOM     14  C   UNL     1       8.284   1.040  22.395  0.00  0.00    +0.000 C 
ATOM     15  O   UNL     1       8.429  -0.342  22.170  0.00  0.00    +0.000 OA
ATOM     16  C   UNL     1       9.742  -0.780  22.422  0.00  0.00    +0.000 C 
ATOM     17  C   UNL     1      10.291   0.285  23.492  0.00  0.00    +0.000 C 
BRANCH  12  18
ATOM     18  C   UNL     1       9.701   2.704  23.695  0.00  0.00    +0.000 C 
BRANCH  18  20
ATOM     19  O   UNL     1      10.843   4.786  23.610  0.00  0.00    +0.000 OA
ATOM     20  C   UNL     1      11.057   3.409  23.501  0.00  0.00    +0.000 C 
ENDBRANCH  18  20
ENDBRANCH  12  18
ENDBRANCH  11  17
ENDBRANCH  10  11
ENDBRANCH   9  10
ENDBRANCH   1   9
BRANCH   7  21
ATOM     21  N   UNL     1       7.762  -3.741  23.232  0.00  0.00    +0.000 NA
BRANCH  21  22
ATOM     22  C   UNL     1       7.552  -5.031  22.623  0.00  0.00    +0.000 C 
BRANCH  22  23
ATOM     23  S   UNL     1       5.874  -5.121  22.022  0.00  0.00    +0.000 S 
ATOM     24  O   UNL     1       5.157  -6.014  22.897  0.00  0.00    +0.000 OA
ATOM     25  O   UNL     1       5.377  -3.775  21.956  0.00  0.00    +0.000 OA
ATOM     26  N   UNL     1       5.857  -5.770  20.510  0.00  0.00    +0.000 NA
ENDBRANCH  22  23
ENDBRANCH  21  22
ENDBRANCH   7  21
TORSDOF 9
ENDMDL
