MODEL 1
REMARK VINA RESULT:      -6.2      0.000      0.000
REMARK  Name = 
REMARK  5 active torsions:
REMARK  status: ('A' for Active; 'I' for Inactive)
REMARK    1  A    between atoms: C_2  and  C_4
REMARK    2  A    between atoms: C_4  and  C_5
REMARK    3  A    between atoms: C_6  and  C_7
REMARK    4  A    between atoms: C_7  and  C_8
REMARK    5  A    between atoms: C_8  and  C_9
REMARK                            x       y       z     vdW  Elec       q    Type
REMARK                         _______ _______ _______ _____ _____    ______ ____
ROOT
ATOM      1  C   UNL     1       7.676  -0.945  23.034  0.00  0.00    +0.000 C 
ATOM      2  C   UNL     1       6.514  -1.964  22.860  0.00  0.00    +0.000 C 
ATOM      3  C   UNL     1       7.085  -3.201  22.147  0.00  0.00    +0.000 C 
ATOM      4  N   UNL     1       6.236  -2.446  24.275  0.00  0.00    +0.000 NA
ATOM      5  C   UNL     1       7.439  -2.351  25.006  0.00  0.00    +0.000 C 
ATOM      6  N   UNL     1       7.943  -3.337  25.324  0.00  0.00    +0.000 NA
ATOM      7  C   UNL     1       9.056  -4.031  24.871  0.00  0.00    +0.000 C 
ATOM      8  C   UNL     1       9.711  -2.880  24.096  0.00  0.00    +0.000 C 
ATOM      9  C   UNL     1       9.588  -1.473  24.556  0.00  0.00    +0.000 C 
ATOM     10  C   UNL     1       8.096  -0.975  24.521  0.00  0.00    +0.000 C 
ENDROOT
BRANCH   1  11
ATOM     11  C   UNL     1       8.830  -1.370  22.158  0.00  0.00    +0.000 C 
BRANCH  11  12
ATOM     12  C   UNL     1       9.282  -0.251  21.256  0.00  0.00    +0.000 C 
BRANCH  12  14
ATOM     13  C   UNL     1       7.589   0.192  19.380  0.00  0.00    +0.000 C 
ATOM     14  C   UNL     1       8.031   0.422  20.650  0.00  0.00    +0.000 C 
ATOM     15  F   UNL     1       8.080   1.784  20.955  0.00  0.00    +0.000 F 
BRANCH  13  16
ATOM     16  C   UNL     1       6.313  -0.502  18.826  0.00  0.00    +0.000 C 
BRANCH  16  18
ATOM     17  O   UNL     1       6.316   1.215  17.320  0.00  0.00    +0.000 OA
ATOM     18  C   UNL     1       5.490   0.657  18.237  0.00  0.00    +0.000 C 
ATOM     19  O   UNL     1       4.894   1.398  19.011  0.00  0.00    +0.000 OA
ENDBRANCH  16  18
ENDBRANCH  13  16
ENDBRANCH  12  14
ENDBRANCH  11  12
ENDBRANCH   1  11
TORSDOF 5
ENDMDL
MODEL 2
REMARK VINA RESULT:      -6.2      4.397      5.918
REMARK  Name = 
REMARK  5 active torsions:
REMARK  status: ('A' for Active; 'I' for Inactive)
REMARK    1  A    between atoms: C_2  and  C_4
REMARK    2  A    between atoms: C_4  and  C_5
REMARK    3  A    between atoms: C_6  and  C_7
REMARK    4  A    between atoms: C_7  and  C_8
REMARK    5  A    between atoms: C_8  and  C_9
REMARK                            x       y       z     vdW  Elec       q    Type
REMARK                         _______ _______ _______ _____ _____    ______ ____
ROOT
ATOM      1  C   UNL     1       8.178  -0.866  21.583  0.00  0.00    +0.000 C 
ATOM      2  C   UNL     1       7.600   0.534  21.938  0.00  0.00    +0.000 C 
ATOM      3  C   UNL     1       7.101   0.474  23.392  0.00  0.00    +0.000 C 
ATOM      4  N   UNL     1       8.826   1.430  22.003  0.00  0.00    +0.000 NA
ATOM      5  C   UNL     1       9.924   0.631  22.380  0.00  0.00    +0.000 C 
ATOM      6  N   UNL     1      10.377   0.813  23.423  0.00  0.00    +0.000 NA
ATOM      7  C   UNL     1      10.317   0.121  24.625  0.00  0.00    +0.000 C 
ATOM      8  C   UNL     1       9.834  -1.222  24.062  0.00  0.00    +0.000 C 
ATOM      9  C   UNL     1      10.251  -1.688  22.716  0.00  0.00    +0.000 C 
ATOM     10  C   UNL     1       9.719  -0.739  21.578  0.00  0.00    +0.000 C 
ENDROOT
BRANCH   1  11
ATOM     11  C   UNL     1       7.741  -1.853  22.638  0.00  0.00    +0.000 C 
BRANCH  11  12
ATOM     12  C   UNL     1       6.750  -2.847  22.089  0.00  0.00    +0.000 C 
BRANCH  12  14
ATOM     13  C   UNL     1       7.982  -4.457  23.662  0.00  0.00    +0.000 C 
ATOM     14  C   UNL     1       7.114  -4.248  22.631  0.00  0.00    +0.000 C 
ATOM     15  F   UNL     1       7.375  -5.081  21.541  0.00  0.00    +0.000 F 
BRANCH  13  16
ATOM     16  C   UNL     1       7.780  -4.997  25.107  0.00  0.00    +0.000 C 
BRANCH  16  18
ATOM     17  O   UNL     1       9.137  -4.505  26.877  0.00  0.00    +0.000 OA
ATOM     18  C   UNL     1       9.211  -5.101  25.664  0.00  0.00    +0.000 C 
ATOM     19  O   UNL     1      10.144  -4.805  24.925  0.00  0.00    +0.000 OA
ENDBRANCH  16  18
ENDBRANCH  13  16
ENDBRANCH  12  14
ENDBRANCH  11  12
ENDBRANCH   1  11
TORSDOF 5
ENDMDL
MODEL 3
REMARK VINA RESULT:      -6.1      1.042      2.334
REMARK  Name = 
REMARK  5 active torsions:
REMARK  status: ('A' for Active; 'I' for Inactive)
REMARK    1  A    between atoms: C_2  and  C_4
REMARK    2  A    between atoms: C_4  and  C_5
REMARK    3  A    between atoms: C_6  and  C_7
REMARK    4  A    between atoms: C_7  and  C_8
REMARK    5  A    between atoms: C_8  and  C_9
REMARK                            x       y       z     vdW  Elec       q    Type
REMARK                         _______ _______ _______ _____ _____    ______ ____
ROOT
ATOM      1  C   UNL     1       8.668  -2.324  22.594  0.00  0.00    +0.000 C 
ATOM      2  C   UNL     1       9.461  -2.742  23.866  0.00  0.00    +0.000 C 
ATOM      3  C   UNL     1       8.957  -1.873  25.031  0.00  0.00    +0.000 C 
ATOM      4  N   UNL     1       8.935  -4.132  24.185  0.00  0.00    +0.000 NA
ATOM      5  C   UNL     1       7.609  -4.210  23.711  0.00  0.00    +0.000 C 
ATOM      6  N   UNL     1       6.770  -4.277  24.497  0.00  0.00    +0.000 NA
ATOM      7  C   UNL     1       5.835  -3.370  24.977  0.00  0.00    +0.000 C 
ATOM      8  C   UNL     1       5.935  -2.352  23.834  0.00  0.00    +0.000 C 
ATOM      9  C   UNL     1       6.215  -2.782  22.441  0.00  0.00    +0.000 C 
ATOM     10  C   UNL     1       7.638  -3.440  22.307  0.00  0.00    +0.000 C 
ENDROOT
BRANCH   1  11
ATOM     11  C   UNL     1       7.960  -1.020  22.869  0.00  0.00    +0.000 C 
BRANCH  11  12
ATOM     12  C   UNL     1       8.640   0.135  22.180  0.00  0.00    +0.000 C 
BRANCH  12  14
ATOM     13  C   UNL     1       7.454   0.170  19.906  0.00  0.00    +0.000 C 
ATOM     14  C   UNL     1       7.666   0.722  21.135  0.00  0.00    +0.000 C 
ATOM     15  F   UNL     1       7.880   2.100  21.067  0.00  0.00    +0.000 F 
BRANCH  13  16
ATOM     16  C   UNL     1       6.215  -0.523  19.269  0.00  0.00    +0.000 C 
BRANCH  16  18
ATOM     17  O   UNL     1       6.592   0.990  17.600  0.00  0.00    +0.000 OA
ATOM     18  C   UNL     1       5.581   0.580  18.404  0.00  0.00    +0.000 C 
ATOM     19  O   UNL     1       4.897   1.433  18.959  0.00  0.00    +0.000 OA
ENDBRANCH  16  18
ENDBRANCH  13  16
ENDBRANCH  12  14
ENDBRANCH  11  12
ENDBRANCH   1  11
TORSDOF 5
ENDMDL
MODEL 4
REMARK VINA RESULT:      -6.1      2.936      3.938
REMARK  Name = 
REMARK  5 active torsions:
REMARK  status: ('A' for Active; 'I' for Inactive)
REMARK    1  A    between atoms: C_2  and  C_4
REMARK    2  A    between atoms: C_4  and  C_5
REMARK    3  A    between atoms: C_6  and  C_7
REMARK    4  A    between atoms: C_7  and  C_8
REMARK    5  A    between atoms: C_8  and  C_9
REMARK                            x       y       z     vdW  Elec       q    Type
REMARK                         _______ _______ _______ _____ _____    ______ ____
ROOT
ATOM      1  C   UNL     1       9.722  -0.057  22.514  0.00  0.00    +0.000 C 
ATOM      2  C   UNL     1       9.622   1.224  21.638  0.00  0.00    +0.000 C 
ATOM      3  C   UNL     1       8.158   1.697  21.674  0.00  0.00    +0.000 C 
ATOM      4  N   UNL     1      10.371   2.275  22.441  0.00  0.00    +0.000 NA
ATOM      5  C   UNL     1      10.261   1.934  23.805  0.00  0.00    +0.000 C 
ATOM      6  N   UNL     1       9.625   2.624  24.473  0.00  0.00    +0.000 NA
ATOM      7  C   UNL     1       8.360   2.511  25.034  0.00  0.00    +0.000 C 
ATOM      8  C   UNL     1       8.206   0.992  24.883  0.00  0.00    +0.000 C 
ATOM      9  C   UNL     1       9.377   0.085  24.986  0.00  0.00    +0.000 C 
ATOM     10  C   UNL     1      10.419   0.341  23.835  0.00  0.00    +0.000 C 
ENDROOT
BRANCH   1  11
ATOM     11  C   UNL     1       8.328  -0.565  22.793  0.00  0.00    +0.000 C 
BRANCH  11  12
ATOM     12  C   UNL     1       8.144  -1.977  22.298  0.00  0.00    +0.000 C 
BRANCH  12  14
ATOM     13  C   UNL     1       6.212  -1.228  20.784  0.00  0.00    +0.000 C 
ATOM     14  C   UNL     1       6.726  -2.101  21.698  0.00  0.00    +0.000 C 
ATOM     15  F   UNL     1       5.834  -2.361  22.741  0.00  0.00    +0.000 F 
BRANCH  13  16
ATOM     16  C   UNL     1       5.827  -1.388  19.286  0.00  0.00    +0.000 C 
BRANCH  16  18
ATOM     17  O   UNL     1       5.761  -0.043  17.440  0.00  0.00    +0.000 OA
ATOM     18  C   UNL     1       6.427  -0.139  18.616  0.00  0.00    +0.000 C 
ATOM     19  O   UNL     1       7.647  -0.015  18.607  0.00  0.00    +0.000 OA
ENDBRANCH  16  18
ENDBRANCH  13  16
ENDBRANCH  12  14
ENDBRANCH  11  12
ENDBRANCH   1  11
TORSDOF 5
ENDMDL
MODEL 5
REMARK VINA RESULT:      -6.1      4.755      6.330
REMARK  Name = 
REMARK  5 active torsions:
REMARK  status: ('A' for Active; 'I' for Inactive)
REMARK    1  A    between atoms: C_2  and  C_4
REMARK    2  A    between atoms: C_4  and  C_5
REMARK    3  A    between atoms: C_6  and  C_7
REMARK    4  A    between atoms: C_7  and  C_8
REMARK    5  A    between atoms: C_8  and  C_9
REMARK                            x       y       z     vdW  Elec       q    Type
REMARK                         _______ _______ _______ _____ _____    ______ ____
ROOT
ATOM      1  C   UNL     1       9.945  -0.276  22.664  0.00  0.00    +0.000 C 
ATOM      2  C   UNL     1       9.606   0.886  21.687  0.00  0.00    +0.000 C 
ATOM      3  C   UNL     1       8.095   1.154  21.793  0.00  0.00    +0.000 C 
ATOM      4  N   UNL     1      10.245   2.105  22.333  0.00  0.00    +0.000 NA
ATOM      5  C   UNL     1      10.273   1.890  23.726  0.00  0.00    +0.000 C 
ATOM      6  N   UNL     1       9.588   2.549  24.376  0.00  0.00    +0.000 NA
ATOM      7  C   UNL     1       8.390   2.320  25.040  0.00  0.00    +0.000 C 
ATOM      8  C   UNL     1       8.448   0.787  25.039  0.00  0.00    +0.000 C 
ATOM      9  C   UNL     1       9.741   0.064  25.133  0.00  0.00    +0.000 C 
ATOM     10  C   UNL     1      10.660   0.345  23.886  0.00  0.00    +0.000 C 
ENDROOT
BRANCH   1  11
ATOM     11  C   UNL     1       8.660  -0.940  23.094  0.00  0.00    +0.000 C 
BRANCH  11  12
ATOM     12  C   UNL     1       8.580  -2.362  22.603  0.00  0.00    +0.000 C 
BRANCH  12  14
ATOM     13  C   UNL     1       7.902  -3.337  24.877  0.00  0.00    +0.000 C 
ATOM     14  C   UNL     1       8.755  -3.306  23.813  0.00  0.00    +0.000 C 
ATOM     15  F   UNL     1      10.094  -3.262  24.209  0.00  0.00    +0.000 F 
BRANCH  13  16
ATOM     16  C   UNL     1       6.907  -4.417  25.390  0.00  0.00    +0.000 C 
BRANCH  16  18
ATOM     17  O   UNL     1       6.869  -6.146  26.883  0.00  0.00    +0.000 OA
ATOM     18  C   UNL     1       7.758  -5.280  26.339  0.00  0.00    +0.000 C 
ATOM     19  O   UNL     1       8.551  -4.715  27.084  0.00  0.00    +0.000 OA
ENDBRANCH  16  18
ENDBRANCH  13  16
ENDBRANCH  12  14
ENDBRANCH  11  12
ENDBRANCH   1  11
TORSDOF 5
ENDMDL
MODEL 6
REMARK VINA RESULT:      -6.0      2.047      3.144
REMARK  Name = 
REMARK  5 active torsions:
REMARK  status: ('A' for Active; 'I' for Inactive)
REMARK    1  A    between atoms: C_2  and  C_4
REMARK    2  A    between atoms: C_4  and  C_5
REMARK    3  A    between atoms: C_6  and  C_7
REMARK    4  A    between atoms: C_7  and  C_8
REMARK    5  A    between atoms: C_8  and  C_9
REMARK                            x       y       z     vdW  Elec       q    Type
REMARK                         _______ _______ _______ _____ _____    ______ ____
ROOT
ATOM      1  C   UNL     1       8.864  -3.352  24.637  0.00  0.00    +0.000 C 
ATOM      2  C   UNL     1       8.579  -2.977  26.120  0.00  0.00    +0.000 C 
ATOM      3  C   UNL     1       7.139  -2.442  26.194  0.00  0.00    +0.000 C 
ATOM      4  N   UNL     1       8.513  -4.320  26.830  0.00  0.00    +0.000 NA
ATOM      5  C   UNL     1       8.074  -5.280  25.895  0.00  0.00    +0.000 C 
ATOM      6  N   UNL     1       7.025  -5.730  26.053  0.00  0.00    +0.000 NA
ATOM      7  C   UNL     1       5.800  -5.541  25.427  0.00  0.00    +0.000 C 
ATOM      8  C   UNL     1       6.326  -4.879  24.147  0.00  0.00    +0.000 C 
ATOM      9  C   UNL     1       7.642  -5.254  23.570  0.00  0.00    +0.000 C 
ATOM     10  C   UNL     1       8.829  -4.894  24.538  0.00  0.00    +0.000 C 
ENDROOT
BRANCH   1  11
ATOM     11  C   UNL     1       7.786  -2.750  23.769  0.00  0.00    +0.000 C 
BRANCH  11  12
ATOM     12  C   UNL     1       8.360  -1.789  22.760  0.00  0.00    +0.000 C 
BRANCH  12  14
ATOM     13  C   UNL     1       7.105  -0.473  20.951  0.00  0.00    +0.000 C 
ATOM     14  C   UNL     1       7.356  -1.649  21.594  0.00  0.00    +0.000 C 
ATOM     15  F   UNL     1       6.184  -2.321  21.948  0.00  0.00    +0.000 F 
BRANCH  13  16
ATOM     16  C   UNL     1       7.395   0.011  19.501  0.00  0.00    +0.000 C 
BRANCH  16  18
ATOM     17  O   UNL     1       6.108  -0.865  17.830  0.00  0.00    +0.000 OA
ATOM     18  C   UNL     1       6.007   0.035  18.837  0.00  0.00    +0.000 C 
ATOM     19  O   UNL     1       5.498   1.124  18.596  0.00  0.00    +0.000 OA
ENDBRANCH  16  18
ENDBRANCH  13  16
ENDBRANCH  12  14
ENDBRANCH  11  12
ENDBRANCH   1  11
TORSDOF 5
ENDMDL
MODEL 7
REMARK VINA RESULT:      -5.9      2.381      3.354
REMARK  Name = 
REMARK  5 active torsions:
REMARK  status: ('A' for Active; 'I' for Inactive)
REMARK    1  A    between atoms: C_2  and  C_4
REMARK    2  A    between atoms: C_4  and  C_5
REMARK    3  A    between atoms: C_6  and  C_7
REMARK    4  A    between atoms: C_7  and  C_8
REMARK    5  A    between atoms: C_8  and  C_9
REMARK                            x       y       z     vdW  Elec       q    Type
REMARK                         _______ _______ _______ _____ _____    ______ ____
ROOT
ATOM      1  C   UNL     1       8.453   1.500  23.999  0.00  0.00    +0.000 C 
ATOM      2  C   UNL     1       8.630   0.509  25.185  0.00  0.00    +0.000 C 
ATOM      3  C   UNL     1       7.910  -0.797  24.810  0.00  0.00    +0.000 C 
ATOM      4  N   UNL     1      10.105   0.145  25.141  0.00  0.00    +0.000 NA
ATOM      5  C   UNL     1      10.536   0.256  23.803  0.00  0.00    +0.000 C 
ATOM      6  N   UNL     1      10.811  -0.719  23.254  0.00  0.00    +0.000 NA
ATOM      7  C   UNL     1      10.176  -1.481  22.283  0.00  0.00    +0.000 C 
ATOM      8  C   UNL     1       9.183  -0.415  21.805  0.00  0.00    +0.000 C 
ATOM      9  C   UNL     1       9.542   1.026  21.799  0.00  0.00    +0.000 C 
ATOM     10  C   UNL     1       9.805   1.569  23.253  0.00  0.00    +0.000 C 
ENDROOT
BRANCH   1  11
ATOM     11  C   UNL     1       7.378   0.972  23.081  0.00  0.00    +0.000 C 
BRANCH  11  12
ATOM     12  C   UNL     1       6.196   1.904  23.020  0.00  0.00    +0.000 C 
BRANCH  12  14
ATOM     13  C   UNL     1       6.275   1.786  20.458  0.00  0.00    +0.000 C 
ATOM     14  C   UNL     1       6.130   2.515  21.602  0.00  0.00    +0.000 C 
ATOM     15  F   UNL     1       6.906   3.676  21.594  0.00  0.00    +0.000 F 
BRANCH  13  16
ATOM     16  C   UNL     1       5.285   1.425  19.314  0.00  0.00    +0.000 C 
BRANCH  16  18
ATOM     17  O   UNL     1       5.711  -0.819  19.346  0.00  0.00    +0.000 OA
ATOM     18  C   UNL     1       5.980   0.265  18.579  0.00  0.00    +0.000 C 
ATOM     19  O   UNL     1       7.130   0.432  18.188  0.00  0.00    +0.000 OA
ENDBRANCH  16  18
ENDBRANCH  13  16
ENDBRANCH  12  14
ENDBRANCH  11  12
ENDBRANCH   1  11
TORSDOF 5
ENDMDL
MODEL 8
REMARK VINA RESULT:      -5.9      3.564      5.134
REMARK  Name = 
REMARK  5 active torsions:
REMARK  status: ('A' for Active; 'I' for Inactive)
REMARK    1  A    between atoms: C_2  and  C_4
REMARK    2  A    between atoms: C_4  and  C_5
REMARK    3  A    between atoms: C_6  and  C_7
REMARK    4  A    between atoms: C_7  and  C_8
REMARK    5  A    between atoms: C_8  and  C_9
REMARK                            x       y       z     vdW  Elec       q    Type
REMARK                         _______ _______ _______ _____ _____    ______ ____
ROOT
ATOM      1  C   UNL     1       8.184  -1.022  22.475  0.00  0.00    +0.000 C 
ATOM      2  C   UNL     1       7.231   0.119  22.018  0.00  0.00    +0.000 C 
ATOM      3  C   UNL     1       6.960   1.014  23.240  0.00  0.00    +0.000 C 
ATOM      4  N   UNL     1       8.097   0.980  21.113  0.00  0.00    +0.000 NA
ATOM      5  C   UNL     1       9.433   0.849  21.544  0.00  0.00    +0.000 C 
ATOM      6  N   UNL     1       9.926   1.771  22.026  0.00  0.00    +0.000 NA
ATOM      7  C   UNL     1      10.242   2.113  23.334  0.00  0.00    +0.000 C 
ATOM      8  C   UNL     1      10.156   0.706  23.938  0.00  0.00    +0.000 C 
ATOM      9  C   UNL     1      10.533  -0.495  23.151  0.00  0.00    +0.000 C 
ATOM     10  C   UNL     1       9.587  -0.702  21.910  0.00  0.00    +0.000 C 
ENDROOT
BRANCH   1  11
ATOM     11  C   UNL     1       8.224  -1.047  23.984  0.00  0.00    +0.000 C 
BRANCH  11  12
ATOM     12  C   UNL     1       7.697  -2.349  24.529  0.00  0.00    +0.000 C 
BRANCH  12  14
ATOM     13  C   UNL     1       7.734  -4.720  23.550  0.00  0.00    +0.000 C 
ATOM     14  C   UNL     1       8.330  -3.506  23.725  0.00  0.00    +0.000 C 
ATOM     15  F   UNL     1       9.667  -3.624  24.112  0.00  0.00    +0.000 F 
BRANCH  13  16
ATOM     16  C   UNL     1       7.155  -5.431  22.293  0.00  0.00    +0.000 C 
BRANCH  16  18
ATOM     17  O   UNL     1       4.888  -5.663  22.138  0.00  0.00    +0.000 OA
ATOM     18  C   UNL     1       5.829  -4.694  22.033  0.00  0.00    +0.000 C 
ATOM     19  O   UNL     1       5.769  -3.925  21.079  0.00  0.00    +0.000 OA
ENDBRANCH  16  18
ENDBRANCH  13  16
ENDBRANCH  12  14
ENDBRANCH  11  12
ENDBRANCH   1  11
TORSDOF 5
ENDMDL
MODEL 9
REMARK VINA RESULT:      -5.9      2.578      3.811
REMARK  Name = 
REMARK  5 active torsions:
REMARK  status: ('A' for Active; 'I' for Inactive)
REMARK    1  A    between atoms: C_2  and  C_4
REMARK    2  A    between atoms: C_4  and  C_5
REMARK    3  A    between atoms: C_6  and  C_7
REMARK    4  A    between atoms: C_7  and  C_8
REMARK    5  A    between atoms: C_8  and  C_9
REMARK                            x       y       z     vdW  Elec       q    Type
REMARK                         _______ _______ _______ _____ _____    ______ ____
ROOT
ATOM      1  C   UNL     1       8.296  -2.593  22.418  0.00  0.00    +0.000 C 
ATOM      2  C   UNL     1       9.447  -2.353  23.437  0.00  0.00    +0.000 C 
ATOM      3  C   UNL     1       8.966  -1.287  24.436  0.00  0.00    +0.000 C 
ATOM      4  N   UNL     1       9.488  -3.635  24.252  0.00  0.00    +0.000 NA
ATOM      5  C   UNL     1       8.188  -4.182  24.259  0.00  0.00    +0.000 C 
ATOM      6  N   UNL     1       7.617  -4.176  25.259  0.00  0.00    +0.000 NA
ATOM      7  C   UNL     1       6.573  -3.410  25.759  0.00  0.00    +0.000 C 
ATOM      8  C   UNL     1       6.075  -2.848  24.422  0.00  0.00    +0.000 C 
ATOM      9  C   UNL     1       6.157  -3.645  23.172  0.00  0.00    +0.000 C 
ATOM     10  C   UNL     1       7.647  -3.951  22.770  0.00  0.00    +0.000 C 
ENDROOT
BRANCH   1  11
ATOM     11  C   UNL     1       7.285  -1.481  22.557  0.00  0.00    +0.000 C 
BRANCH  11  12
ATOM     12  C   UNL     1       6.982  -0.840  21.227  0.00  0.00    +0.000 C 
BRANCH  12  14
ATOM     13  C   UNL     1       8.737   1.031  21.252  0.00  0.00    +0.000 C 
ATOM     14  C   UNL     1       8.261  -0.133  20.725  0.00  0.00    +0.000 C 
ATOM     15  F   UNL     1       8.221  -0.105  19.329  0.00  0.00    +0.000 F 
BRANCH  13  16
ATOM     16  C   UNL     1      10.021   1.363  22.067  0.00  0.00    +0.000 C 
BRANCH  16  18
ATOM     17  O   UNL     1       9.968   2.122  24.220  0.00  0.00    +0.000 OA
ATOM     18  C   UNL     1       9.585   2.520  22.983  0.00  0.00    +0.000 C 
ATOM     19  O   UNL     1       8.457   2.980  22.842  0.00  0.00    +0.000 OA
ENDBRANCH  16  18
ENDBRANCH  13  16
ENDBRANCH  12  14
ENDBRANCH  11  12
ENDBRANCH   1  11
TORSDOF 5
ENDMDL
