MODEL 1
REMARK VINA RESULT:      -7.2      0.000      0.000
REMARK  Name = 
REMARK  6 active torsions:
REMARK  status: ('A' for Active; 'I' for Inactive)
REMARK    1  A    between atoms: N_4  and  C_5
REMARK    2  A    between atoms: C_5  and  C_6
REMARK    3  A    between atoms: C_6  and  S_7
REMARK    4  A    between atoms: C_17  and  N_18
REMARK    5  A    between atoms: N_18  and  C_19
REMARK    6  A    between atoms: C_19  and  S_20
REMARK                            x       y       z     vdW  Elec       q    Type
REMARK                         _______ _______ _______ _____ _____    ______ ____
ROOT
ATOM      1  F   UNL     1      10.511   1.484  21.803  0.00  0.00    +0.000 F 
ATOM      2  C   UNL     1       9.290   0.895  21.564  0.00  0.00    +0.000 C 
ATOM      3  C   UNL     1       8.228   1.569  22.452  0.00  0.00    +0.000 C 
ATOM      4  N   UNL     1       6.945   1.083  22.051  0.00  0.00    +0.000 NA
ATOM      5  C   UNL     1       6.835  -0.303  22.171  0.00  0.00    +0.000 C 
ATOM      6  N   UNL     1       8.044  -1.031  22.361  0.00  0.00    +0.000 N 
ATOM      7  C   UNL     1       9.351  -0.575  22.000  0.00  0.00    +0.000 C 
ATOM      8  C   UNL     1      10.352  -0.700  23.131  0.00  0.00    +0.000 C 
ATOM      9  C   UNL     1       9.658  -0.458  24.486  0.00  0.00    +0.000 C 
ATOM     10  C   UNL     1       8.668  -1.735  24.559  0.00  0.00    +0.000 C 
ATOM     11  C   UNL     1       7.983  -2.034  23.404  0.00  0.00    +0.000 C 
ATOM     12  C   UNL     1       8.119  -1.738  26.011  0.00  0.00    +0.000 C 
ENDROOT
BRANCH   4  13
ATOM     13  C   UNL     1       6.779   1.436  20.650  0.00  0.00    +0.000 C 
BRANCH  13  14
ATOM     14  C   UNL     1       5.931   0.351  19.991  0.00  0.00    +0.000 C 
BRANCH  14  15
ATOM     15  S   UNL     1       6.581   0.019  18.360  0.00  0.00    +0.000 S 
ATOM     16  O   UNL     1       5.859  -1.109  17.837  0.00  0.00    +0.000 OA
ATOM     17  O   UNL     1       8.000  -0.151  18.498  0.00  0.00    +0.000 OA
ATOM     18  N   UNL     1       6.294   1.322  17.397  0.00  0.00    +0.000 NA
ENDBRANCH  14  15
ENDBRANCH  13  14
ENDBRANCH   4  13
BRANCH  11  19
ATOM     19  N   UNL     1       8.069  -3.222  22.618  0.00  0.00    +0.000 NA
BRANCH  19  20
ATOM     20  C   UNL     1       7.251  -4.332  23.063  0.00  0.00    +0.000 C 
BRANCH  20  21
ATOM     21  S   UNL     1       6.098  -4.767  21.775  0.00  0.00    +0.000 S 
ATOM     22  O   UNL     1       5.765  -3.555  21.074  0.00  0.00    +0.000 OA
ATOM     23  O   UNL     1       6.702  -5.801  20.984  0.00  0.00    +0.000 OA
ATOM     24  N   UNL     1       4.725  -5.364  22.463  0.00  0.00    +0.000 NA
ENDBRANCH  20  21
ENDBRANCH  19  20
ENDBRANCH  11  19
TORSDOF 6
ENDMDL
MODEL 2
REMARK VINA RESULT:      -7.2      2.363      2.719
REMARK  Name = 
REMARK  6 active torsions:
REMARK  status: ('A' for Active; 'I' for Inactive)
REMARK    1  A    between atoms: N_4  and  C_5
REMARK    2  A    between atoms: C_5  and  C_6
REMARK    3  A    between atoms: C_6  and  S_7
REMARK    4  A    between atoms: C_17  and  N_18
REMARK    5  A    between atoms: N_18  and  C_19
REMARK    6  A    between atoms: C_19  and  S_20
REMARK                            x       y       z     vdW  Elec       q    Type
REMARK                         _______ _______ _______ _____ _____    ______ ____
ROOT
ATOM      1  F   UNL     1      10.597   2.237  21.788  0.00  0.00    +0.000 F 
ATOM      2  C   UNL     1       9.794   1.121  21.863  0.00  0.00    +0.000 C 
ATOM      3  C   UNL     1       8.327   1.547  21.666  0.00  0.00    +0.000 C 
ATOM      4  N   UNL     1       7.536   0.363  21.553  0.00  0.00    +0.000 NA
ATOM      5  C   UNL     1       7.632  -0.457  22.679  0.00  0.00    +0.000 C 
ATOM      6  N   UNL     1       8.686  -0.173  23.594  0.00  0.00    +0.000 N 
ATOM      7  C   UNL     1       9.889   0.534  23.279  0.00  0.00    +0.000 C 
ATOM      8  C   UNL     1      10.183   1.660  24.248  0.00  0.00    +0.000 C 
ATOM      9  C   UNL     1       8.868   2.298  24.738  0.00  0.00    +0.000 C 
ATOM     10  C   UNL     1       8.225   1.076  25.580  0.00  0.00    +0.000 C 
ATOM     11  C   UNL     1       8.287  -0.163  24.985  0.00  0.00    +0.000 C 
ATOM     12  C   UNL     1       7.027   1.699  26.345  0.00  0.00    +0.000 C 
ENDROOT
BRANCH   4  13
ATOM     13  C   UNL     1       8.043  -0.376  20.406  0.00  0.00    +0.000 C 
BRANCH  13  14
ATOM     14  C   UNL     1       7.577   0.344  19.142  0.00  0.00    +0.000 C 
BRANCH  14  15
ATOM     15  S   UNL     1       5.907  -0.169  18.766  0.00  0.00    +0.000 S 
ATOM     16  O   UNL     1       5.608  -1.294  19.610  0.00  0.00    +0.000 OA
ATOM     17  O   UNL     1       5.847  -0.411  17.352  0.00  0.00    +0.000 OA
ATOM     18  N   UNL     1       4.877   1.059  19.138  0.00  0.00    +0.000 NA
ENDBRANCH  14  15
ENDBRANCH  13  14
ENDBRANCH   4  13
BRANCH  11  19
ATOM     19  N   UNL     1       8.970  -1.325  25.453  0.00  0.00    +0.000 NA
BRANCH  19  20
ATOM     20  C   UNL     1       8.139  -2.483  25.714  0.00  0.00    +0.000 C 
BRANCH  20  21
ATOM     21  S   UNL     1       8.656  -3.826  24.662  0.00  0.00    +0.000 S 
ATOM     22  O   UNL     1       7.686  -3.939  23.606  0.00  0.00    +0.000 OA
ATOM     23  O   UNL     1      10.004  -3.558  24.248  0.00  0.00    +0.000 OA
ATOM     24  N   UNL     1       8.642  -5.225  25.533  0.00  0.00    +0.000 NA
ENDBRANCH  20  21
ENDBRANCH  19  20
ENDBRANCH  11  19
TORSDOF 6
ENDMDL
MODEL 3
REMARK VINA RESULT:      -7.0      1.895      5.416
REMARK  Name = 
REMARK  6 active torsions:
REMARK  status: ('A' for Active; 'I' for Inactive)
REMARK    1  A    between atoms: N_4  and  C_5
REMARK    2  A    between atoms: C_5  and  C_6
REMARK    3  A    between atoms: C_6  and  S_7
REMARK    4  A    between atoms: C_17  and  N_18
REMARK    5  A    between atoms: N_18  and  C_19
REMARK    6  A    between atoms: C_19  and  S_20
REMARK                            x       y       z     vdW  Elec       q    Type
REMARK                         _______ _______ _______ _____ _____    ______ ____
ROOT
ATOM      1  F   UNL     1       6.413  -1.117  25.920  0.00  0.00    +0.000 F 
ATOM      2  C   UNL     1       6.742  -1.827  24.787  0.00  0.00    +0.000 C 
ATOM      3  C   UNL     1       8.224  -2.236  24.866  0.00  0.00    +0.000 C 
ATOM      4  N   UNL     1       8.492  -3.131  23.785  0.00  0.00    +0.000 NA
ATOM      5  C   UNL     1       8.236  -2.559  22.537  0.00  0.00    +0.000 C 
ATOM      6  N   UNL     1       7.488  -1.347  22.526  0.00  0.00    +0.000 N 
ATOM      7  C   UNL     1       6.609  -0.907  23.566  0.00  0.00    +0.000 C 
ATOM      8  C   UNL     1       6.882   0.517  24.005  0.00  0.00    +0.000 C 
ATOM      9  C   UNL     1       8.390   0.823  23.914  0.00  0.00    +0.000 C 
ATOM     10  C   UNL     1       8.626   0.745  22.315  0.00  0.00    +0.000 C 
ATOM     11  C   UNL     1       8.031  -0.314  21.670  0.00  0.00    +0.000 C 
ATOM     12  C   UNL     1      10.056   1.307  22.090  0.00  0.00    +0.000 C 
ENDROOT
BRANCH   4  13
ATOM     13  C   UNL     1       7.608  -4.274  23.953  0.00  0.00    +0.000 C 
BRANCH  13  14
ATOM     14  C   UNL     1       7.482  -4.973  22.601  0.00  0.00    +0.000 C 
BRANCH  14  15
ATOM     15  S   UNL     1       5.762  -5.351  22.303  0.00  0.00    +0.000 S 
ATOM     16  O   UNL     1       5.332  -6.232  23.354  0.00  0.00    +0.000 OA
ATOM     17  O   UNL     1       5.670  -5.873  20.968  0.00  0.00    +0.000 OA
ATOM     18  N   UNL     1       4.888  -3.959  22.389  0.00  0.00    +0.000 NA
ENDBRANCH  14  15
ENDBRANCH  13  14
ENDBRANCH   4  13
BRANCH  11  19
ATOM     19  N   UNL     1       7.025  -0.269  20.659  0.00  0.00    +0.000 NA
BRANCH  19  20
ATOM     20  C   UNL     1       7.453   0.223  19.365  0.00  0.00    +0.000 C 
BRANCH  20  21
ATOM     21  S   UNL     1       6.046   0.311  18.274  0.00  0.00    +0.000 S 
ATOM     22  O   UNL     1       5.941  -0.961  17.609  0.00  0.00    +0.000 OA
ATOM     23  O   UNL     1       4.911   0.700  19.063  0.00  0.00    +0.000 OA
ATOM     24  N   UNL     1       6.319   1.471  17.137  0.00  0.00    +0.000 NA
ENDBRANCH  20  21
ENDBRANCH  19  20
ENDBRANCH  11  19
TORSDOF 6
ENDMDL
MODEL 4
REMARK VINA RESULT:      -6.8      2.245      2.467
REMARK  Name = 
REMARK  6 active torsions:
REMARK  status: ('A' for Active; 'I' for Inactive)
REMARK    1  A    between atoms: N_4  and  C_5
REMARK    2  A    between atoms: C_5  and  C_6
REMARK    3  A    between atoms: C_6  and  S_7
REMARK    4  A    between atoms: C_17  and  N_18
REMARK    5  A    between atoms: N_18  and  C_19
REMARK    6  A    between atoms: C_19  and  S_20
REMARK                            x       y       z     vdW  Elec       q    Type
REMARK                         _______ _______ _______ _____ _____    ______ ____
ROOT
ATOM      1  F   UNL     1      10.447   1.363  21.743  0.00  0.00    +0.000 F 
ATOM      2  C   UNL     1       9.539   0.328  21.710  0.00  0.00    +0.000 C 
ATOM      3  C   UNL     1       8.143   0.877  22.058  0.00  0.00    +0.000 C 
ATOM      4  N   UNL     1       7.191  -0.163  21.829  0.00  0.00    +0.000 NA
ATOM      5  C   UNL     1       7.444  -1.301  22.597  0.00  0.00    +0.000 C 
ATOM      6  N   UNL     1       8.719  -1.383  23.226  0.00  0.00    +0.000 N 
ATOM      7  C   UNL     1       9.895  -0.682  22.811  0.00  0.00    +0.000 C 
ATOM      8  C   UNL     1      10.571   0.060  23.944  0.00  0.00    +0.000 C 
ATOM      9  C   UNL     1       9.518   0.584  24.941  0.00  0.00    +0.000 C 
ATOM     10  C   UNL     1       8.937  -0.804  25.536  0.00  0.00    +0.000 C 
ATOM     11  C   UNL     1       8.678  -1.791  24.614  0.00  0.00    +0.000 C 
ATOM     12  C   UNL     1       8.061  -0.388  26.748  0.00  0.00    +0.000 C 
ENDROOT
BRANCH   4  13
ATOM     13  C   UNL     1       7.293  -0.528  20.424  0.00  0.00    +0.000 C 
BRANCH  13  14
ATOM     14  C   UNL     1       7.234   0.757  19.601  0.00  0.00    +0.000 C 
BRANCH  14  15
ATOM     15  S   UNL     1       5.976   0.584  18.345  0.00  0.00    +0.000 S 
ATOM     16  O   UNL     1       6.344   1.440  17.252  0.00  0.00    +0.000 OA
ATOM     17  O   UNL     1       4.714   0.868  18.969  0.00  0.00    +0.000 OA
ATOM     18  N   UNL     1       5.965  -0.975  17.815  0.00  0.00    +0.000 NA
ENDBRANCH  14  15
ENDBRANCH  13  14
ENDBRANCH   4  13
BRANCH  11  19
ATOM     19  N   UNL     1       9.285  -3.079  24.517  0.00  0.00    +0.000 NA
BRANCH  19  20
ATOM     20  C   UNL     1       9.012  -3.990  25.611  0.00  0.00    +0.000 C 
BRANCH  20  21
ATOM     21  S   UNL     1       7.381  -4.679  25.407  0.00  0.00    +0.000 S 
ATOM     22  O   UNL     1       7.335  -5.899  26.169  0.00  0.00    +0.000 OA
ATOM     23  O   UNL     1       6.433  -3.669  25.785  0.00  0.00    +0.000 OA
ATOM     24  N   UNL     1       7.149  -5.049  23.818  0.00  0.00    +0.000 NA
ENDBRANCH  20  21
ENDBRANCH  19  20
ENDBRANCH  11  19
TORSDOF 6
ENDMDL
MODEL 5
REMARK VINA RESULT:      -6.6      3.882      6.756
REMARK  Name = 
REMARK  6 active torsions:
REMARK  status: ('A' for Active; 'I' for Inactive)
REMARK    1  A    between atoms: N_4  and  C_5
REMARK    2  A    between atoms: C_5  and  C_6
REMARK    3  A    between atoms: C_6  and  S_7
REMARK    4  A    between atoms: C_17  and  N_18
REMARK    5  A    between atoms: N_18  and  C_19
REMARK    6  A    between atoms: C_19  and  S_20
REMARK                            x       y       z     vdW  Elec       q    Type
REMARK                         _______ _______ _______ _____ _____    ______ ____
ROOT
ATOM      1  F   UNL     1      10.448  -2.316  23.273  0.00  0.00    +0.000 F 
ATOM      2  C   UNL     1       9.198  -1.913  23.687  0.00  0.00    +0.000 C 
ATOM      3  C   UNL     1       8.133  -2.719  22.920  0.00  0.00    +0.000 C 
ATOM      4  N   UNL     1       6.860  -2.429  23.499  0.00  0.00    +0.000 NA
ATOM      5  C   UNL     1       6.541  -1.071  23.442  0.00  0.00    +0.000 C 
ATOM      6  N   UNL     1       7.600  -0.174  23.123  0.00  0.00    +0.000 N 
ATOM      7  C   UNL     1       8.994  -0.443  23.297  0.00  0.00    +0.000 C 
ATOM      8  C   UNL     1       9.809  -0.158  22.053  0.00  0.00    +0.000 C 
ATOM      9  C   UNL     1       8.984  -0.475  20.790  0.00  0.00    +0.000 C 
ATOM     10  C   UNL     1       7.823   0.647  20.889  0.00  0.00    +0.000 C 
ATOM     11  C   UNL     1       7.262   0.825  22.132  0.00  0.00    +0.000 C 
ATOM     12  C   UNL     1       7.092   0.593  19.520  0.00  0.00    +0.000 C 
ENDROOT
BRANCH   4  13
ATOM     13  C   UNL     1       6.931  -2.824  24.897  0.00  0.00    +0.000 C 
BRANCH  13  14
ATOM     14  C   UNL     1       6.874  -4.349  24.957  0.00  0.00    +0.000 C 
BRANCH  14  15
ATOM     15  S   UNL     1       8.233  -4.940  25.955  0.00  0.00    +0.000 S 
ATOM     16  O   UNL     1       7.723  -6.000  26.782  0.00  0.00    +0.000 OA
ATOM     17  O   UNL     1       8.773  -3.805  26.650  0.00  0.00    +0.000 OA
ATOM     18  N   UNL     1       9.393  -5.556  24.964  0.00  0.00    +0.000 NA
ENDBRANCH  14  15
ENDBRANCH  13  14
ENDBRANCH   4  13
BRANCH  11  19
ATOM     19  N   UNL     1       7.282   2.001  22.941  0.00  0.00    +0.000 NA
BRANCH  19  20
ATOM     20  C   UNL     1       8.140   3.072  22.474  0.00  0.00    +0.000 C 
BRANCH  20  21
ATOM     21  S   UNL     1       9.277   3.521  23.771  0.00  0.00    +0.000 S 
ATOM     22  O   UNL     1       9.225   4.953  23.908  0.00  0.00    +0.000 OA
ATOM     23  O   UNL     1       8.921   2.767  24.940  0.00  0.00    +0.000 OA
ATOM     24  N   UNL     1      10.803   3.098  23.317  0.00  0.00    +0.000 NA
ENDBRANCH  20  21
ENDBRANCH  19  20
ENDBRANCH  11  19
TORSDOF 6
ENDMDL
MODEL 6
REMARK VINA RESULT:      -6.4      3.634      6.828
REMARK  Name = 
REMARK  6 active torsions:
REMARK  status: ('A' for Active; 'I' for Inactive)
REMARK    1  A    between atoms: N_4  and  C_5
REMARK    2  A    between atoms: C_5  and  C_6
REMARK    3  A    between atoms: C_6  and  S_7
REMARK    4  A    between atoms: C_17  and  N_18
REMARK    5  A    between atoms: N_18  and  C_19
REMARK    6  A    between atoms: C_19  and  S_20
REMARK                            x       y       z     vdW  Elec       q    Type
REMARK                         _______ _______ _______ _____ _____    ______ ____
ROOT
ATOM      1  F   UNL     1      11.305   0.577  24.700  0.00  0.00    +0.000 F 
ATOM      2  C   UNL     1      10.014   0.127  24.866  0.00  0.00    +0.000 C 
ATOM      3  C   UNL     1       9.887  -1.270  24.232  0.00  0.00    +0.000 C 
ATOM      4  N   UNL     1       8.607  -1.799  24.583  0.00  0.00    +0.000 NA
ATOM      5  C   UNL     1       7.555  -0.994  24.143  0.00  0.00    +0.000 C 
ATOM      6  N   UNL     1       7.888   0.321  23.710  0.00  0.00    +0.000 N 
ATOM      7  C   UNL     1       9.062   1.046  24.087  0.00  0.00    +0.000 C 
ATOM      8  C   UNL     1       9.809   1.618  22.901  0.00  0.00    +0.000 C 
ATOM      9  C   UNL     1       9.687   0.674  21.688  0.00  0.00    +0.000 C 
ATOM     10  C   UNL     1       8.103   0.778  21.373  0.00  0.00    +0.000 C 
ATOM     11  C   UNL     1       7.267   0.718  22.464  0.00  0.00    +0.000 C 
ATOM     12  C   UNL     1       7.918   0.079  19.999  0.00  0.00    +0.000 C 
ENDROOT
BRANCH   4  13
ATOM     13  C   UNL     1       8.559  -1.859  26.036  0.00  0.00    +0.000 C 
BRANCH  13  14
ATOM     14  C   UNL     1       7.370  -2.733  26.430  0.00  0.00    +0.000 C 
BRANCH  14  15
ATOM     15  S   UNL     1       7.888  -4.442  26.449  0.00  0.00    +0.000 S 
ATOM     16  O   UNL     1       9.306  -4.454  26.682  0.00  0.00    +0.000 OA
ATOM     17  O   UNL     1       7.448  -5.031  25.216  0.00  0.00    +0.000 OA
ATOM     18  N   UNL     1       7.142  -5.210  27.699  0.00  0.00    +0.000 NA
ENDBRANCH  14  15
ENDBRANCH  13  14
ENDBRANCH   4  13
BRANCH  11  19
ATOM     19  N   UNL     1       6.371   1.723  22.936  0.00  0.00    +0.000 NA
BRANCH  19  20
ATOM     20  C   UNL     1       6.110   2.816  22.020  0.00  0.00    +0.000 C 
BRANCH  20  21
ATOM     21  S   UNL     1       6.512   4.358  22.818  0.00  0.00    +0.000 S 
ATOM     22  O   UNL     1       7.069   4.040  24.106  0.00  0.00    +0.000 OA
ATOM     23  O   UNL     1       7.368   5.094  21.931  0.00  0.00    +0.000 OA
ATOM     24  N   UNL     1       5.127   5.221  23.048  0.00  0.00    +0.000 NA
ENDBRANCH  20  21
ENDBRANCH  19  20
ENDBRANCH  11  19
TORSDOF 6
ENDMDL
MODEL 7
REMARK VINA RESULT:      -6.3      2.491      2.960
REMARK  Name = 
REMARK  6 active torsions:
REMARK  status: ('A' for Active; 'I' for Inactive)
REMARK    1  A    between atoms: N_4  and  C_5
REMARK    2  A    between atoms: C_5  and  C_6
REMARK    3  A    between atoms: C_6  and  S_7
REMARK    4  A    between atoms: C_17  and  N_18
REMARK    5  A    between atoms: N_18  and  C_19
REMARK    6  A    between atoms: C_19  and  S_20
REMARK                            x       y       z     vdW  Elec       q    Type
REMARK                         _______ _______ _______ _____ _____    ______ ____
ROOT
ATOM      1  F   UNL     1      10.332  -1.129  24.216  0.00  0.00    +0.000 F 
ATOM      2  C   UNL     1       9.236  -1.520  23.479  0.00  0.00    +0.000 C 
ATOM      3  C   UNL     1       8.113  -0.484  23.666  0.00  0.00    +0.000 C 
ATOM      4  N   UNL     1       7.064  -0.801  22.749  0.00  0.00    +0.000 NA
ATOM      5  C   UNL     1       6.548  -2.083  22.946  0.00  0.00    +0.000 C 
ATOM      6  N   UNL     1       7.305  -2.962  23.773  0.00  0.00    +0.000 N 
ATOM      7  C   UNL     1       8.704  -2.845  24.044  0.00  0.00    +0.000 C 
ATOM      8  C   UNL     1       9.025  -2.901  25.523  0.00  0.00    +0.000 C 
ATOM      9  C   UNL     1       7.894  -2.245  26.339  0.00  0.00    +0.000 C 
ATOM     10  C   UNL     1       6.675  -3.270  26.058  0.00  0.00    +0.000 C 
ATOM     11  C   UNL     1       6.523  -3.683  24.755  0.00  0.00    +0.000 C 
ATOM     12  C   UNL     1       5.560  -2.853  27.055  0.00  0.00    +0.000 C 
ENDROOT
BRANCH   4  13
ATOM     13  C   UNL     1       7.638  -0.739  21.413  0.00  0.00    +0.000 C 
BRANCH  13  14
ATOM     14  C   UNL     1       7.213   0.584  20.782  0.00  0.00    +0.000 C 
BRANCH  14  15
ATOM     15  S   UNL     1       6.413   0.250  19.220  0.00  0.00    +0.000 S 
ATOM     16  O   UNL     1       5.776  -1.033  19.335  0.00  0.00    +0.000 OA
ATOM     17  O   UNL     1       7.415   0.366  18.198  0.00  0.00    +0.000 OA
ATOM     18  N   UNL     1       5.256   1.392  18.960  0.00  0.00    +0.000 NA
ENDBRANCH  14  15
ENDBRANCH  13  14
ENDBRANCH   4  13
BRANCH  11  19
ATOM     19  N   UNL     1       6.629  -5.009  24.239  0.00  0.00    +0.000 NA
BRANCH  19  20
ATOM     20  C   UNL     1       5.408  -5.577  23.704  0.00  0.00    +0.000 C 
BRANCH  20  21
ATOM     21  S   UNL     1       4.503  -6.370  25.019  0.00  0.00    +0.000 S 
ATOM     22  O   UNL     1       3.469  -5.460  25.435  0.00  0.00    +0.000 OA
ATOM     23  O   UNL     1       4.056  -7.644  24.529  0.00  0.00    +0.000 OA
ATOM     24  N   UNL     1       5.517  -6.622  26.292  0.00  0.00    +0.000 NA
ENDBRANCH  20  21
ENDBRANCH  19  20
ENDBRANCH  11  19
TORSDOF 6
ENDMDL
MODEL 8
REMARK VINA RESULT:      -6.2      1.583      1.910
REMARK  Name = 
REMARK  6 active torsions:
REMARK  status: ('A' for Active; 'I' for Inactive)
REMARK    1  A    between atoms: N_4  and  C_5
REMARK    2  A    between atoms: C_5  and  C_6
REMARK    3  A    between atoms: C_6  and  S_7
REMARK    4  A    between atoms: C_17  and  N_18
REMARK    5  A    between atoms: N_18  and  C_19
REMARK    6  A    between atoms: C_19  and  S_20
REMARK                            x       y       z     vdW  Elec       q    Type
REMARK                         _______ _______ _______ _____ _____    ______ ____
ROOT
ATOM      1  F   UNL     1      10.871  -0.753  22.756  0.00  0.00    +0.000 F 
ATOM      2  C   UNL     1       9.558  -0.553  22.392  0.00  0.00    +0.000 C 
ATOM      3  C   UNL     1       9.042   0.730  23.067  0.00  0.00    +0.000 C 
ATOM      4  N   UNL     1       7.752   1.025  22.527  0.00  0.00    +0.000 NA
ATOM      5  C   UNL     1       6.835  -0.007  22.734  0.00  0.00    +0.000 C 
ATOM      6  N   UNL     1       7.363  -1.264  23.148  0.00  0.00    +0.000 N 
ATOM      7  C   UNL     1       8.707  -1.706  22.943  0.00  0.00    +0.000 C 
ATOM      8  C   UNL     1       9.359  -2.222  24.210  0.00  0.00    +0.000 C 
ATOM      9  C   UNL     1       8.850  -1.430  25.431  0.00  0.00    +0.000 C 
ATOM     10  C   UNL     1       7.294  -1.872  25.459  0.00  0.00    +0.000 C 
ATOM     11  C   UNL     1       6.648  -1.882  24.245  0.00  0.00    +0.000 C 
ATOM     12  C   UNL     1       6.750  -1.346  26.815  0.00  0.00    +0.000 C 
ENDROOT
BRANCH   4  13
ATOM     13  C   UNL     1       7.925   1.201  21.093  0.00  0.00    +0.000 C 
BRANCH  13  14
ATOM     14  C   UNL     1       6.538   1.310  20.464  0.00  0.00    +0.000 C 
BRANCH  14  15
ATOM     15  S   UNL     1       6.462   0.233  19.041  0.00  0.00    +0.000 S 
ATOM     16  O   UNL     1       7.813   0.004  18.608  0.00  0.00    +0.000 OA
ATOM     17  O   UNL     1       5.591   0.856  18.084  0.00  0.00    +0.000 OA
ATOM     18  N   UNL     1       5.803  -1.205  19.498  0.00  0.00    +0.000 NA
ENDBRANCH  14  15
ENDBRANCH  13  14
ENDBRANCH   4  13
BRANCH  11  19
ATOM     19  N   UNL     1       6.069  -2.999  23.572  0.00  0.00    +0.000 NA
BRANCH  19  20
ATOM     20  C   UNL     1       6.377  -4.301  24.129  0.00  0.00    +0.000 C 
BRANCH  20  21
ATOM     21  S   UNL     1       6.161  -5.545  22.871  0.00  0.00    +0.000 S 
ATOM     22  O   UNL     1       7.472  -6.016  22.508  0.00  0.00    +0.000 OA
ATOM     23  O   UNL     1       5.262  -6.536  23.391  0.00  0.00    +0.000 OA
ATOM     24  N   UNL     1       5.472  -4.853  21.544  0.00  0.00    +0.000 NA
ENDBRANCH  20  21
ENDBRANCH  19  20
ENDBRANCH  11  19
TORSDOF 6
ENDMDL
MODEL 9
REMARK VINA RESULT:      -6.1      3.387      6.423
REMARK  Name = 
REMARK  6 active torsions:
REMARK  status: ('A' for Active; 'I' for Inactive)
REMARK    1  A    between atoms: N_4  and  C_5
REMARK    2  A    between atoms: C_5  and  C_6
REMARK    3  A    between atoms: C_6  and  S_7
REMARK    4  A    between atoms: C_17  and  N_18
REMARK    5  A    between atoms: N_18  and  C_19
REMARK    6  A    between atoms: C_19  and  S_20
REMARK                            x       y       z     vdW  Elec       q    Type
REMARK                         _______ _______ _______ _____ _____    ______ ____
ROOT
ATOM      1  F   UNL     1      10.258  -3.010  23.849  0.00  0.00    +0.000 F 
ATOM      2  C   UNL     1       8.920  -2.718  23.994  0.00  0.00    +0.000 C 
ATOM      3  C   UNL     1       8.130  -3.427  22.879  0.00  0.00    +0.000 C 
ATOM      4  N   UNL     1       6.738  -3.274  23.159  0.00  0.00    +0.000 NA
ATOM      5  C   UNL     1       6.347  -1.935  23.222  0.00  0.00    +0.000 C 
ATOM      6  N   UNL     1       7.386  -0.964  23.309  0.00  0.00    +0.000 N 
ATOM      7  C   UNL     1       8.713  -1.212  23.782  0.00  0.00    +0.000 C 
ATOM      8  C   UNL     1       9.781  -0.708  22.834  0.00  0.00    +0.000 C 
ATOM      9  C   UNL     1       9.307  -0.850  21.374  0.00  0.00    +0.000 C 
ATOM     10  C   UNL     1       8.080   0.205  21.343  0.00  0.00    +0.000 C 
ATOM     11  C   UNL     1       7.226   0.167  22.420  0.00  0.00    +0.000 C 
ATOM     12  C   UNL     1       7.705   0.343  19.842  0.00  0.00    +0.000 C 
ENDROOT
BRANCH   4  13
ATOM     13  C   UNL     1       6.499  -3.881  24.459  0.00  0.00    +0.000 C 
BRANCH  13  14
ATOM     14  C   UNL     1       6.399  -5.392  24.259  0.00  0.00    +0.000 C 
BRANCH  14  15
ATOM     15  S   UNL     1       4.675  -5.851  24.172  0.00  0.00    +0.000 S 
ATOM     16  O   UNL     1       3.953  -4.960  25.038  0.00  0.00    +0.000 OA
ATOM     17  O   UNL     1       4.592  -7.248  24.497  0.00  0.00    +0.000 OA
ATOM     18  N   UNL     1       4.143  -5.635  22.629  0.00  0.00    +0.000 NA
ENDBRANCH  14  15
ENDBRANCH  13  14
ENDBRANCH   4  13
BRANCH  11  19
ATOM     19  N   UNL     1       6.969   1.201  23.370  0.00  0.00    +0.000 NA
BRANCH  19  20
ATOM     20  C   UNL     1       7.441   2.522  23.007  0.00  0.00    +0.000 C 
BRANCH  20  21
ATOM     21  S   UNL     1       8.913   2.897  23.939  0.00  0.00    +0.000 S 
ATOM     22  O   UNL     1       8.924   2.030  25.087  0.00  0.00    +0.000 OA
ATOM     23  O   UNL     1      10.033   2.771  23.049  0.00  0.00    +0.000 OA
ATOM     24  N   UNL     1       8.832   4.456  24.466  0.00  0.00    +0.000 NA
ENDBRANCH  20  21
ENDBRANCH  19  20
ENDBRANCH  11  19
TORSDOF 6
ENDMDL
