MODEL 1
REMARK VINA RESULT:      -6.3      0.000      0.000
REMARK  Name = 
REMARK  2 active torsions:
REMARK  status: ('A' for Active; 'I' for Inactive)
REMARK    1  A    between atoms: N_4  and  C_5
REMARK    2  A    between atoms: C_6  and  C_11
REMARK                            x       y       z     vdW  Elec       q    Type
REMARK                         _______ _______ _______ _____ _____    ______ ____
ROOT
ATOM      1  C   UNL     1       7.475  -4.551  23.425  0.00  0.00    +0.000 C 
ATOM      2  C   UNL     1       7.468  -3.604  22.349  0.00  0.00    +0.000 C 
ATOM      3  C   UNL     1       6.008  -3.515  21.884  0.00  0.00    +0.000 C 
ATOM      4  C   UNL     1       5.239  -4.547  22.565  0.00  0.00    +0.000 C 
ATOM      5  C   UNL     1       6.112  -5.423  23.491  0.00  0.00    +0.000 C 
ATOM      6  O   UNL     1       3.937  -4.379  22.923  0.00  0.00    +0.000 OA
ENDROOT
BRANCH   2   7
ATOM      7  C   UNL     1       7.837  -2.131  22.755  0.00  0.00    +0.000 C 
ATOM      8  C   UNL     1       9.251  -1.782  22.738  0.00  0.00    +0.000 C 
ATOM      9  O   UNL     1      10.010  -1.536  23.912  0.00  0.00    +0.000 OA
ATOM     10  C   UNL     1       9.523  -0.561  21.708  0.00  0.00    +0.000 C 
ATOM     11  C   UNL     1       8.166  -0.542  20.983  0.00  0.00    +0.000 C 
ATOM     12  C   UNL     1       7.147  -1.331  21.622  0.00  0.00    +0.000 C 
ATOM     13  O   UNL     1       8.086  -0.015  19.754  0.00  0.00    +0.000 OA
ENDBRANCH   2   7
BRANCH   1  17
ATOM     14  O   UNL     1      10.322  -4.807  24.895  0.00  0.00    +0.000 OA
ATOM     15  C   UNL     1       9.001  -4.853  24.958  0.00  0.00    +0.000 C 
ATOM     16  O   UNL     1       8.350  -4.108  25.650  0.00  0.00    +0.000 OA
ATOM     17  N   UNL     1       8.496  -5.429  23.826  0.00  0.00    +0.000 NA
ENDBRANCH   1  17
TORSDOF 2
ENDMDL
MODEL 2
REMARK VINA RESULT:      -6.1      2.211      5.864
REMARK  Name = 
REMARK  2 active torsions:
REMARK  status: ('A' for Active; 'I' for Inactive)
REMARK    1  A    between atoms: N_4  and  C_5
REMARK    2  A    between atoms: C_6  and  C_11
REMARK                            x       y       z     vdW  Elec       q    Type
REMARK                         _______ _______ _______ _____ _____    ______ ____
ROOT
ATOM      1  C   UNL     1       8.819  -0.271  21.545  0.00  0.00    +0.000 C 
ATOM      2  C   UNL     1       9.143  -1.480  22.242  0.00  0.00    +0.000 C 
ATOM      3  C   UNL     1      10.098  -1.066  23.370  0.00  0.00    +0.000 C 
ATOM      4  C   UNL     1      10.457   0.334  23.185  0.00  0.00    +0.000 C 
ATOM      5  C   UNL     1       9.819   0.946  21.919  0.00  0.00    +0.000 C 
ATOM      6  O   UNL     1      10.693   1.177  24.226  0.00  0.00    +0.000 OA
ENDROOT
BRANCH   2   7
ATOM      7  C   UNL     1       7.938  -2.165  22.986  0.00  0.00    +0.000 C 
ATOM      8  C   UNL     1       7.114  -3.071  22.199  0.00  0.00    +0.000 C 
ATOM      9  O   UNL     1       5.780  -2.779  21.812  0.00  0.00    +0.000 OA
ATOM     10  C   UNL     1       7.127  -4.558  22.845  0.00  0.00    +0.000 C 
ATOM     11  C   UNL     1       8.282  -4.381  23.846  0.00  0.00    +0.000 C 
ATOM     12  C   UNL     1       8.688  -3.015  24.041  0.00  0.00    +0.000 C 
ATOM     13  O   UNL     1       8.951  -5.460  24.272  0.00  0.00    +0.000 OA
ENDBRANCH   2   7
BRANCH   1  17
ATOM     14  O   UNL     1       6.529  -0.515  19.301  0.00  0.00    +0.000 OA
ATOM     15  C   UNL     1       7.171   0.218  20.197  0.00  0.00    +0.000 C 
ATOM     16  O   UNL     1       6.626   0.707  21.157  0.00  0.00    +0.000 OA
ATOM     17  N   UNL     1       8.503  -0.088  20.188  0.00  0.00    +0.000 NA
ENDBRANCH   1  17
TORSDOF 2
ENDMDL
MODEL 3
REMARK VINA RESULT:      -6.1      1.848      4.671
REMARK  Name = 
REMARK  2 active torsions:
REMARK  status: ('A' for Active; 'I' for Inactive)
REMARK    1  A    between atoms: N_4  and  C_5
REMARK    2  A    between atoms: C_6  and  C_11
REMARK                            x       y       z     vdW  Elec       q    Type
REMARK                         _______ _______ _______ _____ _____    ______ ____
ROOT
ATOM      1  C   UNL     1       8.380  -0.508  22.050  0.00  0.00    +0.000 C 
ATOM      2  C   UNL     1       7.165  -1.266  21.983  0.00  0.00    +0.000 C 
ATOM      3  C   UNL     1       6.604  -1.027  20.575  0.00  0.00    +0.000 C 
ATOM      4  C   UNL     1       7.397   0.010  19.928  0.00  0.00    +0.000 C 
ATOM      5  C   UNL     1       8.504   0.569  20.847  0.00  0.00    +0.000 C 
ATOM      6  O   UNL     1       7.642   0.021  18.590  0.00  0.00    +0.000 OA
ENDROOT
BRANCH   2   7
ATOM      7  C   UNL     1       7.347  -2.826  22.069  0.00  0.00    +0.000 C 
ATOM      8  C   UNL     1       7.567  -3.386  23.394  0.00  0.00    +0.000 C 
ATOM      9  O   UNL     1       8.806  -3.937  23.815  0.00  0.00    +0.000 OA
ATOM     10  C   UNL     1       6.402  -4.452  23.762  0.00  0.00    +0.000 C 
ATOM     11  C   UNL     1       5.413  -4.138  22.626  0.00  0.00    +0.000 C 
ATOM     12  C   UNL     1       5.958  -3.311  21.583  0.00  0.00    +0.000 C 
ATOM     13  O   UNL     1       4.117  -4.439  22.783  0.00  0.00    +0.000 OA
ENDBRANCH   2   7
BRANCH   1  17
ATOM     14  O   UNL     1      10.097  -0.974  24.727  0.00  0.00    +0.000 OA
ATOM     15  C   UNL     1      10.059  -0.689  23.435  0.00  0.00    +0.000 C 
ATOM     16  O   UNL     1      10.585  -1.378  22.595  0.00  0.00    +0.000 OA
ATOM     17  N   UNL     1       8.981   0.106  23.161  0.00  0.00    +0.000 NA
ENDBRANCH   1  17
TORSDOF 2
ENDMDL
MODEL 4
REMARK VINA RESULT:      -5.9      3.934      5.999
REMARK  Name = 
REMARK  2 active torsions:
REMARK  status: ('A' for Active; 'I' for Inactive)
REMARK    1  A    between atoms: N_4  and  C_5
REMARK    2  A    between atoms: C_6  and  C_11
REMARK                            x       y       z     vdW  Elec       q    Type
REMARK                         _______ _______ _______ _____ _____    ______ ____
ROOT
ATOM      1  C   UNL     1       6.891   1.558  21.552  0.00  0.00    +0.000 C 
ATOM      2  C   UNL     1       7.584   0.335  21.833  0.00  0.00    +0.000 C 
ATOM      3  C   UNL     1       7.748  -0.369  20.480  0.00  0.00    +0.000 C 
ATOM      4  C   UNL     1       6.984   0.362  19.479  0.00  0.00    +0.000 C 
ATOM      5  C   UNL     1       6.224   1.566  20.076  0.00  0.00    +0.000 C 
ATOM      6  O   UNL     1       7.379   0.465  18.181  0.00  0.00    +0.000 OA
ENDROOT
BRANCH   2   7
ATOM      7  C   UNL     1       9.054   0.508  22.363  0.00  0.00    +0.000 C 
ATOM      8  C   UNL     1       9.211   0.750  23.790  0.00  0.00    +0.000 C 
ATOM      9  O   UNL     1       9.631   1.993  24.332  0.00  0.00    +0.000 OA
ATOM     10  C   UNL     1      10.112  -0.415  24.468  0.00  0.00    +0.000 C 
ATOM     11  C   UNL     1      10.127  -1.423  23.306  0.00  0.00    +0.000 C 
ATOM     12  C   UNL     1       9.643  -0.892  22.060  0.00  0.00    +0.000 C 
ATOM     13  O   UNL     1      10.356  -2.717  23.564  0.00  0.00    +0.000 OA
ENDBRANCH   2   7
BRANCH   1  17
ATOM     14  O   UNL     1       6.613   3.529  24.077  0.00  0.00    +0.000 OA
ATOM     15  C   UNL     1       6.727   3.365  22.768  0.00  0.00    +0.000 C 
ATOM     16  O   UNL     1       7.661   3.791  22.132  0.00  0.00    +0.000 OA
ATOM     17  N   UNL     1       6.001   2.279  22.365  0.00  0.00    +0.000 NA
ENDBRANCH   1  17
TORSDOF 2
ENDMDL
MODEL 5
REMARK VINA RESULT:      -5.8      1.954      4.507
REMARK  Name = 
REMARK  2 active torsions:
REMARK  status: ('A' for Active; 'I' for Inactive)
REMARK    1  A    between atoms: N_4  and  C_5
REMARK    2  A    between atoms: C_6  and  C_11
REMARK                            x       y       z     vdW  Elec       q    Type
REMARK                         _______ _______ _______ _____ _____    ______ ____
ROOT
ATOM      1  C   UNL     1       7.702  -1.899  22.671  0.00  0.00    +0.000 C 
ATOM      2  C   UNL     1       6.982  -2.908  23.391  0.00  0.00    +0.000 C 
ATOM      3  C   UNL     1       5.876  -3.386  22.441  0.00  0.00    +0.000 C 
ATOM      4  C   UNL     1       5.857  -2.516  21.274  0.00  0.00    +0.000 C 
ATOM      5  C   UNL     1       6.899  -1.380  21.364  0.00  0.00    +0.000 C 
ATOM      6  O   UNL     1       5.538  -2.962  20.029  0.00  0.00    +0.000 OA
ENDROOT
BRANCH   2   7
ATOM      7  C   UNL     1       7.803  -4.209  23.717  0.00  0.00    +0.000 C 
ATOM      8  C   UNL     1       8.802  -4.105  24.771  0.00  0.00    +0.000 C 
ATOM      9  O   UNL     1      10.201  -4.143  24.530  0.00  0.00    +0.000 OA
ATOM     10  C   UNL     1       8.478  -5.148  25.968  0.00  0.00    +0.000 C 
ATOM     11  C   UNL     1       7.054  -5.560  25.557  0.00  0.00    +0.000 C 
ATOM     12  C   UNL     1       6.680  -5.144  24.231  0.00  0.00    +0.000 C 
ATOM     13  O   UNL     1       6.218  -6.046  26.484  0.00  0.00    +0.000 OA
ENDBRANCH   2   7
BRANCH   1  17
ATOM     14  O   UNL     1      10.392  -0.819  24.061  0.00  0.00    +0.000 OA
ATOM     15  C   UNL     1       9.698  -1.059  22.960  0.00  0.00    +0.000 C 
ATOM     16  O   UNL     1      10.066  -1.830  22.107  0.00  0.00    +0.000 OA
ATOM     17  N   UNL     1       8.377  -0.770  23.165  0.00  0.00    +0.000 NA
ENDBRANCH   1  17
TORSDOF 2
ENDMDL
MODEL 6
REMARK VINA RESULT:      -5.8      2.894      4.451
REMARK  Name = 
REMARK  2 active torsions:
REMARK  status: ('A' for Active; 'I' for Inactive)
REMARK    1  A    between atoms: N_4  and  C_5
REMARK    2  A    between atoms: C_6  and  C_11
REMARK                            x       y       z     vdW  Elec       q    Type
REMARK                         _______ _______ _______ _____ _____    ______ ____
ROOT
ATOM      1  C   UNL     1       7.581  -0.914  21.567  0.00  0.00    +0.000 C 
ATOM      2  C   UNL     1       8.477  -0.119  20.781  0.00  0.00    +0.000 C 
ATOM      3  C   UNL     1       7.687   0.281  19.528  0.00  0.00    +0.000 C 
ATOM      4  C   UNL     1       6.424  -0.445  19.522  0.00  0.00    +0.000 C 
ATOM      5  C   UNL     1       6.288  -1.405  20.725  0.00  0.00    +0.000 C 
ATOM      6  O   UNL     1       5.275   0.081  19.020  0.00  0.00    +0.000 OA
ENDROOT
BRANCH   2   7
ATOM      7  C   UNL     1       8.897   1.251  21.429  0.00  0.00    +0.000 C 
ATOM      8  C   UNL     1       7.941   1.864  22.340  0.00  0.00    +0.000 C 
ATOM      9  O   UNL     1       7.218   3.047  22.036  0.00  0.00    +0.000 OA
ATOM     10  C   UNL     1       8.595   2.049  23.812  0.00  0.00    +0.000 C 
ATOM     11  C   UNL     1       9.857   1.187  23.631  0.00  0.00    +0.000 C 
ATOM     12  C   UNL     1      10.125   0.816  22.267  0.00  0.00    +0.000 C 
ATOM     13  O   UNL     1      10.460   0.673  24.710  0.00  0.00    +0.000 OA
ENDBRANCH   2   7
BRANCH   1  17
ATOM     14  O   UNL     1       8.213  -1.727  24.613  0.00  0.00    +0.000 OA
ATOM     15  C   UNL     1       7.333  -1.568  23.637  0.00  0.00    +0.000 C 
ATOM     16  O   UNL     1       6.418  -0.783  23.699  0.00  0.00    +0.000 OA
ATOM     17  N   UNL     1       7.873  -1.970  22.447  0.00  0.00    +0.000 NA
ENDBRANCH   1  17
TORSDOF 2
ENDMDL
MODEL 7
REMARK VINA RESULT:      -5.8      1.588      3.707
REMARK  Name = 
REMARK  2 active torsions:
REMARK  status: ('A' for Active; 'I' for Inactive)
REMARK    1  A    between atoms: N_4  and  C_5
REMARK    2  A    between atoms: C_6  and  C_11
REMARK                            x       y       z     vdW  Elec       q    Type
REMARK                         _______ _______ _______ _____ _____    ______ ____
ROOT
ATOM      1  C   UNL     1       7.170  -3.911  23.907  0.00  0.00    +0.000 C 
ATOM      2  C   UNL     1       7.817  -2.666  23.616  0.00  0.00    +0.000 C 
ATOM      3  C   UNL     1       9.257  -2.818  24.123  0.00  0.00    +0.000 C 
ATOM      4  C   UNL     1       9.360  -4.067  24.865  0.00  0.00    +0.000 C 
ATOM      5  C   UNL     1       8.013  -4.817  24.951  0.00  0.00    +0.000 C 
ATOM      6  O   UNL     1      10.490  -4.825  24.877  0.00  0.00    +0.000 OA
ENDROOT
BRANCH   2   7
ATOM      7  C   UNL     1       7.976  -2.338  22.086  0.00  0.00    +0.000 C 
ATOM      8  C   UNL     1       6.986  -1.444  21.503  0.00  0.00    +0.000 C 
ATOM      9  O   UNL     1       5.997  -1.868  20.577  0.00  0.00    +0.000 OA
ATOM     10  C   UNL     1       7.702  -0.124  20.891  0.00  0.00    +0.000 C 
ATOM     11  C   UNL     1       9.104  -0.299  21.501  0.00  0.00    +0.000 C 
ATOM     12  C   UNL     1       9.335  -1.594  22.084  0.00  0.00    +0.000 C 
ATOM     13  O   UNL     1       9.893   0.773  21.650  0.00  0.00    +0.000 OA
ENDBRANCH   2   7
BRANCH   1  17
ATOM     14  O   UNL     1       4.208  -4.243  22.703  0.00  0.00    +0.000 OA
ATOM     15  C   UNL     1       5.347  -4.795  23.091  0.00  0.00    +0.000 C 
ATOM     16  O   UNL     1       6.066  -5.412  22.343  0.00  0.00    +0.000 OA
ATOM     17  N   UNL     1       5.820  -4.160  24.206  0.00  0.00    +0.000 NA
ENDBRANCH   1  17
TORSDOF 2
ENDMDL
MODEL 8
REMARK VINA RESULT:      -5.5      2.867      4.634
REMARK  Name = 
REMARK  2 active torsions:
REMARK  status: ('A' for Active; 'I' for Inactive)
REMARK    1  A    between atoms: N_4  and  C_5
REMARK    2  A    between atoms: C_6  and  C_11
REMARK                            x       y       z     vdW  Elec       q    Type
REMARK                         _______ _______ _______ _____ _____    ______ ____
ROOT
ATOM      1  C   UNL     1       5.178  -5.176  25.476  0.00  0.00    +0.000 C 
ATOM      2  C   UNL     1       6.007  -4.014  25.607  0.00  0.00    +0.000 C 
ATOM      3  C   UNL     1       6.820  -4.227  26.890  0.00  0.00    +0.000 C 
ATOM      4  C   UNL     1       6.309  -5.407  27.575  0.00  0.00    +0.000 C 
ATOM      5  C   UNL     1       5.108  -6.043  26.842  0.00  0.00    +0.000 C 
ATOM      6  O   UNL     1       7.106  -6.243  28.294  0.00  0.00    +0.000 OA
ENDROOT
BRANCH   2   7
ATOM      7  C   UNL     1       7.093  -3.841  24.483  0.00  0.00    +0.000 C 
ATOM      8  C   UNL     1       7.596  -5.060  23.865  0.00  0.00    +0.000 C 
ATOM      9  O   UNL     1       8.912  -5.553  24.064  0.00  0.00    +0.000 OA
ATOM     10  C   UNL     1       7.308  -5.049  22.270  0.00  0.00    +0.000 C 
ATOM     11  C   UNL     1       6.340  -3.855  22.201  0.00  0.00    +0.000 C 
ATOM     12  C   UNL     1       6.285  -3.073  23.408  0.00  0.00    +0.000 C 
ATOM     13  O   UNL     1       5.489  -3.759  21.172  0.00  0.00    +0.000 OA
ENDBRANCH   2   7
BRANCH   1  17
ATOM     14  O   UNL     1       3.539  -5.862  22.797  0.00  0.00    +0.000 OA
ATOM     15  C   UNL     1       4.061  -6.263  23.945  0.00  0.00    +0.000 C 
ATOM     16  O   UNL     1       4.924  -7.104  24.016  0.00  0.00    +0.000 OA
ATOM     17  N   UNL     1       3.903  -5.294  24.897  0.00  0.00    +0.000 NA
ENDBRANCH   1  17
TORSDOF 2
ENDMDL
MODEL 9
REMARK VINA RESULT:      -5.5      2.740      5.570
REMARK  Name = 
REMARK  2 active torsions:
REMARK  status: ('A' for Active; 'I' for Inactive)
REMARK    1  A    between atoms: N_4  and  C_5
REMARK    2  A    between atoms: C_6  and  C_11
REMARK                            x       y       z     vdW  Elec       q    Type
REMARK                         _______ _______ _______ _____ _____    ______ ____
ROOT
ATOM      1  C   UNL     1       8.847  -0.195  21.713  0.00  0.00    +0.000 C 
ATOM      2  C   UNL     1       9.447  -1.257  22.465  0.00  0.00    +0.000 C 
ATOM      3  C   UNL     1      10.405  -0.576  23.452  0.00  0.00    +0.000 C 
ATOM      4  C   UNL     1      10.484   0.840  23.122  0.00  0.00    +0.000 C 
ATOM      5  C   UNL     1       9.636   1.209  21.885  0.00  0.00    +0.000 C 
ATOM      6  O   UNL     1      10.652   1.807  24.064  0.00  0.00    +0.000 OA
ENDROOT
BRANCH   2   7
ATOM      7  C   UNL     1       8.459  -2.068  23.380  0.00  0.00    +0.000 C 
ATOM      8  C   UNL     1       7.338  -1.332  23.946  0.00  0.00    +0.000 C 
ATOM      9  O   UNL     1       7.224  -1.017  25.326  0.00  0.00    +0.000 OA
ATOM     10  C   UNL     1       5.931  -1.982  23.470  0.00  0.00    +0.000 C 
ATOM     11  C   UNL     1       6.454  -2.918  22.366  0.00  0.00    +0.000 C 
ATOM     12  C   UNL     1       7.883  -3.085  22.363  0.00  0.00    +0.000 C 
ATOM     13  O   UNL     1       5.623  -3.311  21.391  0.00  0.00    +0.000 OA
ENDBRANCH   2   7
BRANCH   1  17
ATOM     14  O   UNL     1       6.291  -0.571  19.799  0.00  0.00    +0.000 OA
ATOM     15  C   UNL     1       7.091   0.230  20.485  0.00  0.00    +0.000 C 
ATOM     16  O   UNL     1       6.706   0.916  21.401  0.00  0.00    +0.000 OA
ATOM     17  N   UNL     1       8.385  -0.201  20.386  0.00  0.00    +0.000 NA
ENDBRANCH   1  17
TORSDOF 2
ENDMDL
