MODEL 1
REMARK VINA RESULT:      -6.0      0.000      0.000
REMARK  Name = 
REMARK  9 active torsions:
REMARK  status: ('A' for Active; 'I' for Inactive)
REMARK    1  A    between atoms: N_2  and  C_3
REMARK    2  A    between atoms: C_3  and  C_4
REMARK    3  A    between atoms: C_4  and  C_5
REMARK    4  A    between atoms: C_4  and  C_15
REMARK    5  A    between atoms: C_4  and  C_23
REMARK    6  A    between atoms: C_10  and  C_11
REMARK    7  A    between atoms: C_15  and  C_16
REMARK    8  A    between atoms: C_17  and  C_18
REMARK    9  A    between atoms: C_18  and  C_19
REMARK                            x       y       z     vdW  Elec       q    Type
REMARK                         _______ _______ _______ _____ _____    ______ ____
ROOT
ATOM      1  C   UNL     1       7.726  -3.047  23.803  0.00  0.00    +0.000 C 
ENDROOT
BRANCH   1   2
ATOM      2  C   UNL     1       6.909  -4.303  23.767  0.00  0.00    +0.000 C 
ATOM      3  C   UNL     1       6.301  -4.397  22.327  0.00  0.00    +0.000 C 
ATOM      4  C   UNL     1       6.948  -5.536  21.592  0.00  0.00    +0.000 C 
ATOM      5  N   UNL     1       4.885  -4.567  22.433  0.00  0.00    +0.000 NA
ATOM      6  C   UNL     1       4.555  -4.920  23.803  0.00  0.00    +0.000 C 
ATOM      7  C   UNL     1       5.678  -4.256  24.688  0.00  0.00    +0.000 C 
ATOM      8  C   UNL     1       4.753  -6.439  23.941  0.00  0.00    +0.000 C 
BRANCH   7   9
ATOM      9  C   UNL     1       5.891  -5.220  25.833  0.00  0.00    +0.000 C 
ATOM     10  C   UNL     1       6.541  -4.856  27.017  0.00  0.00    +0.000 C 
ATOM     11  N   UNL     1       7.277  -5.760  27.732  0.00  0.00    +0.000 NA
ENDBRANCH   7   9
ENDBRANCH   1   2
BRANCH   1  12
ATOM     12  C   UNL     1       7.764  -2.364  22.444  0.00  0.00    +0.000 C 
ATOM     13  C   UNL     1       9.194  -1.902  22.161  0.00  0.00    +0.000 C 
ENDBRANCH   1  12
BRANCH   1  14
ATOM     14  C   UNL     1       9.174  -3.473  24.162  0.00  0.00    +0.000 C 
BRANCH  14  16
ATOM     15  C   UNL     1      10.027  -5.098  25.582  0.00  0.00    +0.000 C 
ATOM     16  N   UNL     1       9.204  -4.878  24.413  0.00  0.00    +0.000 NA
ENDBRANCH  14  16
ENDBRANCH   1  14
BRANCH   1  17
ATOM     17  C   UNL     1       7.254  -2.068  24.856  0.00  0.00    +0.000 C 
BRANCH  17  18
ATOM     18  C   UNL     1       8.511  -1.590  25.630  0.00  0.00    +0.000 C 
ATOM     19  C   UNL     1       9.064  -0.370  25.647  0.00  0.00    +0.000 C 
ATOM     20  F   UNL     1       8.482  -2.217  26.880  0.00  0.00    +0.000 F 
BRANCH  19  21
ATOM     21  C   UNL     1      10.286   0.273  24.980  0.00  0.00    +0.000 C 
BRANCH  21  22
ATOM     22  C   UNL     1       9.801   1.469  24.200  0.00  0.00    +0.000 C 
ATOM     23  O   UNL     1       8.831   1.418  23.481  0.00  0.00    +0.000 OA
ATOM     24  O   UNL     1      10.886   2.182  23.874  0.00  0.00    +0.000 OA
ENDBRANCH  21  22
ENDBRANCH  19  21
ENDBRANCH  17  18
ENDBRANCH   1  17
TORSDOF 9
ENDMDL
MODEL 2
REMARK VINA RESULT:      -5.9      3.248      4.268
REMARK  Name = 
REMARK  9 active torsions:
REMARK  status: ('A' for Active; 'I' for Inactive)
REMARK    1  A    between atoms: N_2  and  C_3
REMARK    2  A    between atoms: C_3  and  C_4
REMARK    3  A    between atoms: C_4  and  C_5
REMARK    4  A    between atoms: C_4  and  C_15
REMARK    5  A    between atoms: C_4  and  C_23
REMARK    6  A    between atoms: C_10  and  C_11
REMARK    7  A    between atoms: C_15  and  C_16
REMARK    8  A    between atoms: C_17  and  C_18
REMARK    9  A    between atoms: C_18  and  C_19
REMARK                            x       y       z     vdW  Elec       q    Type
REMARK                         _______ _______ _______ _____ _____    ______ ____
ROOT
ATOM      1  C   UNL     1       8.020  -1.190  23.219  0.00  0.00    +0.000 C 
ENDROOT
BRANCH   1   2
ATOM      2  C   UNL     1       7.462  -2.567  23.025  0.00  0.00    +0.000 C 
ATOM      3  C   UNL     1       5.999  -2.383  22.499  0.00  0.00    +0.000 C 
ATOM      4  C   UNL     1       5.931  -2.828  21.065  0.00  0.00    +0.000 C 
ATOM      5  N   UNL     1       5.110  -3.133  23.332  0.00  0.00    +0.000 NA
ATOM      6  C   UNL     1       5.890  -4.047  24.149  0.00  0.00    +0.000 C 
ATOM      7  C   UNL     1       7.289  -3.346  24.340  0.00  0.00    +0.000 C 
ATOM      8  C   UNL     1       6.158  -5.299  23.298  0.00  0.00    +0.000 C 
BRANCH   7   9
ATOM      9  C   UNL     1       8.290  -4.480  24.368  0.00  0.00    +0.000 C 
ATOM     10  C   UNL     1       9.166  -4.688  25.438  0.00  0.00    +0.000 C 
ATOM     11  N   UNL     1      10.410  -5.225  25.246  0.00  0.00    +0.000 NA
ENDBRANCH   7   9
ENDBRANCH   1   2
BRANCH   1  12
ATOM     12  C   UNL     1       9.257  -0.960  22.364  0.00  0.00    +0.000 C 
ATOM     13  C   UNL     1      10.417  -1.772  22.941  0.00  0.00    +0.000 C 
ENDBRANCH   1  12
BRANCH   1  14
ATOM     14  C   UNL     1       8.447  -1.094  24.709  0.00  0.00    +0.000 C 
BRANCH  14  16
ATOM     15  C   UNL     1       7.450  -0.245  26.623  0.00  0.00    +0.000 C 
ATOM     16  N   UNL     1       7.887   0.086  25.285  0.00  0.00    +0.000 NA
ENDBRANCH  14  16
ENDBRANCH   1  14
BRANCH   1  17
ATOM     17  C   UNL     1       7.003  -0.101  22.957  0.00  0.00    +0.000 C 
BRANCH  17  18
ATOM     18  C   UNL     1       7.530   0.738  21.762  0.00  0.00    +0.000 C 
ATOM     19  C   UNL     1       7.082   0.761  20.500  0.00  0.00    +0.000 C 
ATOM     20  F   UNL     1       7.868   1.997  22.268  0.00  0.00    +0.000 F 
BRANCH  19  21
ATOM     21  C   UNL     1       7.555   0.157  19.173  0.00  0.00    +0.000 C 
BRANCH  21  22
ATOM     22  C   UNL     1       6.348   0.025  18.278  0.00  0.00    +0.000 C 
ATOM     23  O   UNL     1       6.000  -1.037  17.820  0.00  0.00    +0.000 OA
ATOM     24  O   UNL     1       6.266   1.161  17.573  0.00  0.00    +0.000 OA
ENDBRANCH  21  22
ENDBRANCH  19  21
ENDBRANCH  17  18
ENDBRANCH   1  17
TORSDOF 9
ENDMDL
MODEL 3
REMARK VINA RESULT:      -5.9      3.600      6.359
REMARK  Name = 
REMARK  9 active torsions:
REMARK  status: ('A' for Active; 'I' for Inactive)
REMARK    1  A    between atoms: N_2  and  C_3
REMARK    2  A    between atoms: C_3  and  C_4
REMARK    3  A    between atoms: C_4  and  C_5
REMARK    4  A    between atoms: C_4  and  C_15
REMARK    5  A    between atoms: C_4  and  C_23
REMARK    6  A    between atoms: C_10  and  C_11
REMARK    7  A    between atoms: C_15  and  C_16
REMARK    8  A    between atoms: C_17  and  C_18
REMARK    9  A    between atoms: C_18  and  C_19
REMARK                            x       y       z     vdW  Elec       q    Type
REMARK                         _______ _______ _______ _____ _____    ______ ____
ROOT
ATOM      1  C   UNL     1       7.764  -1.619  23.638  0.00  0.00    +0.000 C 
ENDROOT
BRANCH   1   2
ATOM      2  C   UNL     1       8.621  -0.489  23.152  0.00  0.00    +0.000 C 
ATOM      3  C   UNL     1       9.057   0.316  24.422  0.00  0.00    +0.000 C 
ATOM      4  C   UNL     1      10.529   0.119  24.649  0.00  0.00    +0.000 C 
ATOM      5  N   UNL     1       8.727   1.694  24.231  0.00  0.00    +0.000 NA
ATOM      6  C   UNL     1       8.417   1.914  22.830  0.00  0.00    +0.000 C 
ATOM      7  C   UNL     1       7.851   0.539  22.306  0.00  0.00    +0.000 C 
ATOM      8  C   UNL     1       9.752   2.127  22.097  0.00  0.00    +0.000 C 
BRANCH   7   9
ATOM      9  C   UNL     1       8.328   0.443  20.873  0.00  0.00    +0.000 C 
ATOM     10  C   UNL     1       7.461   0.536  19.780  0.00  0.00    +0.000 C 
ATOM     11  N   UNL     1       7.706  -0.141  18.617  0.00  0.00    +0.000 NA
ENDBRANCH   7   9
ENDBRANCH   1   2
BRANCH   1  12
ATOM     12  C   UNL     1       6.328  -1.483  23.153  0.00  0.00    +0.000 C 
ATOM     13  C   UNL     1       5.987  -2.686  22.272  0.00  0.00    +0.000 C 
ENDBRANCH   1  12
BRANCH   1  14
ATOM     14  C   UNL     1       7.753  -1.527  25.188  0.00  0.00    +0.000 C 
BRANCH  14  16
ATOM     15  C   UNL     1       6.364  -0.729  26.865  0.00  0.00    +0.000 C 
ATOM     16  N   UNL     1       6.403  -1.513  25.651  0.00  0.00    +0.000 NA
ENDBRANCH  14  16
ENDBRANCH   1  14
BRANCH   1  17
ATOM     17  C   UNL     1       8.310  -2.977  23.257  0.00  0.00    +0.000 C 
BRANCH  17  18
ATOM     18  C   UNL     1       9.340  -3.378  24.346  0.00  0.00    +0.000 C 
ATOM     19  C   UNL     1       9.343  -4.464  25.129  0.00  0.00    +0.000 C 
ATOM     20  F   UNL     1      10.603  -3.025  23.860  0.00  0.00    +0.000 F 
BRANCH  19  21
ATOM     21  C   UNL     1       8.977  -4.746  26.591  0.00  0.00    +0.000 C 
BRANCH  21  22
ATOM     22  C   UNL     1       7.602  -5.365  26.604  0.00  0.00    +0.000 C 
ATOM     23  O   UNL     1       6.688  -4.917  25.954  0.00  0.00    +0.000 OA
ATOM     24  O   UNL     1       7.418  -5.868  27.832  0.00  0.00    +0.000 OA
ENDBRANCH  21  22
ENDBRANCH  19  21
ENDBRANCH  17  18
ENDBRANCH   1  17
TORSDOF 9
ENDMDL
MODEL 4
REMARK VINA RESULT:      -5.6      1.492      2.299
REMARK  Name = 
REMARK  9 active torsions:
REMARK  status: ('A' for Active; 'I' for Inactive)
REMARK    1  A    between atoms: N_2  and  C_3
REMARK    2  A    between atoms: C_3  and  C_4
REMARK    3  A    between atoms: C_4  and  C_5
REMARK    4  A    between atoms: C_4  and  C_15
REMARK    5  A    between atoms: C_4  and  C_23
REMARK    6  A    between atoms: C_10  and  C_11
REMARK    7  A    between atoms: C_15  and  C_16
REMARK    8  A    between atoms: C_17  and  C_18
REMARK    9  A    between atoms: C_18  and  C_19
REMARK                            x       y       z     vdW  Elec       q    Type
REMARK                         _______ _______ _______ _____ _____    ______ ____
ROOT
ATOM      1  C   UNL     1       7.951  -3.436  24.052  0.00  0.00    +0.000 C 
ENDROOT
BRANCH   1   2
ATOM      2  C   UNL     1       7.031  -4.620  24.018  0.00  0.00    +0.000 C 
ATOM      3  C   UNL     1       6.492  -4.721  22.552  0.00  0.00    +0.000 C 
ATOM      4  C   UNL     1       7.075  -5.940  21.895  0.00  0.00    +0.000 C 
ATOM      5  N   UNL     1       5.063  -4.767  22.586  0.00  0.00    +0.000 NA
ATOM      6  C   UNL     1       4.634  -5.034  23.948  0.00  0.00    +0.000 C 
ATOM      7  C   UNL     1       5.763  -4.431  24.868  0.00  0.00    +0.000 C 
ATOM      8  C   UNL     1       4.693  -6.557  24.152  0.00  0.00    +0.000 C 
BRANCH   7   9
ATOM      9  C   UNL     1       5.834  -5.362  26.058  0.00  0.00    +0.000 C 
ATOM     10  C   UNL     1       6.517  -5.036  27.234  0.00  0.00    +0.000 C 
ATOM     11  N   UNL     1       7.117  -5.997  27.999  0.00  0.00    +0.000 NA
ENDBRANCH   7   9
ENDBRANCH   1   2
BRANCH   1  12
ATOM     12  C   UNL     1       9.275  -3.774  24.721  0.00  0.00    +0.000 C 
ATOM     13  C   UNL     1       9.339  -5.283  24.961  0.00  0.00    +0.000 C 
ENDBRANCH   1  12
BRANCH   1  14
ATOM     14  C   UNL     1       7.245  -2.354  24.912  0.00  0.00    +0.000 C 
BRANCH  14  16
ATOM     15  C   UNL     1       7.713  -0.729  26.500  0.00  0.00    +0.000 C 
ATOM     16  N   UNL     1       8.045  -2.066  26.058  0.00  0.00    +0.000 NA
ENDBRANCH  14  16
ENDBRANCH   1  14
BRANCH   1  17
ATOM     17  C   UNL     1       8.203  -2.849  22.681  0.00  0.00    +0.000 C 
BRANCH  17  18
ATOM     18  C   UNL     1       8.388  -1.319  22.866  0.00  0.00    +0.000 C 
ATOM     19  C   UNL     1       9.525  -0.612  22.867  0.00  0.00    +0.000 C 
ATOM     20  F   UNL     1       7.334  -0.698  22.189  0.00  0.00    +0.000 F 
BRANCH  19  21
ATOM     21  C   UNL     1      10.407   0.017  23.951  0.00  0.00    +0.000 C 
BRANCH  21  22
ATOM     22  C   UNL     1      10.252   1.514  23.851  0.00  0.00    +0.000 C 
ATOM     23  O   UNL     1       9.601   2.148  24.648  0.00  0.00    +0.000 OA
ATOM     24  O   UNL     1      10.263   1.817  22.547  0.00  0.00    +0.000 OA
ENDBRANCH  21  22
ENDBRANCH  19  21
ENDBRANCH  17  18
ENDBRANCH   1  17
TORSDOF 9
ENDMDL
MODEL 5
REMARK VINA RESULT:      -5.6      3.807      5.978
REMARK  Name = 
REMARK  9 active torsions:
REMARK  status: ('A' for Active; 'I' for Inactive)
REMARK    1  A    between atoms: N_2  and  C_3
REMARK    2  A    between atoms: C_3  and  C_4
REMARK    3  A    between atoms: C_4  and  C_5
REMARK    4  A    between atoms: C_4  and  C_15
REMARK    5  A    between atoms: C_4  and  C_23
REMARK    6  A    between atoms: C_10  and  C_11
REMARK    7  A    between atoms: C_15  and  C_16
REMARK    8  A    between atoms: C_17  and  C_18
REMARK    9  A    between atoms: C_18  and  C_19
REMARK                            x       y       z     vdW  Elec       q    Type
REMARK                         _______ _______ _______ _____ _____    ______ ____
ROOT
ATOM      1  C   UNL     1       9.258   0.831  23.343  0.00  0.00    +0.000 C 
ENDROOT
BRANCH   1   2
ATOM      2  C   UNL     1       7.911   0.289  23.717  0.00  0.00    +0.000 C 
ATOM      3  C   UNL     1       7.181   1.424  24.510  0.00  0.00    +0.000 C 
ATOM      4  C   UNL     1       6.047   1.956  23.679  0.00  0.00    +0.000 C 
ATOM      5  N   UNL     1       6.725   0.897  25.759  0.00  0.00    +0.000 NA
ATOM      6  C   UNL     1       6.801  -0.553  25.713  0.00  0.00    +0.000 C 
ATOM      7  C   UNL     1       7.979  -0.878  24.717  0.00  0.00    +0.000 C 
ATOM      8  C   UNL     1       5.519  -1.053  25.027  0.00  0.00    +0.000 C 
BRANCH   7   9
ATOM      9  C   UNL     1       7.553  -2.146  24.012  0.00  0.00    +0.000 C 
ATOM     10  C   UNL     1       8.391  -3.259  23.884  0.00  0.00    +0.000 C 
ATOM     11  N   UNL     1       8.316  -4.086  22.798  0.00  0.00    +0.000 NA
ENDBRANCH   7   9
ENDBRANCH   1   2
BRANCH   1  12
ATOM     12  C   UNL     1      10.377  -0.110  23.764  0.00  0.00    +0.000 C 
ATOM     13  C   UNL     1      11.295   0.619  24.747  0.00  0.00    +0.000 C 
ENDBRANCH   1  12
BRANCH   1  14
ATOM     14  C   UNL     1       9.432   2.159  24.128  0.00  0.00    +0.000 C 
BRANCH  14  16
ATOM     15  C   UNL     1       9.156   4.422  23.702  0.00  0.00    +0.000 C 
ATOM     16  N   UNL     1       9.768   3.205  23.217  0.00  0.00    +0.000 NA
ENDBRANCH  14  16
ENDBRANCH   1  14
BRANCH   1  17
ATOM     17  C   UNL     1       9.377   1.144  21.868  0.00  0.00    +0.000 C 
BRANCH  17  18
ATOM     18  C   UNL     1       8.607   0.035  21.102  0.00  0.00    +0.000 C 
ATOM     19  C   UNL     1       7.841   0.156  20.010  0.00  0.00    +0.000 C 
ATOM     20  F   UNL     1       9.426  -1.099  21.098  0.00  0.00    +0.000 F 
BRANCH  19  21
ATOM     21  C   UNL     1       6.331   0.189  19.747  0.00  0.00    +0.000 C 
BRANCH  21  22
ATOM     22  C   UNL     1       6.126   0.052  18.259  0.00  0.00    +0.000 C 
ATOM     23  O   UNL     1       5.971  -1.021  17.726  0.00  0.00    +0.000 OA
ATOM     24  O   UNL     1       6.831   1.033  17.681  0.00  0.00    +0.000 OA
ENDBRANCH  21  22
ENDBRANCH  19  21
ENDBRANCH  17  18
ENDBRANCH   1  17
TORSDOF 9
ENDMDL
MODEL 6
REMARK VINA RESULT:      -5.6      3.696      6.697
REMARK  Name = 
REMARK  9 active torsions:
REMARK  status: ('A' for Active; 'I' for Inactive)
REMARK    1  A    between atoms: N_2  and  C_3
REMARK    2  A    between atoms: C_3  and  C_4
REMARK    3  A    between atoms: C_4  and  C_5
REMARK    4  A    between atoms: C_4  and  C_15
REMARK    5  A    between atoms: C_4  and  C_23
REMARK    6  A    between atoms: C_10  and  C_11
REMARK    7  A    between atoms: C_15  and  C_16
REMARK    8  A    between atoms: C_17  and  C_18
REMARK    9  A    between atoms: C_18  and  C_19
REMARK                            x       y       z     vdW  Elec       q    Type
REMARK                         _______ _______ _______ _____ _____    ______ ____
ROOT
ATOM      1  C   UNL     1       7.992  -1.390  24.097  0.00  0.00    +0.000 C 
ENDROOT
BRANCH   1   2
ATOM      2  C   UNL     1       8.862  -0.359  23.444  0.00  0.00    +0.000 C 
ATOM      3  C   UNL     1       9.369   0.583  24.587  0.00  0.00    +0.000 C 
ATOM      4  C   UNL     1      10.842   0.368  24.787  0.00  0.00    +0.000 C 
ATOM      5  N   UNL     1       9.072   1.937  24.236  0.00  0.00    +0.000 NA
ATOM      6  C   UNL     1       8.715   1.991  22.829  0.00  0.00    +0.000 C 
ATOM      7  C   UNL     1       8.091   0.581  22.502  0.00  0.00    +0.000 C 
ATOM      8  C   UNL     1      10.028   2.067  22.031  0.00  0.00    +0.000 C 
BRANCH   7   9
ATOM      9  C   UNL     1       8.511   0.291  21.077  0.00  0.00    +0.000 C 
ATOM     10  C   UNL     1       7.684   0.546  19.979  0.00  0.00    +0.000 C 
ATOM     11  N   UNL     1       7.734  -0.230  18.854  0.00  0.00    +0.000 NA
ENDBRANCH   7   9
ENDBRANCH   1   2
BRANCH   1  12
ATOM     12  C   UNL     1       8.207  -1.432  25.603  0.00  0.00    +0.000 C 
ATOM     13  C   UNL     1       6.844  -1.463  26.297  0.00  0.00    +0.000 C 
ENDBRANCH   1  12
BRANCH   1  14
ATOM     14  C   UNL     1       8.425  -2.763  23.516  0.00  0.00    +0.000 C 
BRANCH  14  16
ATOM     15  C   UNL     1       8.817  -4.784  24.586  0.00  0.00    +0.000 C 
ATOM     16  N   UNL     1       9.282  -3.421  24.448  0.00  0.00    +0.000 NA
ENDBRANCH  14  16
ENDBRANCH   1  14
BRANCH   1  17
ATOM     17  C   UNL     1       6.523  -1.198  23.792  0.00  0.00    +0.000 C 
BRANCH  17  18
ATOM     18  C   UNL     1       6.062  -2.431  22.970  0.00  0.00    +0.000 C 
ATOM     19  C   UNL     1       5.137  -3.345  23.289  0.00  0.00    +0.000 C 
ATOM     20  F   UNL     1       6.033  -2.037  21.629  0.00  0.00    +0.000 F 
BRANCH  19  21
ATOM     21  C   UNL     1       5.173  -4.785  23.813  0.00  0.00    +0.000 C 
BRANCH  21  22
ATOM     22  C   UNL     1       4.784  -5.694  22.675  0.00  0.00    +0.000 C 
ATOM     23  O   UNL     1       5.413  -5.742  21.645  0.00  0.00    +0.000 OA
ATOM     24  O   UNL     1       3.447  -5.782  22.692  0.00  0.00    +0.000 OA
ENDBRANCH  21  22
ENDBRANCH  19  21
ENDBRANCH  17  18
ENDBRANCH   1  17
TORSDOF 9
ENDMDL
MODEL 7
REMARK VINA RESULT:      -5.5      3.514      6.163
REMARK  Name = 
REMARK  9 active torsions:
REMARK  status: ('A' for Active; 'I' for Inactive)
REMARK    1  A    between atoms: N_2  and  C_3
REMARK    2  A    between atoms: C_3  and  C_4
REMARK    3  A    between atoms: C_4  and  C_5
REMARK    4  A    between atoms: C_4  and  C_15
REMARK    5  A    between atoms: C_4  and  C_23
REMARK    6  A    between atoms: C_10  and  C_11
REMARK    7  A    between atoms: C_15  and  C_16
REMARK    8  A    between atoms: C_17  and  C_18
REMARK    9  A    between atoms: C_18  and  C_19
REMARK                            x       y       z     vdW  Elec       q    Type
REMARK                         _______ _______ _______ _____ _____    ______ ____
ROOT
ATOM      1  C   UNL     1       8.354  -1.027  23.577  0.00  0.00    +0.000 C 
ENDROOT
BRANCH   1   2
ATOM      2  C   UNL     1       8.295   0.390  23.091  0.00  0.00    +0.000 C 
ATOM      3  C   UNL     1       8.068   1.284  24.356  0.00  0.00    +0.000 C 
ATOM      4  C   UNL     1       9.311   2.084  24.624  0.00  0.00    +0.000 C 
ATOM      5  N   UNL     1       6.932   2.124  24.130  0.00  0.00    +0.000 NA
ATOM      6  C   UNL     1       6.598   2.094  22.717  0.00  0.00    +0.000 C 
ATOM      7  C   UNL     1       7.071   0.680  22.206  0.00  0.00    +0.000 C 
ATOM      8  C   UNL     1       7.504   3.120  22.015  0.00  0.00    +0.000 C 
BRANCH   7   9
ATOM      9  C   UNL     1       7.543   0.917  20.788  0.00  0.00    +0.000 C 
ATOM     10  C   UNL     1       6.891   0.378  19.674  0.00  0.00    +0.000 C 
ATOM     11  N   UNL     1       7.579   0.037  18.542  0.00  0.00    +0.000 NA
ENDBRANCH   7   9
ENDBRANCH   1   2
BRANCH   1  12
ATOM     12  C   UNL     1       9.424  -1.826  22.848  0.00  0.00    +0.000 C 
ATOM     13  C   UNL     1      10.471  -0.860  22.292  0.00  0.00    +0.000 C 
ENDBRANCH   1  12
BRANCH   1  14
ATOM     14  C   UNL     1       6.977  -1.664  23.248  0.00  0.00    +0.000 C 
BRANCH  14  16
ATOM     15  C   UNL     1       5.824  -2.902  21.662  0.00  0.00    +0.000 C 
ATOM     16  N   UNL     1       7.136  -2.617  22.198  0.00  0.00    +0.000 NA
ENDBRANCH  14  16
ENDBRANCH   1  14
BRANCH   1  17
ATOM     17  C   UNL     1       8.567  -1.127  25.072  0.00  0.00    +0.000 C 
BRANCH  17  18
ATOM     18  C   UNL     1       7.562  -2.182  25.607  0.00  0.00    +0.000 C 
ATOM     19  C   UNL     1       7.823  -3.367  26.173  0.00  0.00    +0.000 C 
ATOM     20  F   UNL     1       6.521  -1.477  26.219  0.00  0.00    +0.000 F 
BRANCH  19  21
ATOM     21  C   UNL     1       7.781  -4.825  25.701  0.00  0.00    +0.000 C 
BRANCH  21  22
ATOM     22  C   UNL     1       8.674  -4.937  24.491  0.00  0.00    +0.000 C 
ATOM     23  O   UNL     1       8.343  -5.543  23.500  0.00  0.00    +0.000 OA
ATOM     24  O   UNL     1       9.935  -4.955  24.943  0.00  0.00    +0.000 OA
ENDBRANCH  21  22
ENDBRANCH  19  21
ENDBRANCH  17  18
ENDBRANCH   1  17
TORSDOF 9
ENDMDL
MODEL 8
REMARK VINA RESULT:      -5.5      3.508      5.959
REMARK  Name = 
REMARK  9 active torsions:
REMARK  status: ('A' for Active; 'I' for Inactive)
REMARK    1  A    between atoms: N_2  and  C_3
REMARK    2  A    between atoms: C_3  and  C_4
REMARK    3  A    between atoms: C_4  and  C_5
REMARK    4  A    between atoms: C_4  and  C_15
REMARK    5  A    between atoms: C_4  and  C_23
REMARK    6  A    between atoms: C_10  and  C_11
REMARK    7  A    between atoms: C_15  and  C_16
REMARK    8  A    between atoms: C_17  and  C_18
REMARK    9  A    between atoms: C_18  and  C_19
REMARK                            x       y       z     vdW  Elec       q    Type
REMARK                         _______ _______ _______ _____ _____    ______ ____
ROOT
ATOM      1  C   UNL     1       7.677  -3.119  23.630  0.00  0.00    +0.000 C 
ENDROOT
BRANCH   1   2
ATOM      2  C   UNL     1       8.240  -1.738  23.483  0.00  0.00    +0.000 C 
ATOM      3  C   UNL     1       8.747  -1.620  22.006  0.00  0.00    +0.000 C 
ATOM      4  C   UNL     1       7.862  -0.667  21.254  0.00  0.00    +0.000 C 
ATOM      5  N   UNL     1      10.110  -1.185  22.019  0.00  0.00    +0.000 NA
ATOM      6  C   UNL     1      10.435  -0.695  23.347  0.00  0.00    +0.000 C 
ATOM      7  C   UNL     1       9.501  -1.500  24.330  0.00  0.00    +0.000 C 
ATOM      8  C   UNL     1       9.961   0.767  23.420  0.00  0.00    +0.000 C 
BRANCH   7   9
ATOM      9  C   UNL     1       9.166  -0.524  25.436  0.00  0.00    +0.000 C 
ATOM     10  C   UNL     1       8.692  -0.932  26.686  0.00  0.00    +0.000 C 
ATOM     11  N   UNL     1       7.830  -0.154  27.410  0.00  0.00    +0.000 NA
ENDBRANCH   7   9
ENDBRANCH   1   2
BRANCH   1  12
ATOM     12  C   UNL     1       6.412  -3.122  24.475  0.00  0.00    +0.000 C 
ATOM     13  C   UNL     1       5.735  -1.755  24.360  0.00  0.00    +0.000 C 
ENDBRANCH   1  12
BRANCH   1  14
ATOM     14  C   UNL     1       8.751  -3.956  24.376  0.00  0.00    +0.000 C 
BRANCH  14  16
ATOM     15  C   UNL     1       9.207  -4.640  26.545  0.00  0.00    +0.000 C 
ATOM     16  N   UNL     1       8.170  -4.537  25.543  0.00  0.00    +0.000 NA
ENDBRANCH  14  16
ENDBRANCH   1  14
BRANCH   1  17
ATOM     17  C   UNL     1       7.408  -3.789  22.300  0.00  0.00    +0.000 C 
BRANCH  17  18
ATOM     18  C   UNL     1       6.710  -5.141  22.603  0.00  0.00    +0.000 C 
ATOM     19  C   UNL     1       5.466  -5.525  22.287  0.00  0.00    +0.000 C 
ATOM     20  F   UNL     1       7.672  -6.142  22.434  0.00  0.00    +0.000 F 
BRANCH  19  21
ATOM     21  C   UNL     1       4.145  -5.653  23.056  0.00  0.00    +0.000 C 
BRANCH  21  22
ATOM     22  C   UNL     1       4.436  -6.386  24.341  0.00  0.00    +0.000 C 
ATOM     23  O   UNL     1       4.353  -7.588  24.429  0.00  0.00    +0.000 OA
ATOM     24  O   UNL     1       4.063  -5.576  25.340  0.00  0.00    +0.000 OA
ENDBRANCH  21  22
ENDBRANCH  19  21
ENDBRANCH  17  18
ENDBRANCH   1  17
TORSDOF 9
ENDMDL
MODEL 9
REMARK VINA RESULT:      -5.4      1.846      2.933
REMARK  Name = 
REMARK  9 active torsions:
REMARK  status: ('A' for Active; 'I' for Inactive)
REMARK    1  A    between atoms: N_2  and  C_3
REMARK    2  A    between atoms: C_3  and  C_4
REMARK    3  A    between atoms: C_4  and  C_5
REMARK    4  A    between atoms: C_4  and  C_15
REMARK    5  A    between atoms: C_4  and  C_23
REMARK    6  A    between atoms: C_10  and  C_11
REMARK    7  A    between atoms: C_15  and  C_16
REMARK    8  A    between atoms: C_17  and  C_18
REMARK    9  A    between atoms: C_18  and  C_19
REMARK                            x       y       z     vdW  Elec       q    Type
REMARK                         _______ _______ _______ _____ _____    ______ ____
ROOT
ATOM      1  C   UNL     1       6.184  -4.787  23.257  0.00  0.00    +0.000 C 
ENDROOT
BRANCH   1   2
ATOM      2  C   UNL     1       5.089  -5.227  24.181  0.00  0.00    +0.000 C 
ATOM      3  C   UNL     1       3.745  -4.745  23.538  0.00  0.00    +0.000 C 
ATOM      4  C   UNL     1       2.972  -5.940  23.058  0.00  0.00    +0.000 C 
ATOM      5  N   UNL     1       3.013  -3.991  24.507  0.00  0.00    +0.000 NA
ATOM      6  C   UNL     1       3.600  -4.212  25.817  0.00  0.00    +0.000 C 
ATOM      7  C   UNL     1       5.122  -4.519  25.546  0.00  0.00    +0.000 C 
ATOM      8  C   UNL     1       2.999  -5.516  26.369  0.00  0.00    +0.000 C 
BRANCH   7   9
ATOM      9  C   UNL     1       5.510  -5.527  26.606  0.00  0.00    +0.000 C 
ATOM     10  C   UNL     1       6.365  -5.216  27.668  0.00  0.00    +0.000 C 
ATOM     11  N   UNL     1       7.194  -6.157  28.214  0.00  0.00    +0.000 NA
ENDBRANCH   7   9
ENDBRANCH   1   2
BRANCH   1  12
ATOM     12  C   UNL     1       6.675  -5.933  22.385  0.00  0.00    +0.000 C 
ATOM     13  C   UNL     1       6.224  -5.688  20.944  0.00  0.00    +0.000 C 
ENDBRANCH   1  12
BRANCH   1  14
ATOM     14  C   UNL     1       7.365  -4.334  24.157  0.00  0.00    +0.000 C 
BRANCH  14  16
ATOM     15  C   UNL     1       9.257  -5.163  25.212  0.00  0.00    +0.000 C 
ATOM     16  N   UNL     1       8.445  -5.256  24.019  0.00  0.00    +0.000 NA
ENDBRANCH  14  16
ENDBRANCH   1  14
BRANCH   1  17
ATOM     17  C   UNL     1       5.785  -3.614  22.388  0.00  0.00    +0.000 C 
BRANCH  17  18
ATOM     18  C   UNL     1       6.666  -2.410  22.814  0.00  0.00    +0.000 C 
ATOM     19  C   UNL     1       7.547  -1.721  22.077  0.00  0.00    +0.000 C 
ATOM     20  F   UNL     1       5.884  -1.613  23.657  0.00  0.00    +0.000 F 
BRANCH  19  21
ATOM     21  C   UNL     1       9.075  -1.696  21.961  0.00  0.00    +0.000 C 
BRANCH  21  22
ATOM     22  C   UNL     1       9.609  -0.946  23.156  0.00  0.00    +0.000 C 
ATOM     23  O   UNL     1      10.207   0.098  23.045  0.00  0.00    +0.000 OA
ATOM     24  O   UNL     1       9.954  -1.866  24.066  0.00  0.00    +0.000 OA
ENDBRANCH  21  22
ENDBRANCH  19  21
ENDBRANCH  17  18
ENDBRANCH   1  17
TORSDOF 9
ENDMDL
