MODEL 1
REMARK VINA RESULT:      -6.5      0.000      0.000
REMARK  Name = 
REMARK  7 active torsions:
REMARK  status: ('A' for Active; 'I' for Inactive)
REMARK    1  A    between atoms: C_3  and  C_4
REMARK    2  A    between atoms: C_4  and  C_5
REMARK    3  A    between atoms: N_11  and  C_12
REMARK    4  A    between atoms: C_12  and  C_13
REMARK    5  A    between atoms: C_13  and  N_14
REMARK    6  A    between atoms: N_14  and  C_15
REMARK    7  A    between atoms: C_19  and  O_20
REMARK                            x       y       z     vdW  Elec       q    Type
REMARK                         _______ _______ _______ _____ _____    ______ ____
ROOT
ATOM      1  C   UNL     1       8.611  -0.498  23.257  0.00  0.00    +0.000 C 
ATOM      2  C   UNL     1       8.971   0.839  23.311  0.00  0.00    +0.000 C 
ATOM      3  C   UNL     1       7.979   2.066  23.545  0.00  0.00    +0.000 C 
ATOM      4  C   UNL     1      10.381   1.410  24.037  0.00  0.00    +0.000 C 
ATOM      5  C   UNL     1      10.339   0.177  25.126  0.00  0.00    +0.000 C 
ATOM      6  C   UNL     1       9.312  -0.698  25.399  0.00  0.00    +0.000 C 
ATOM      7  N   UNL     1       8.691  -1.531  24.354  0.00  0.00    +0.000 N 
ATOM      8  C   UNL     1       8.498  -0.749  26.652  0.00  0.00    +0.000 C 
ENDROOT
BRANCH   1   9
ATOM      9  C   UNL     1       8.534  -1.316  21.913  0.00  0.00    +0.000 C 
ATOM     10  O   UNL     1       9.424  -0.670  21.041  0.00  0.00    +0.000 OA
BRANCH   9  13
ATOM     11  F   UNL     1       5.406  -2.069  20.241  0.00  0.00    +0.000 F 
ATOM     12  C   UNL     1       6.218  -2.183  21.328  0.00  0.00    +0.000 C 
ATOM     13  C   UNL     1       7.121  -1.119  21.431  0.00  0.00    +0.000 C 
ENDBRANCH   9  13
ENDBRANCH   1   9
BRANCH   7  14
ATOM     14  C   UNL     1       9.478  -2.690  24.036  0.00  0.00    +0.000 C 
BRANCH  14  15
ATOM     15  C   UNL     1       9.317  -3.833  24.995  0.00  0.00    +0.000 C 
BRANCH  15  16
ATOM     16  N   UNL     1       8.791  -5.004  24.342  0.00  0.00    +0.000 NA
BRANCH  16  17
ATOM     17  C   UNL     1       7.681  -4.641  23.555  0.00  0.00    +0.000 C 
ATOM     18  C   UNL     1       7.654  -5.433  22.225  0.00  0.00    +0.000 C 
ATOM     19  C   UNL     1       6.184  -5.874  22.049  0.00  0.00    +0.000 C 
ATOM     20  C   UNL     1       5.436  -5.544  23.262  0.00  0.00    +0.000 C 
ATOM     21  C   UNL     1       6.366  -4.821  24.297  0.00  0.00    +0.000 C 
ATOM     22  O   UNL     1       5.668  -5.961  20.802  0.00  0.00    +0.000 OA
BRANCH  21  23
ATOM     23  O   UNL     1       6.524  -5.593  25.414  0.00  0.00    +0.000 OA
ATOM     24  C   UNL     1       5.272  -6.215  25.659  0.00  0.00    +0.000 C 
ENDBRANCH  21  23
ENDBRANCH  16  17
ENDBRANCH  15  16
ENDBRANCH  14  15
ENDBRANCH   7  14
TORSDOF 7
ENDMDL
MODEL 2
REMARK VINA RESULT:      -6.4      1.959      2.778
REMARK  Name = 
REMARK  7 active torsions:
REMARK  status: ('A' for Active; 'I' for Inactive)
REMARK    1  A    between atoms: C_3  and  C_4
REMARK    2  A    between atoms: C_4  and  C_5
REMARK    3  A    between atoms: N_11  and  C_12
REMARK    4  A    between atoms: C_12  and  C_13
REMARK    5  A    between atoms: C_13  and  N_14
REMARK    6  A    between atoms: N_14  and  C_15
REMARK    7  A    between atoms: C_19  and  O_20
REMARK                            x       y       z     vdW  Elec       q    Type
REMARK                         _______ _______ _______ _____ _____    ______ ____
ROOT
ATOM      1  C   UNL     1       7.728   0.287  21.590  0.00  0.00    +0.000 C 
ATOM      2  C   UNL     1       8.367   1.517  21.589  0.00  0.00    +0.000 C 
ATOM      3  C   UNL     1       7.727   2.904  22.048  0.00  0.00    +0.000 C 
ATOM      4  C   UNL     1       9.983   1.742  22.010  0.00  0.00    +0.000 C 
ATOM      5  C   UNL     1       9.903   0.480  23.062  0.00  0.00    +0.000 C 
ATOM      6  C   UNL     1       8.790  -0.182  23.531  0.00  0.00    +0.000 C 
ATOM      7  N   UNL     1       7.807  -0.805  22.627  0.00  0.00    +0.000 N 
ATOM      8  C   UNL     1       8.256  -0.142  24.927  0.00  0.00    +0.000 C 
ENDROOT
BRANCH   1   9
ATOM      9  C   UNL     1       7.207  -0.415  20.278  0.00  0.00    +0.000 C 
ATOM     10  O   UNL     1       8.186  -0.147  19.308  0.00  0.00    +0.000 OA
BRANCH   9  13
ATOM     11  F   UNL     1       5.022   1.925  18.577  0.00  0.00    +0.000 F 
ATOM     12  C   UNL     1       5.641   0.714  18.625  0.00  0.00    +0.000 C 
ATOM     13  C   UNL     1       5.938   0.321  19.934  0.00  0.00    +0.000 C 
ENDBRANCH   9  13
ENDBRANCH   1   9
BRANCH   7  14
ATOM     14  C   UNL     1       8.248  -2.079  22.131  0.00  0.00    +0.000 C 
BRANCH  14  15
ATOM     15  C   UNL     1       7.921  -3.241  23.022  0.00  0.00    +0.000 C 
BRANCH  15  16
ATOM     16  N   UNL     1       7.084  -4.204  22.353  0.00  0.00    +0.000 NA
BRANCH  16  17
ATOM     17  C   UNL     1       6.895  -5.320  23.191  0.00  0.00    +0.000 C 
ATOM     18  C   UNL     1       7.348  -5.015  24.640  0.00  0.00    +0.000 C 
ATOM     19  C   UNL     1       6.233  -5.593  25.540  0.00  0.00    +0.000 C 
ATOM     20  C   UNL     1       5.118  -6.030  24.701  0.00  0.00    +0.000 C 
ATOM     21  C   UNL     1       5.454  -5.805  23.186  0.00  0.00    +0.000 C 
ATOM     22  O   UNL     1       6.562  -6.106  26.748  0.00  0.00    +0.000 OA
BRANCH  21  23
ATOM     23  O   UNL     1       4.614  -4.872  22.646  0.00  0.00    +0.000 OA
ATOM     24  C   UNL     1       3.356  -5.041  23.282  0.00  0.00    +0.000 C 
ENDBRANCH  21  23
ENDBRANCH  16  17
ENDBRANCH  15  16
ENDBRANCH  14  15
ENDBRANCH   7  14
TORSDOF 7
ENDMDL
MODEL 3
REMARK VINA RESULT:      -6.4      1.369      2.390
REMARK  Name = 
REMARK  7 active torsions:
REMARK  status: ('A' for Active; 'I' for Inactive)
REMARK    1  A    between atoms: C_3  and  C_4
REMARK    2  A    between atoms: C_4  and  C_5
REMARK    3  A    between atoms: N_11  and  C_12
REMARK    4  A    between atoms: C_12  and  C_13
REMARK    5  A    between atoms: C_13  and  N_14
REMARK    6  A    between atoms: N_14  and  C_15
REMARK    7  A    between atoms: C_19  and  O_20
REMARK                            x       y       z     vdW  Elec       q    Type
REMARK                         _______ _______ _______ _____ _____    ______ ____
ROOT
ATOM      1  C   UNL     1       8.761  -0.182  23.165  0.00  0.00    +0.000 C 
ATOM      2  C   UNL     1       9.113   1.156  23.243  0.00  0.00    +0.000 C 
ATOM      3  C   UNL     1       8.127   2.365  23.576  0.00  0.00    +0.000 C 
ATOM      4  C   UNL     1      10.558   1.717  23.904  0.00  0.00    +0.000 C 
ATOM      5  C   UNL     1      10.591   0.448  24.951  0.00  0.00    +0.000 C 
ATOM      6  C   UNL     1       9.588  -0.447  25.254  0.00  0.00    +0.000 C 
ATOM      7  N   UNL     1       8.914  -1.250  24.219  0.00  0.00    +0.000 N 
ATOM      8  C   UNL     1       8.850  -0.548  26.550  0.00  0.00    +0.000 C 
ENDROOT
BRANCH   1   9
ATOM      9  C   UNL     1       8.612  -0.956  21.800  0.00  0.00    +0.000 C 
ATOM     10  O   UNL     1       9.188  -0.112  20.838  0.00  0.00    +0.000 OA
BRANCH   9  13
ATOM     11  F   UNL     1       5.448  -2.295  20.641  0.00  0.00    +0.000 F 
ATOM     12  C   UNL     1       6.445  -2.263  21.568  0.00  0.00    +0.000 C 
ATOM     13  C   UNL     1       7.125  -1.041  21.575  0.00  0.00    +0.000 C 
ENDBRANCH   9  13
ENDBRANCH   1   9
BRANCH   7  14
ATOM     14  C   UNL     1       9.689  -2.390  23.817  0.00  0.00    +0.000 C 
BRANCH  14  15
ATOM     15  C   UNL     1       9.289  -3.678  24.474  0.00  0.00    +0.000 C 
BRANCH  15  16
ATOM     16  N   UNL     1       7.880  -3.938  24.321  0.00  0.00    +0.000 NA
BRANCH  16  17
ATOM     17  C   UNL     1       7.539  -5.099  25.039  0.00  0.00    +0.000 C 
ATOM     18  C   UNL     1       7.978  -4.991  26.520  0.00  0.00    +0.000 C 
ATOM     19  C   UNL     1       6.777  -5.519  27.335  0.00  0.00    +0.000 C 
ATOM     20  C   UNL     1       5.646  -5.740  26.435  0.00  0.00    +0.000 C 
ATOM     21  C   UNL     1       6.053  -5.410  24.957  0.00  0.00    +0.000 C 
ATOM     22  O   UNL     1       7.007  -6.183  28.492  0.00  0.00    +0.000 OA
BRANCH  21  23
ATOM     23  O   UNL     1       5.342  -4.338  24.496  0.00  0.00    +0.000 OA
ATOM     24  C   UNL     1       4.429  -4.839  23.531  0.00  0.00    +0.000 C 
ENDBRANCH  21  23
ENDBRANCH  16  17
ENDBRANCH  15  16
ENDBRANCH  14  15
ENDBRANCH   7  14
TORSDOF 7
ENDMDL
MODEL 4
REMARK VINA RESULT:      -6.4      1.981      6.118
REMARK  Name = 
REMARK  7 active torsions:
REMARK  status: ('A' for Active; 'I' for Inactive)
REMARK    1  A    between atoms: C_3  and  C_4
REMARK    2  A    between atoms: C_4  and  C_5
REMARK    3  A    between atoms: N_11  and  C_12
REMARK    4  A    between atoms: C_12  and  C_13
REMARK    5  A    between atoms: C_13  and  N_14
REMARK    6  A    between atoms: N_14  and  C_15
REMARK    7  A    between atoms: C_19  and  O_20
REMARK                            x       y       z     vdW  Elec       q    Type
REMARK                         _______ _______ _______ _____ _____    ______ ____
ROOT
ATOM      1  C   UNL     1       6.685  -4.496  24.350  0.00  0.00    +0.000 C 
ATOM      2  C   UNL     1       6.032  -4.729  25.550  0.00  0.00    +0.000 C 
ATOM      3  C   UNL     1       5.643  -6.158  26.141  0.00  0.00    +0.000 C 
ATOM      4  C   UNL     1       6.308  -3.851  26.962  0.00  0.00    +0.000 C 
ATOM      5  C   UNL     1       7.875  -3.607  26.525  0.00  0.00    +0.000 C 
ATOM      6  C   UNL     1       8.598  -4.223  25.527  0.00  0.00    +0.000 C 
ATOM      7  N   UNL     1       8.152  -4.227  24.122  0.00  0.00    +0.000 N 
ATOM      8  C   UNL     1       9.731  -5.180  25.713  0.00  0.00    +0.000 C 
ENDROOT
BRANCH   1   9
ATOM      9  C   UNL     1       5.954  -3.961  23.060  0.00  0.00    +0.000 C 
ATOM     10  O   UNL     1       4.734  -3.442  23.522  0.00  0.00    +0.000 OA
BRANCH   9  13
ATOM     11  F   UNL     1       5.923  -6.117  20.146  0.00  0.00    +0.000 F 
ATOM     12  C   UNL     1       6.577  -5.603  21.224  0.00  0.00    +0.000 C 
ATOM     13  C   UNL     1       5.699  -5.193  22.232  0.00  0.00    +0.000 C 
ENDBRANCH   9  13
ENDBRANCH   1   9
BRANCH   7  14
ATOM     14  C   UNL     1       8.443  -2.991  23.450  0.00  0.00    +0.000 C 
BRANCH  14  15
ATOM     15  C   UNL     1       9.823  -2.459  23.696  0.00  0.00    +0.000 C 
BRANCH  15  16
ATOM     16  N   UNL     1      10.173  -1.429  22.752  0.00  0.00    +0.000 NA
BRANCH  16  17
ATOM     17  C   UNL     1       9.554  -0.222  23.128  0.00  0.00    +0.000 C 
ATOM     18  C   UNL     1      10.594   0.809  23.630  0.00  0.00    +0.000 C 
ATOM     19  C   UNL     1      10.192   2.144  22.964  0.00  0.00    +0.000 C 
ATOM     20  C   UNL     1       9.126   1.894  21.995  0.00  0.00    +0.000 C 
ATOM     21  C   UNL     1       8.728   0.377  22.000  0.00  0.00    +0.000 C 
ATOM     22  O   UNL     1      10.397   3.301  23.634  0.00  0.00    +0.000 OA
BRANCH  21  23
ATOM     23  O   UNL     1       9.033  -0.197  20.798  0.00  0.00    +0.000 OA
ATOM     24  C   UNL     1       7.920   0.029  19.946  0.00  0.00    +0.000 C 
ENDBRANCH  21  23
ENDBRANCH  16  17
ENDBRANCH  15  16
ENDBRANCH  14  15
ENDBRANCH   7  14
TORSDOF 7
ENDMDL
MODEL 5
REMARK VINA RESULT:      -6.4      2.361      3.346
REMARK  Name = 
REMARK  7 active torsions:
REMARK  status: ('A' for Active; 'I' for Inactive)
REMARK    1  A    between atoms: C_3  and  C_4
REMARK    2  A    between atoms: C_4  and  C_5
REMARK    3  A    between atoms: N_11  and  C_12
REMARK    4  A    between atoms: C_12  and  C_13
REMARK    5  A    between atoms: C_13  and  N_14
REMARK    6  A    between atoms: N_14  and  C_15
REMARK    7  A    between atoms: C_19  and  O_20
REMARK                            x       y       z     vdW  Elec       q    Type
REMARK                         _______ _______ _______ _____ _____    ______ ____
ROOT
ATOM      1  C   UNL     1       7.267  -0.001  21.042  0.00  0.00    +0.000 C 
ATOM      2  C   UNL     1       8.162   1.043  21.216  0.00  0.00    +0.000 C 
ATOM      3  C   UNL     1       7.786   2.539  21.625  0.00  0.00    +0.000 C 
ATOM      4  C   UNL     1       9.681   0.878  21.927  0.00  0.00    +0.000 C 
ATOM      5  C   UNL     1       9.119  -0.338  22.884  0.00  0.00    +0.000 C 
ATOM      6  C   UNL     1       7.817  -0.722  23.115  0.00  0.00    +0.000 C 
ATOM      7  N   UNL     1       6.901  -1.089  22.021  0.00  0.00    +0.000 N 
ATOM      8  C   UNL     1       7.060  -0.568  24.395  0.00  0.00    +0.000 C 
ENDROOT
BRANCH   1   9
ATOM      9  C   UNL     1       6.849  -0.550  19.626  0.00  0.00    +0.000 C 
ATOM     10  O   UNL     1       7.795  -0.019  18.735  0.00  0.00    +0.000 OA
BRANCH   9  13
ATOM     11  F   UNL     1       4.366   2.053  19.176  0.00  0.00    +0.000 F 
ATOM     12  C   UNL     1       5.364   1.278  18.670  0.00  0.00    +0.000 C 
ATOM     13  C   UNL     1       5.501   0.071  19.363  0.00  0.00    +0.000 C 
ENDBRANCH   9  13
ENDBRANCH   1   9
BRANCH   7  14
ATOM     14  C   UNL     1       7.119  -2.427  21.546  0.00  0.00    +0.000 C 
BRANCH  14  15
ATOM     15  C   UNL     1       6.159  -3.444  22.090  0.00  0.00    +0.000 C 
BRANCH  15  16
ATOM     16  N   UNL     1       6.839  -4.473  22.833  0.00  0.00    +0.000 NA
BRANCH  16  17
ATOM     17  C   UNL     1       6.552  -4.326  24.204  0.00  0.00    +0.000 C 
ATOM     18  C   UNL     1       5.754  -5.537  24.743  0.00  0.00    +0.000 C 
ATOM     19  C   UNL     1       6.417  -5.888  26.094  0.00  0.00    +0.000 C 
ATOM     20  C   UNL     1       7.627  -5.083  26.257  0.00  0.00    +0.000 C 
ATOM     21  C   UNL     1       7.808  -4.117  25.035  0.00  0.00    +0.000 C 
ATOM     22  O   UNL     1       5.650  -6.374  27.097  0.00  0.00    +0.000 OA
BRANCH  21  23
ATOM     23  O   UNL     1       8.934  -4.446  24.332  0.00  0.00    +0.000 OA
ATOM     24  C   UNL     1       9.857  -4.980  25.269  0.00  0.00    +0.000 C 
ENDBRANCH  21  23
ENDBRANCH  16  17
ENDBRANCH  15  16
ENDBRANCH  14  15
ENDBRANCH   7  14
TORSDOF 7
ENDMDL
MODEL 6
REMARK VINA RESULT:      -6.3      2.804      6.261
REMARK  Name = 
REMARK  7 active torsions:
REMARK  status: ('A' for Active; 'I' for Inactive)
REMARK    1  A    between atoms: C_3  and  C_4
REMARK    2  A    between atoms: C_4  and  C_5
REMARK    3  A    between atoms: N_11  and  C_12
REMARK    4  A    between atoms: C_12  and  C_13
REMARK    5  A    between atoms: C_13  and  N_14
REMARK    6  A    between atoms: N_14  and  C_15
REMARK    7  A    between atoms: C_19  and  O_20
REMARK                            x       y       z     vdW  Elec       q    Type
REMARK                         _______ _______ _______ _____ _____    ______ ____
ROOT
ATOM      1  C   UNL     1       7.086  -4.307  24.329  0.00  0.00    +0.000 C 
ATOM      2  C   UNL     1       6.382  -5.437  23.943  0.00  0.00    +0.000 C 
ATOM      3  C   UNL     1       4.830  -5.705  24.196  0.00  0.00    +0.000 C 
ATOM      4  C   UNL     1       6.625  -6.249  22.486  0.00  0.00    +0.000 C 
ATOM      5  C   UNL     1       7.045  -4.839  21.750  0.00  0.00    +0.000 C 
ATOM      6  C   UNL     1       6.892  -3.549  22.207  0.00  0.00    +0.000 C 
ATOM      7  N   UNL     1       7.445  -3.101  23.497  0.00  0.00    +0.000 N 
ATOM      8  C   UNL     1       5.956  -2.519  21.659  0.00  0.00    +0.000 C 
ENDROOT
BRANCH   1   9
ATOM      9  C   UNL     1       8.082  -4.288  25.550  0.00  0.00    +0.000 C 
ATOM     10  O   UNL     1       8.588  -5.595  25.628  0.00  0.00    +0.000 OA
BRANCH   9  13
ATOM     11  F   UNL     1       5.435  -4.778  27.978  0.00  0.00    +0.000 F 
ATOM     12  C   UNL     1       6.699  -5.039  27.545  0.00  0.00    +0.000 C 
ATOM     13  C   UNL     1       7.209  -4.011  26.746  0.00  0.00    +0.000 C 
ENDBRANCH   9  13
ENDBRANCH   1   9
BRANCH   7  14
ATOM     14  C   UNL     1       8.850  -2.815  23.423  0.00  0.00    +0.000 C 
BRANCH  14  15
ATOM     15  C   UNL     1       9.216  -1.747  22.434  0.00  0.00    +0.000 C 
BRANCH  15  16
ATOM     16  N   UNL     1       8.919  -0.431  22.938  0.00  0.00    +0.000 NA
BRANCH  16  17
ATOM     17  C   UNL     1       8.699   0.444  21.858  0.00  0.00    +0.000 C 
ATOM     18  C   UNL     1       8.654  -0.324  20.515  0.00  0.00    +0.000 C 
ATOM     19  C   UNL     1       7.448   0.269  19.752  0.00  0.00    +0.000 C 
ATOM     20  C   UNL     1       6.718   1.174  20.639  0.00  0.00    +0.000 C 
ATOM     21  C   UNL     1       7.431   1.265  22.032  0.00  0.00    +0.000 C 
ATOM     22  O   UNL     1       7.502   0.358  18.403  0.00  0.00    +0.000 OA
BRANCH  21  23
ATOM     23  O   UNL     1       6.629   0.746  23.011  0.00  0.00    +0.000 OA
ATOM     24  C   UNL     1       6.080   1.850  23.714  0.00  0.00    +0.000 C 
ENDBRANCH  21  23
ENDBRANCH  16  17
ENDBRANCH  15  16
ENDBRANCH  14  15
ENDBRANCH   7  14
TORSDOF 7
ENDMDL
MODEL 7
REMARK VINA RESULT:      -6.2      2.729      5.846
REMARK  Name = 
REMARK  7 active torsions:
REMARK  status: ('A' for Active; 'I' for Inactive)
REMARK    1  A    between atoms: C_3  and  C_4
REMARK    2  A    between atoms: C_4  and  C_5
REMARK    3  A    between atoms: N_11  and  C_12
REMARK    4  A    between atoms: C_12  and  C_13
REMARK    5  A    between atoms: C_13  and  N_14
REMARK    6  A    between atoms: N_14  and  C_15
REMARK    7  A    between atoms: C_19  and  O_20
REMARK                            x       y       z     vdW  Elec       q    Type
REMARK                         _______ _______ _______ _____ _____    ______ ____
ROOT
ATOM      1  C   UNL     1       7.870  -2.548  25.340  0.00  0.00    +0.000 C 
ATOM      2  C   UNL     1       7.353  -3.379  26.321  0.00  0.00    +0.000 C 
ATOM      3  C   UNL     1       5.808  -3.699  26.558  0.00  0.00    +0.000 C 
ATOM      4  C   UNL     1       8.068  -4.825  26.809  0.00  0.00    +0.000 C 
ATOM      5  C   UNL     1       8.672  -5.056  25.296  0.00  0.00    +0.000 C 
ATOM      6  C   UNL     1       8.352  -4.397  24.130  0.00  0.00    +0.000 C 
ATOM      7  N   UNL     1       8.450  -2.932  24.002  0.00  0.00    +0.000 N 
ATOM      8  C   UNL     1       7.619  -4.970  22.959  0.00  0.00    +0.000 C 
ENDROOT
BRANCH   1   9
ATOM      9  C   UNL     1       8.420  -1.101  25.638  0.00  0.00    +0.000 C 
ATOM     10  O   UNL     1       8.850  -1.143  26.974  0.00  0.00    +0.000 OA
BRANCH   9  13
ATOM     11  F   UNL     1       5.983   1.086  24.084  0.00  0.00    +0.000 F 
ATOM     12  C   UNL     1       6.428  -0.169  24.365  0.00  0.00    +0.000 C 
ATOM     13  C   UNL     1       7.214  -0.207  25.522  0.00  0.00    +0.000 C 
ENDBRANCH   9  13
ENDBRANCH   1   9
BRANCH   7  14
ATOM     14  C   UNL     1       9.799  -2.490  23.778  0.00  0.00    +0.000 C 
BRANCH  14  15
ATOM     15  C   UNL     1       9.993  -1.700  22.518  0.00  0.00    +0.000 C 
BRANCH  15  16
ATOM     16  N   UNL     1      10.347  -0.332  22.797  0.00  0.00    +0.000 NA
BRANCH  16  17
ATOM     17  C   UNL     1       9.823   0.500  21.789  0.00  0.00    +0.000 C 
ATOM     18  C   UNL     1       8.610  -0.161  21.091  0.00  0.00    +0.000 C 
ATOM     19  C   UNL     1       7.555   0.962  20.969  0.00  0.00    +0.000 C 
ATOM     20  C   UNL     1       8.019   2.138  21.704  0.00  0.00    +0.000 C 
ATOM     21  C   UNL     1       9.436   1.872  22.320  0.00  0.00    +0.000 C 
ATOM     22  O   UNL     1       6.728   0.975  19.898  0.00  0.00    +0.000 OA
BRANCH  21  23
ATOM     23  O   UNL     1       9.371   1.880  23.685  0.00  0.00    +0.000 OA
ATOM     24  C   UNL     1       8.728   3.090  24.054  0.00  0.00    +0.000 C 
ENDBRANCH  21  23
ENDBRANCH  16  17
ENDBRANCH  15  16
ENDBRANCH  14  15
ENDBRANCH   7  14
TORSDOF 7
ENDMDL
MODEL 8
REMARK VINA RESULT:      -6.2      1.975      2.802
REMARK  Name = 
REMARK  7 active torsions:
REMARK  status: ('A' for Active; 'I' for Inactive)
REMARK    1  A    between atoms: C_3  and  C_4
REMARK    2  A    between atoms: C_4  and  C_5
REMARK    3  A    between atoms: N_11  and  C_12
REMARK    4  A    between atoms: C_12  and  C_13
REMARK    5  A    between atoms: C_13  and  N_14
REMARK    6  A    between atoms: N_14  and  C_15
REMARK    7  A    between atoms: C_19  and  O_20
REMARK                            x       y       z     vdW  Elec       q    Type
REMARK                         _______ _______ _______ _____ _____    ______ ____
ROOT
ATOM      1  C   UNL     1       7.992   1.739  22.955  0.00  0.00    +0.000 C 
ATOM      2  C   UNL     1       7.823   3.098  22.742  0.00  0.00    +0.000 C 
ATOM      3  C   UNL     1       6.444   3.829  22.411  0.00  0.00    +0.000 C 
ATOM      4  C   UNL     1       8.636   4.298  23.601  0.00  0.00    +0.000 C 
ATOM      5  C   UNL     1       8.687   3.333  24.933  0.00  0.00    +0.000 C 
ATOM      6  C   UNL     1       8.002   2.164  25.177  0.00  0.00    +0.000 C 
ATOM      7  N   UNL     1       8.077   1.005  24.270  0.00  0.00    +0.000 N 
ATOM      8  C   UNL     1       6.906   1.968  26.176  0.00  0.00    +0.000 C 
ENDROOT
BRANCH   1   9
ATOM      9  C   UNL     1       8.636   0.773  21.890  0.00  0.00    +0.000 C 
ATOM     10  O   UNL     1       9.811   1.419  21.475  0.00  0.00    +0.000 OA
BRANCH   9  13
ATOM     11  F   UNL     1       7.422   0.671  18.476  0.00  0.00    +0.000 F 
ATOM     12  C   UNL     1       7.883   0.025  19.582  0.00  0.00    +0.000 C 
ATOM     13  C   UNL     1       7.645   0.746  20.756  0.00  0.00    +0.000 C 
ENDBRANCH   9  13
ENDBRANCH   1   9
BRANCH   7  14
ATOM     14  C   UNL     1       9.278   0.238  24.457  0.00  0.00    +0.000 C 
BRANCH  14  15
ATOM     15  C   UNL     1       9.053  -1.150  24.978  0.00  0.00    +0.000 C 
BRANCH  15  16
ATOM     16  N   UNL     1       9.210  -2.139  23.942  0.00  0.00    +0.000 NA
BRANCH  16  17
ATOM     17  C   UNL     1       8.018  -2.877  23.817  0.00  0.00    +0.000 C 
ATOM     18  C   UNL     1       7.492  -2.850  22.362  0.00  0.00    +0.000 C 
ATOM     19  C   UNL     1       7.076  -4.307  22.057  0.00  0.00    +0.000 C 
ATOM     20  C   UNL     1       7.497  -5.167  23.162  0.00  0.00    +0.000 C 
ATOM     21  C   UNL     1       8.179  -4.314  24.287  0.00  0.00    +0.000 C 
ATOM     22  O   UNL     1       6.025  -4.533  21.236  0.00  0.00    +0.000 OA
BRANCH  21  23
ATOM     23  O   UNL     1       9.498  -4.655  24.409  0.00  0.00    +0.000 OA
ATOM     24  C   UNL     1       9.681  -5.100  25.744  0.00  0.00    +0.000 C 
ENDBRANCH  21  23
ENDBRANCH  16  17
ENDBRANCH  15  16
ENDBRANCH  14  15
ENDBRANCH   7  14
TORSDOF 7
ENDMDL
MODEL 9
REMARK VINA RESULT:      -5.9      2.013      2.382
REMARK  Name = 
REMARK  7 active torsions:
REMARK  status: ('A' for Active; 'I' for Inactive)
REMARK    1  A    between atoms: C_3  and  C_4
REMARK    2  A    between atoms: C_4  and  C_5
REMARK    3  A    between atoms: N_11  and  C_12
REMARK    4  A    between atoms: C_12  and  C_13
REMARK    5  A    between atoms: C_13  and  N_14
REMARK    6  A    between atoms: N_14  and  C_15
REMARK    7  A    between atoms: C_19  and  O_20
REMARK                            x       y       z     vdW  Elec       q    Type
REMARK                         _______ _______ _______ _____ _____    ______ ____
ROOT
ATOM      1  C   UNL     1       8.771  -0.296  23.150  0.00  0.00    +0.000 C 
ATOM      2  C   UNL     1       9.749   0.594  23.563  0.00  0.00    +0.000 C 
ATOM      3  C   UNL     1       9.679   2.184  23.444  0.00  0.00    +0.000 C 
ATOM      4  C   UNL     1      10.664   0.409  24.967  0.00  0.00    +0.000 C 
ATOM      5  C   UNL     1       9.408  -0.357  25.704  0.00  0.00    +0.000 C 
ATOM      6  C   UNL     1       8.094  -0.440  25.303  0.00  0.00    +0.000 C 
ATOM      7  N   UNL     1       7.707  -0.966  23.982  0.00  0.00    +0.000 N 
ATOM      8  C   UNL     1       6.921   0.211  25.964  0.00  0.00    +0.000 C 
ENDROOT
BRANCH   1   9
ATOM      9  C   UNL     1       8.899  -1.170  21.845  0.00  0.00    +0.000 C 
ATOM     10  O   UNL     1      10.199  -1.696  21.884  0.00  0.00    +0.000 OA
BRANCH   9  13
ATOM     11  F   UNL     1       7.861   0.194  18.650  0.00  0.00    +0.000 F 
ATOM     12  C   UNL     1       7.611  -0.041  19.968  0.00  0.00    +0.000 C 
ATOM     13  C   UNL     1       8.785  -0.182  20.714  0.00  0.00    +0.000 C 
ENDBRANCH   9  13
ENDBRANCH   1   9
BRANCH   7  14
ATOM     14  C   UNL     1       7.720  -2.402  23.938  0.00  0.00    +0.000 C 
BRANCH  14  15
ATOM     15  C   UNL     1       6.661  -3.059  24.773  0.00  0.00    +0.000 C 
BRANCH  15  16
ATOM     16  N   UNL     1       6.635  -4.485  24.573  0.00  0.00    +0.000 NA
BRANCH  16  17
ATOM     17  C   UNL     1       5.364  -4.982  24.918  0.00  0.00    +0.000 C 
ATOM     18  C   UNL     1       4.841  -5.974  23.851  0.00  0.00    +0.000 C 
ATOM     19  C   UNL     1       4.255  -7.157  24.654  0.00  0.00    +0.000 C 
ATOM     20  C   UNL     1       4.575  -6.981  26.069  0.00  0.00    +0.000 C 
ATOM     21  C   UNL     1       5.356  -5.639  26.290  0.00  0.00    +0.000 C 
ATOM     22  O   UNL     1       3.183  -7.819  24.162  0.00  0.00    +0.000 OA
BRANCH  21  23
ATOM     23  O   UNL     1       6.626  -5.895  26.729  0.00  0.00    +0.000 OA
ATOM     24  C   UNL     1       6.599  -5.771  28.143  0.00  0.00    +0.000 C 
ENDBRANCH  21  23
ENDBRANCH  16  17
ENDBRANCH  15  16
ENDBRANCH  14  15
ENDBRANCH   7  14
TORSDOF 7
ENDMDL
