MODEL 1
REMARK VINA RESULT:      -7.5      0.000      0.000
REMARK  Name = 
REMARK  8 active torsions:
REMARK  status: ('A' for Active; 'I' for Inactive)
REMARK    1  A    between atoms: C_2  and  C_3
REMARK    2  A    between atoms: C_7  and  S_18
REMARK    3  A    between atoms: C_9  and  C_10
REMARK    4  A    between atoms: C_12  and  C_16
REMARK    5  A    between atoms: S_18  and  C_19
REMARK    6  A    between atoms: C_19  and  C_20
REMARK    7  A    between atoms: N_22  and  C_23
REMARK    8  A    between atoms: C_27  and  C_28
REMARK                            x       y       z     vdW  Elec       q    Type
REMARK                         _______ _______ _______ _____ _____    ______ ____
ROOT
ATOM      1  C   UNL     1       8.061  -4.985  25.571  0.00  0.00    +0.000 C 
ATOM      2  C   UNL     1       9.432  -4.312  25.446  0.00  0.00    +0.000 C 
ATOM      3  O   UNL     1      10.364  -5.347  25.170  0.00  0.00    +0.000 OA
ATOM      4  N   UNL     1       9.372  -3.473  24.254  0.00  0.00    +0.000 NA
ATOM      5  C   UNL     1       8.475  -2.674  24.134  0.00  0.00    +0.000 C 
ATOM      6  N   UNL     1       7.442  -2.884  24.889  0.00  0.00    +0.000 NA
ATOM      7  C   UNL     1       6.984  -4.091  25.061  0.00  0.00    +0.000 C 
ENDROOT
BRANCH   7   8
ATOM      8  C   UNL     1       5.734  -4.461  24.614  0.00  0.00    +0.000 C 
ATOM      9  C   UNL     1       5.744  -5.586  23.712  0.00  0.00    +0.000 C 
ATOM     10  C   UNL     1       4.460  -6.580  23.807  0.00  0.00    +0.000 C 
ATOM     11  C   UNL     1       3.386  -5.383  23.679  0.00  0.00    +0.000 C 
ATOM     12  C   UNL     1       3.573  -4.000  23.967  0.00  0.00    +0.000 C 
ATOM     13  C   UNL     1       4.819  -3.221  24.292  0.00  0.00    +0.000 C 
BRANCH  10  14
ATOM     14  C   UNL     1       4.441  -6.944  25.231  0.00  0.00    +0.000 C 
ATOM     15  N   UNL     1       4.331  -7.142  26.375  0.00  0.00    +0.000 NA
ENDBRANCH  10  14
ENDBRANCH   7   8
BRANCH   1  17
ATOM     16  N   UNL     1       7.239  -5.712  27.883  0.00  0.00    +0.000 NA
ATOM     17  C   UNL     1       7.832  -5.353  26.957  0.00  0.00    +0.000 C 
ENDBRANCH   1  17
BRANCH   5  18
ATOM     18  S   UNL     1       7.800  -2.729  22.447  0.00  0.00    +0.000 S 
BRANCH  18  19
ATOM     19  C   UNL     1       9.077  -1.640  21.795  0.00  0.00    +0.000 C 
BRANCH  19  20
ATOM     20  C   UNL     1       8.465  -0.319  21.371  0.00  0.00    +0.000 C 
ATOM     21  O   UNL     1       7.268  -0.115  21.503  0.00  0.00    +0.000 OA
ATOM     22  N   UNL     1       9.314   0.702  21.217  0.00  0.00    +0.000 NA
BRANCH  22  23
ATOM     23  C   UNL     1       9.245   1.659  22.076  0.00  0.00    +0.000 C 
ATOM     24  C   UNL     1       8.126   2.606  22.200  0.00  0.00    +0.000 C 
ATOM     25  C   UNL     1       8.421   3.508  23.364  0.00  0.00    +0.000 C 
ATOM     26  C   UNL     1       9.704   3.073  23.952  0.00  0.00    +0.000 C 
ATOM     27  C   UNL     1      10.274   1.835  23.191  0.00  0.00    +0.000 C 
BRANCH  27  28
ATOM     28  C   UNL     1      10.209   0.669  24.141  0.00  0.00    +0.000 C 
ATOM     29  F   UNL     1      11.220   0.697  25.060  0.00  0.00    +0.000 F 
ATOM     30  F   UNL     1       8.989   0.606  24.769  0.00  0.00    +0.000 F 
ENDBRANCH  27  28
ENDBRANCH  22  23
ENDBRANCH  19  20
ENDBRANCH  18  19
ENDBRANCH   5  18
TORSDOF 8
ENDMDL
MODEL 2
REMARK VINA RESULT:      -7.3      3.430      7.356
REMARK  Name = 
REMARK  8 active torsions:
REMARK  status: ('A' for Active; 'I' for Inactive)
REMARK    1  A    between atoms: C_2  and  C_3
REMARK    2  A    between atoms: C_7  and  S_18
REMARK    3  A    between atoms: C_9  and  C_10
REMARK    4  A    between atoms: C_12  and  C_16
REMARK    5  A    between atoms: S_18  and  C_19
REMARK    6  A    between atoms: C_19  and  C_20
REMARK    7  A    between atoms: N_22  and  C_23
REMARK    8  A    between atoms: C_27  and  C_28
REMARK                            x       y       z     vdW  Elec       q    Type
REMARK                         _______ _______ _______ _____ _____    ______ ____
ROOT
ATOM      1  C   UNL     1       7.170   1.146  26.119  0.00  0.00    +0.000 C 
ATOM      2  C   UNL     1       7.270   0.418  27.465  0.00  0.00    +0.000 C 
ATOM      3  O   UNL     1       5.943   0.306  27.960  0.00  0.00    +0.000 OA
ATOM      4  N   UNL     1       7.720  -0.938  27.168  0.00  0.00    +0.000 NA
ATOM      5  C   UNL     1       8.716  -1.101  26.503  0.00  0.00    +0.000 C 
ATOM      6  N   UNL     1       9.087  -0.075  25.802  0.00  0.00    +0.000 NA
ATOM      7  C   UNL     1       8.206   0.649  25.171  0.00  0.00    +0.000 C 
ENDROOT
BRANCH   7   8
ATOM      8  C   UNL     1       8.184   0.723  23.795  0.00  0.00    +0.000 C 
ATOM      9  C   UNL     1       9.300   1.440  23.230  0.00  0.00    +0.000 C 
ATOM     10  C   UNL     1       9.829   0.901  21.789  0.00  0.00    +0.000 C 
ATOM     11  C   UNL     1       8.362   0.923  21.119  0.00  0.00    +0.000 C 
ATOM     12  C   UNL     1       7.097   0.878  21.772  0.00  0.00    +0.000 C 
ATOM     13  C   UNL     1       6.737   0.976  23.230  0.00  0.00    +0.000 C 
BRANCH  10  14
ATOM     14  C   UNL     1      10.093  -0.520  22.056  0.00  0.00    +0.000 C 
ATOM     15  N   UNL     1      10.331  -1.659  22.140  0.00  0.00    +0.000 NA
ENDBRANCH  10  14
ENDBRANCH   7   8
BRANCH   1  17
ATOM     16  N   UNL     1       7.632   3.662  26.131  0.00  0.00    +0.000 NA
ATOM     17  C   UNL     1       7.295   2.576  26.338  0.00  0.00    +0.000 C 
ENDBRANCH   1  17
BRANCH   5  18
ATOM     18  S   UNL     1       8.440  -2.399  25.261  0.00  0.00    +0.000 S 
BRANCH  18  19
ATOM     19  C   UNL     1       7.847  -3.580  26.485  0.00  0.00    +0.000 C 
BRANCH  19  20
ATOM     20  C   UNL     1       7.495  -4.892  25.812  0.00  0.00    +0.000 C 
ATOM     21  O   UNL     1       7.088  -5.840  26.467  0.00  0.00    +0.000 OA
ATOM     22  N   UNL     1       7.288  -4.842  24.492  0.00  0.00    +0.000 NA
BRANCH  22  23
ATOM     23  C   UNL     1       6.082  -5.024  24.078  0.00  0.00    +0.000 C 
ATOM     24  C   UNL     1       4.931  -4.179  24.429  0.00  0.00    +0.000 C 
ATOM     25  C   UNL     1       3.738  -4.704  23.682  0.00  0.00    +0.000 C 
ATOM     26  C   UNL     1       4.192  -5.843  22.859  0.00  0.00    +0.000 C 
ATOM     27  C   UNL     1       5.726  -6.077  23.029  0.00  0.00    +0.000 C 
BRANCH  27  28
ATOM     28  C   UNL     1       6.370  -5.731  21.714  0.00  0.00    +0.000 C 
ATOM     29  F   UNL     1       7.663  -6.167  21.643  0.00  0.00    +0.000 F 
ATOM     30  F   UNL     1       5.639  -6.219  20.658  0.00  0.00    +0.000 F 
ENDBRANCH  27  28
ENDBRANCH  22  23
ENDBRANCH  19  20
ENDBRANCH  18  19
ENDBRANCH   5  18
TORSDOF 8
ENDMDL
MODEL 3
REMARK VINA RESULT:      -7.3      3.339      7.248
REMARK  Name = 
REMARK  8 active torsions:
REMARK  status: ('A' for Active; 'I' for Inactive)
REMARK    1  A    between atoms: C_2  and  C_3
REMARK    2  A    between atoms: C_7  and  S_18
REMARK    3  A    between atoms: C_9  and  C_10
REMARK    4  A    between atoms: C_12  and  C_16
REMARK    5  A    between atoms: S_18  and  C_19
REMARK    6  A    between atoms: C_19  and  C_20
REMARK    7  A    between atoms: N_22  and  C_23
REMARK    8  A    between atoms: C_27  and  C_28
REMARK                            x       y       z     vdW  Elec       q    Type
REMARK                         _______ _______ _______ _____ _____    ______ ____
ROOT
ATOM      1  C   UNL     1       5.853   0.060  24.907  0.00  0.00    +0.000 C 
ATOM      2  C   UNL     1       5.415  -0.468  26.278  0.00  0.00    +0.000 C 
ATOM      3  O   UNL     1       4.174  -1.127  26.076  0.00  0.00    +0.000 OA
ATOM      4  N   UNL     1       6.380  -1.497  26.650  0.00  0.00    +0.000 NA
ATOM      5  C   UNL     1       7.560  -1.240  26.633  0.00  0.00    +0.000 C 
ATOM      6  N   UNL     1       7.889  -0.199  25.933  0.00  0.00    +0.000 NA
ATOM      7  C   UNL     1       7.337   0.021  24.774  0.00  0.00    +0.000 C 
ENDROOT
BRANCH   7   8
ATOM      8  C   UNL     1       8.070  -0.004  23.607  0.00  0.00    +0.000 C 
ATOM      9  C   UNL     1       7.608  -0.977  22.646  0.00  0.00    +0.000 C 
ATOM     10  C   UNL     1       7.768  -0.556  21.083  0.00  0.00    +0.000 C 
ATOM     11  C   UNL     1       9.326  -0.166  21.234  0.00  0.00    +0.000 C 
ATOM     12  C   UNL     1      10.031   0.195  22.418  0.00  0.00    +0.000 C 
ATOM     13  C   UNL     1       9.614   0.154  23.864  0.00  0.00    +0.000 C 
BRANCH  10  14
ATOM     14  C   UNL     1       7.067   0.735  21.026  0.00  0.00    +0.000 C 
ATOM     15  N   UNL     1       6.481   1.740  21.108  0.00  0.00    +0.000 NA
ENDBRANCH  10  14
ENDBRANCH   7   8
BRANCH   1  17
ATOM     16  N   UNL     1       4.579   2.232  24.454  0.00  0.00    +0.000 NA
ATOM     17  C   UNL     1       5.342   1.408  24.726  0.00  0.00    +0.000 C 
ENDBRANCH   1  17
BRANCH   5  18
ATOM     18  S   UNL     1       8.490  -2.596  25.859  0.00  0.00    +0.000 S 
BRANCH  18  19
ATOM     19  C   UNL     1       7.683  -3.854  26.863  0.00  0.00    +0.000 C 
BRANCH  19  20
ATOM     20  C   UNL     1       7.374  -5.074  26.017  0.00  0.00    +0.000 C 
ATOM     21  O   UNL     1       6.930  -6.091  26.528  0.00  0.00    +0.000 OA
ATOM     22  N   UNL     1       7.247  -4.865  24.703  0.00  0.00    +0.000 NA
BRANCH  22  23
ATOM     23  C   UNL     1       6.068  -4.989  24.199  0.00  0.00    +0.000 C 
ATOM     24  C   UNL     1       4.941  -4.078  24.448  0.00  0.00    +0.000 C 
ATOM     25  C   UNL     1       3.783  -4.550  23.617  0.00  0.00    +0.000 C 
ATOM     26  C   UNL     1       4.236  -5.726  22.847  0.00  0.00    +0.000 C 
ATOM     27  C   UNL     1       5.737  -6.038  23.139  0.00  0.00    +0.000 C 
BRANCH  27  28
ATOM     28  C   UNL     1       6.498  -5.751  21.873  0.00  0.00    +0.000 C 
ATOM     29  F   UNL     1       7.751  -6.296  21.891  0.00  0.00    +0.000 F 
ATOM     30  F   UNL     1       5.804  -6.175  20.766  0.00  0.00    +0.000 F 
ENDBRANCH  27  28
ENDBRANCH  22  23
ENDBRANCH  19  20
ENDBRANCH  18  19
ENDBRANCH   5  18
TORSDOF 8
ENDMDL
MODEL 4
REMARK VINA RESULT:      -7.2      3.132      7.931
REMARK  Name = 
REMARK  8 active torsions:
REMARK  status: ('A' for Active; 'I' for Inactive)
REMARK    1  A    between atoms: C_2  and  C_3
REMARK    2  A    between atoms: C_7  and  S_18
REMARK    3  A    between atoms: C_9  and  C_10
REMARK    4  A    between atoms: C_12  and  C_16
REMARK    5  A    between atoms: S_18  and  C_19
REMARK    6  A    between atoms: C_19  and  C_20
REMARK    7  A    between atoms: N_22  and  C_23
REMARK    8  A    between atoms: C_27  and  C_28
REMARK                            x       y       z     vdW  Elec       q    Type
REMARK                         _______ _______ _______ _____ _____    ______ ____
ROOT
ATOM      1  C   UNL     1       9.718   1.178  23.344  0.00  0.00    +0.000 C 
ATOM      2  C   UNL     1      10.641   0.106  23.935  0.00  0.00    +0.000 C 
ATOM      3  O   UNL     1      10.554   0.235  25.347  0.00  0.00    +0.000 OA
ATOM      4  N   UNL     1      10.047  -1.182  23.596  0.00  0.00    +0.000 NA
ATOM      5  C   UNL     1       9.769  -1.424  22.446  0.00  0.00    +0.000 C 
ATOM      6  N   UNL     1       9.676  -0.389  21.669  0.00  0.00    +0.000 NA
ATOM      7  C   UNL     1       9.088   0.697  22.083  0.00  0.00    +0.000 C 
ENDROOT
BRANCH   7   8
ATOM      8  C   UNL     1       7.925   1.155  21.503  0.00  0.00    +0.000 C 
ATOM      9  C   UNL     1       6.839   1.339  22.435  0.00  0.00    +0.000 C 
ATOM     10  C   UNL     1       5.828   2.570  22.107  0.00  0.00    +0.000 C 
ATOM     11  C   UNL     1       5.584   2.108  20.581  0.00  0.00    +0.000 C 
ATOM     12  C   UNL     1       6.418   1.288  19.768  0.00  0.00    +0.000 C 
ATOM     13  C   UNL     1       7.641   0.480  20.110  0.00  0.00    +0.000 C 
BRANCH  10  14
ATOM     14  C   UNL     1       6.742   3.717  22.006  0.00  0.00    +0.000 C 
ATOM     15  N   UNL     1       7.366   4.700  21.970  0.00  0.00    +0.000 NA
ENDBRANCH  10  14
ENDBRANCH   7   8
BRANCH   1  17
ATOM     16  N   UNL     1      11.200   3.263  23.376  0.00  0.00    +0.000 NA
ATOM     17  C   UNL     1      10.476   2.397  23.126  0.00  0.00    +0.000 C 
ENDBRANCH   1  17
BRANCH   5  18
ATOM     18  S   UNL     1       8.126  -2.195  22.341  0.00  0.00    +0.000 S 
BRANCH  18  19
ATOM     19  C   UNL     1       8.505  -3.408  23.617  0.00  0.00    +0.000 C 
BRANCH  19  20
ATOM     20  C   UNL     1       7.857  -4.736  23.280  0.00  0.00    +0.000 C 
ATOM     21  O   UNL     1       8.478  -5.782  23.401  0.00  0.00    +0.000 OA
ATOM     22  N   UNL     1       6.522  -4.744  23.221  0.00  0.00    +0.000 NA
BRANCH  22  23
ATOM     23  C   UNL     1       5.896  -5.383  24.148  0.00  0.00    +0.000 C 
ATOM     24  C   UNL     1       5.913  -5.033  25.577  0.00  0.00    +0.000 C 
ATOM     25  C   UNL     1       5.004  -5.993  26.290  0.00  0.00    +0.000 C 
ATOM     26  C   UNL     1       4.420  -6.893  25.275  0.00  0.00    +0.000 C 
ATOM     27  C   UNL     1       4.920  -6.518  23.845  0.00  0.00    +0.000 C 
BRANCH  27  28
ATOM     28  C   UNL     1       3.731  -5.988  23.091  0.00  0.00    +0.000 C 
ATOM     29  F   UNL     1       2.703  -6.887  23.052  0.00  0.00    +0.000 F 
ATOM     30  F   UNL     1       3.304  -4.790  23.611  0.00  0.00    +0.000 F 
ENDBRANCH  27  28
ENDBRANCH  22  23
ENDBRANCH  19  20
ENDBRANCH  18  19
ENDBRANCH   5  18
TORSDOF 8
ENDMDL
MODEL 5
REMARK VINA RESULT:      -7.1      2.559      3.937
REMARK  Name = 
REMARK  8 active torsions:
REMARK  status: ('A' for Active; 'I' for Inactive)
REMARK    1  A    between atoms: C_2  and  C_3
REMARK    2  A    between atoms: C_7  and  S_18
REMARK    3  A    between atoms: C_9  and  C_10
REMARK    4  A    between atoms: C_12  and  C_16
REMARK    5  A    between atoms: S_18  and  C_19
REMARK    6  A    between atoms: C_19  and  C_20
REMARK    7  A    between atoms: N_22  and  C_23
REMARK    8  A    between atoms: C_27  and  C_28
REMARK                            x       y       z     vdW  Elec       q    Type
REMARK                         _______ _______ _______ _____ _____    ______ ____
ROOT
ATOM      1  C   UNL     1       4.704  -4.610  23.387  0.00  0.00    +0.000 C 
ATOM      2  C   UNL     1       5.795  -4.999  22.383  0.00  0.00    +0.000 C 
ATOM      3  O   UNL     1       5.538  -4.255  21.201  0.00  0.00    +0.000 OA
ATOM      4  N   UNL     1       7.053  -4.498  22.928  0.00  0.00    +0.000 NA
ATOM      5  C   UNL     1       7.369  -4.787  24.057  0.00  0.00    +0.000 C 
ATOM      6  N   UNL     1       6.400  -5.203  24.813  0.00  0.00    +0.000 NA
ATOM      7  C   UNL     1       5.236  -4.619  24.778  0.00  0.00    +0.000 C 
ENDROOT
BRANCH   7   8
ATOM      8  C   UNL     1       4.732  -3.946  25.869  0.00  0.00    +0.000 C 
ATOM      9  C   UNL     1       3.727  -4.681  26.598  0.00  0.00    +0.000 C 
ATOM     10  C   UNL     1       3.703  -4.440  28.206  0.00  0.00    +0.000 C 
ATOM     11  C   UNL     1       3.669  -2.832  28.075  0.00  0.00    +0.000 C 
ATOM     12  C   UNL     1       4.091  -2.031  26.976  0.00  0.00    +0.000 C 
ATOM     13  C   UNL     1       4.512  -2.414  25.582  0.00  0.00    +0.000 C 
BRANCH  10  14
ATOM     14  C   UNL     1       5.086  -4.751  28.598  0.00  0.00    +0.000 C 
ATOM     15  N   UNL     1       6.172  -5.104  28.830  0.00  0.00    +0.000 NA
ENDBRANCH  10  14
ENDBRANCH   7   8
BRANCH   1  17
ATOM     16  N   UNL     1       2.820  -6.201  22.703  0.00  0.00    +0.000 NA
ATOM     17  C   UNL     1       3.578  -5.516  23.245  0.00  0.00    +0.000 C 
ENDBRANCH   1  17
BRANCH   5  18
ATOM     18  S   UNL     1       8.002  -3.323  24.929  0.00  0.00    +0.000 S 
BRANCH  18  19
ATOM     19  C   UNL     1       9.599  -3.399  24.100  0.00  0.00    +0.000 C 
BRANCH  19  20
ATOM     20  C   UNL     1       9.918  -2.060  23.465  0.00  0.00    +0.000 C 
ATOM     21  O   UNL     1      10.866  -1.941  22.703  0.00  0.00    +0.000 OA
ATOM     22  N   UNL     1       8.935  -1.154  23.470  0.00  0.00    +0.000 NA
BRANCH  22  23
ATOM     23  C   UNL     1       8.399  -0.861  22.336  0.00  0.00    +0.000 C 
ATOM     24  C   UNL     1       7.037  -1.232  21.922  0.00  0.00    +0.000 C 
ATOM     25  C   UNL     1       6.798  -0.637  20.564  0.00  0.00    +0.000 C 
ATOM     26  C   UNL     1       8.010   0.116  20.186  0.00  0.00    +0.000 C 
ATOM     27  C   UNL     1       9.080   0.056  21.321  0.00  0.00    +0.000 C 
BRANCH  27  28
ATOM     28  C   UNL     1       9.200   1.447  21.883  0.00  0.00    +0.000 C 
ATOM     29  F   UNL     1      10.455   1.962  21.717  0.00  0.00    +0.000 F 
ATOM     30  F   UNL     1       8.259   2.287  21.342  0.00  0.00    +0.000 F 
ENDBRANCH  27  28
ENDBRANCH  22  23
ENDBRANCH  19  20
ENDBRANCH  18  19
ENDBRANCH   5  18
TORSDOF 8
ENDMDL
MODEL 6
REMARK VINA RESULT:      -7.0      3.417      7.547
REMARK  Name = 
REMARK  8 active torsions:
REMARK  status: ('A' for Active; 'I' for Inactive)
REMARK    1  A    between atoms: C_2  and  C_3
REMARK    2  A    between atoms: C_7  and  S_18
REMARK    3  A    between atoms: C_9  and  C_10
REMARK    4  A    between atoms: C_12  and  C_16
REMARK    5  A    between atoms: S_18  and  C_19
REMARK    6  A    between atoms: C_19  and  C_20
REMARK    7  A    between atoms: N_22  and  C_23
REMARK    8  A    between atoms: C_27  and  C_28
REMARK                            x       y       z     vdW  Elec       q    Type
REMARK                         _______ _______ _______ _____ _____    ______ ____
ROOT
ATOM      1  C   UNL     1       9.279   0.718  22.888  0.00  0.00    +0.000 C 
ATOM      2  C   UNL     1      10.079  -0.281  23.733  0.00  0.00    +0.000 C 
ATOM      3  O   UNL     1       9.930   0.127  25.085  0.00  0.00    +0.000 OA
ATOM      4  N   UNL     1       9.398  -1.566  23.606  0.00  0.00    +0.000 NA
ATOM      5  C   UNL     1       9.162  -2.007  22.507  0.00  0.00    +0.000 C 
ATOM      6  N   UNL     1       9.195  -1.140  21.544  0.00  0.00    +0.000 NA
ATOM      7  C   UNL     1       8.678   0.046  21.702  0.00  0.00    +0.000 C 
ENDROOT
BRANCH   7   8
ATOM      8  C   UNL     1       7.589   0.463  20.969  0.00  0.00    +0.000 C 
ATOM      9  C   UNL     1       7.755   0.321  19.543  0.00  0.00    +0.000 C 
ATOM     10  C   UNL     1       6.407  -0.040  18.708  0.00  0.00    +0.000 C 
ATOM     11  C   UNL     1       5.549   1.160  19.360  0.00  0.00    +0.000 C 
ATOM     12  C   UNL     1       5.781   1.837  20.592  0.00  0.00    +0.000 C 
ATOM     13  C   UNL     1       6.945   1.779  21.544  0.00  0.00    +0.000 C 
BRANCH  10  14
ATOM     14  C   UNL     1       5.925  -1.252  19.386  0.00  0.00    +0.000 C 
ATOM     15  N   UNL     1       5.437  -2.205  19.847  0.00  0.00    +0.000 NA
ENDBRANCH  10  14
ENDBRANCH   7   8
BRANCH   1  17
ATOM     16  N   UNL     1      10.696   2.827  22.584  0.00  0.00    +0.000 NA
ATOM     17  C   UNL     1      10.147   1.813  22.493  0.00  0.00    +0.000 C 
ENDBRANCH   1  17
BRANCH   5  18
ATOM     18  S   UNL     1       7.468  -2.664  22.441  0.00  0.00    +0.000 S 
BRANCH  18  19
ATOM     19  C   UNL     1       7.893  -4.127  23.401  0.00  0.00    +0.000 C 
BRANCH  19  20
ATOM     20  C   UNL     1       6.984  -4.238  24.609  0.00  0.00    +0.000 C 
ATOM     21  O   UNL     1       6.687  -3.248  25.260  0.00  0.00    +0.000 OA
ATOM     22  N   UNL     1       6.246  -5.350  24.692  0.00  0.00    +0.000 NA
BRANCH  22  23
ATOM     23  C   UNL     1       4.975  -5.226  24.526  0.00  0.00    +0.000 C 
ATOM     24  C   UNL     1       4.300  -5.095  23.225  0.00  0.00    +0.000 C 
ATOM     25  C   UNL     1       2.821  -5.043  23.484  0.00  0.00    +0.000 C 
ATOM     26  C   UNL     1       2.618  -5.179  24.940  0.00  0.00    +0.000 C 
ATOM     27  C   UNL     1       3.981  -5.354  25.679  0.00  0.00    +0.000 C 
BRANCH  27  28
ATOM     28  C   UNL     1       4.005  -6.756  26.227  0.00  0.00    +0.000 C 
ATOM     29  F   UNL     1       2.901  -7.031  26.984  0.00  0.00    +0.000 F 
ATOM     30  F   UNL     1       4.142  -7.682  25.221  0.00  0.00    +0.000 F 
ENDBRANCH  27  28
ENDBRANCH  22  23
ENDBRANCH  19  20
ENDBRANCH  18  19
ENDBRANCH   5  18
TORSDOF 8
ENDMDL
MODEL 7
REMARK VINA RESULT:      -7.0      2.274      3.577
REMARK  Name = 
REMARK  8 active torsions:
REMARK  status: ('A' for Active; 'I' for Inactive)
REMARK    1  A    between atoms: C_2  and  C_3
REMARK    2  A    between atoms: C_7  and  S_18
REMARK    3  A    between atoms: C_9  and  C_10
REMARK    4  A    between atoms: C_12  and  C_16
REMARK    5  A    between atoms: S_18  and  C_19
REMARK    6  A    between atoms: C_19  and  C_20
REMARK    7  A    between atoms: N_22  and  C_23
REMARK    8  A    between atoms: C_27  and  C_28
REMARK                            x       y       z     vdW  Elec       q    Type
REMARK                         _______ _______ _______ _____ _____    ______ ____
ROOT
ATOM      1  C   UNL     1       5.945  -5.830  26.091  0.00  0.00    +0.000 C 
ATOM      2  C   UNL     1       6.335  -5.361  27.498  0.00  0.00    +0.000 C 
ATOM      3  O   UNL     1       6.974  -6.462  28.126  0.00  0.00    +0.000 OA
ATOM      4  N   UNL     1       7.353  -4.331  27.321  0.00  0.00    +0.000 NA
ATOM      5  C   UNL     1       7.132  -3.396  26.589  0.00  0.00    +0.000 C 
ATOM      6  N   UNL     1       6.168  -3.574  25.740  0.00  0.00    +0.000 NA
ATOM      7  C   UNL     1       6.039  -4.710  25.114  0.00  0.00    +0.000 C 
ENDROOT
BRANCH   7   8
ATOM      8  C   UNL     1       6.189  -4.804  23.748  0.00  0.00    +0.000 C 
ATOM      9  C   UNL     1       5.134  -4.165  22.998  0.00  0.00    +0.000 C 
ATOM     10  C   UNL     1       5.580  -3.488  21.588  0.00  0.00    +0.000 C 
ATOM     11  C   UNL     1       6.330  -4.815  21.062  0.00  0.00    +0.000 C 
ATOM     12  C   UNL     1       6.850  -5.895  21.832  0.00  0.00    +0.000 C 
ATOM     13  C   UNL     1       6.711  -6.217  23.295  0.00  0.00    +0.000 C 
BRANCH  10  14
ATOM     14  C   UNL     1       6.666  -2.585  21.996  0.00  0.00    +0.000 C 
ATOM     15  N   UNL     1       7.559  -1.861  22.192  0.00  0.00    +0.000 NA
ENDBRANCH  10  14
ENDBRANCH   7   8
BRANCH   1  17
ATOM     16  N   UNL     1       3.606  -6.796  25.711  0.00  0.00    +0.000 NA
ATOM     17  C   UNL     1       4.606  -6.391  26.127  0.00  0.00    +0.000 C 
ENDBRANCH   1  17
BRANCH   5  18
ATOM     18  S   UNL     1       8.579  -3.060  25.540  0.00  0.00    +0.000 S 
BRANCH  18  19
ATOM     19  C   UNL     1       8.635  -1.321  26.006  0.00  0.00    +0.000 C 
BRANCH  19  20
ATOM     20  C   UNL     1       9.538  -0.558  25.058  0.00  0.00    +0.000 C 
ATOM     21  O   UNL     1      10.187  -1.146  24.205  0.00  0.00    +0.000 OA
ATOM     22  N   UNL     1       9.305   0.754  24.947  0.00  0.00    +0.000 NA
BRANCH  22  23
ATOM     23  C   UNL     1       8.820   1.172  23.830  0.00  0.00    +0.000 C 
ATOM     24  C   UNL     1       7.391   1.389  23.555  0.00  0.00    +0.000 C 
ATOM     25  C   UNL     1       7.274   1.940  22.163  0.00  0.00    +0.000 C 
ATOM     26  C   UNL     1       8.642   2.082  21.623  0.00  0.00    +0.000 C 
ATOM     27  C   UNL     1       9.705   1.646  22.679  0.00  0.00    +0.000 C 
BRANCH  27  28
ATOM     28  C   UNL     1      10.454   2.888  23.082  0.00  0.00    +0.000 C 
ATOM     29  F   UNL     1       9.658   3.775  23.750  0.00  0.00    +0.000 F 
ATOM     30  F   UNL     1      11.565   2.580  23.830  0.00  0.00    +0.000 F 
ENDBRANCH  27  28
ENDBRANCH  22  23
ENDBRANCH  19  20
ENDBRANCH  18  19
ENDBRANCH   5  18
TORSDOF 8
ENDMDL
MODEL 8
REMARK VINA RESULT:      -7.0      2.378      3.516
REMARK  Name = 
REMARK  8 active torsions:
REMARK  status: ('A' for Active; 'I' for Inactive)
REMARK    1  A    between atoms: C_2  and  C_3
REMARK    2  A    between atoms: C_7  and  S_18
REMARK    3  A    between atoms: C_9  and  C_10
REMARK    4  A    between atoms: C_12  and  C_16
REMARK    5  A    between atoms: S_18  and  C_19
REMARK    6  A    between atoms: C_19  and  C_20
REMARK    7  A    between atoms: N_22  and  C_23
REMARK    8  A    between atoms: C_27  and  C_28
REMARK                            x       y       z     vdW  Elec       q    Type
REMARK                         _______ _______ _______ _____ _____    ______ ____
ROOT
ATOM      1  C   UNL     1       6.990  -4.208  23.193  0.00  0.00    +0.000 C 
ATOM      2  C   UNL     1       7.797  -3.112  22.488  0.00  0.00    +0.000 C 
ATOM      3  O   UNL     1       6.888  -2.428  21.637  0.00  0.00    +0.000 OA
ATOM      4  N   UNL     1       8.196  -2.163  23.523  0.00  0.00    +0.000 NA
ATOM      5  C   UNL     1       8.765  -2.564  24.510  0.00  0.00    +0.000 C 
ATOM      6  N   UNL     1       8.643  -3.835  24.740  0.00  0.00    +0.000 NA
ATOM      7  C   UNL     1       7.496  -4.430  24.577  0.00  0.00    +0.000 C 
ENDROOT
BRANCH   7   8
ATOM      8  C   UNL     1       6.812  -4.985  25.636  0.00  0.00    +0.000 C 
ATOM      9  C   UNL     1       5.488  -4.443  25.826  0.00  0.00    +0.000 C 
ATOM     10  C   UNL     1       4.370  -5.487  26.380  0.00  0.00    +0.000 C 
ATOM     11  C   UNL     1       5.284  -5.981  27.614  0.00  0.00    +0.000 C 
ATOM     12  C   UNL     1       6.701  -5.913  27.740  0.00  0.00    +0.000 C 
ATOM     13  C   UNL     1       7.734  -5.226  26.888  0.00  0.00    +0.000 C 
BRANCH  10  14
ATOM     14  C   UNL     1       4.443  -6.582  25.402  0.00  0.00    +0.000 C 
ATOM     15  N   UNL     1       4.447  -7.366  24.539  0.00  0.00    +0.000 NA
ENDBRANCH  10  14
ENDBRANCH   7   8
BRANCH   1  17
ATOM     16  N   UNL     1       6.774  -6.166  21.560  0.00  0.00    +0.000 NA
ATOM     17  C   UNL     1       7.049  -5.427  22.406  0.00  0.00    +0.000 C 
ENDBRANCH   1  17
BRANCH   5  18
ATOM     18  S   UNL     1       8.073  -1.784  25.999  0.00  0.00    +0.000 S 
BRANCH  18  19
ATOM     19  C   UNL     1       6.791  -0.924  25.072  0.00  0.00    +0.000 C 
BRANCH  19  20
ATOM     20  C   UNL     1       7.063   0.567  25.071  0.00  0.00    +0.000 C 
ATOM     21  O   UNL     1       7.487   1.125  26.072  0.00  0.00    +0.000 OA
ATOM     22  N   UNL     1       7.183   1.145  23.871  0.00  0.00    +0.000 NA
BRANCH  22  23
ATOM     23  C   UNL     1       8.354   1.562  23.534  0.00  0.00    +0.000 C 
ATOM     24  C   UNL     1       9.489   1.733  24.454  0.00  0.00    +0.000 C 
ATOM     25  C   UNL     1      10.671   2.172  23.639  0.00  0.00    +0.000 C 
ATOM     26  C   UNL     1      10.244   2.229  22.226  0.00  0.00    +0.000 C 
ATOM     27  C   UNL     1       8.753   1.793  22.077  0.00  0.00    +0.000 C 
BRANCH  27  28
ATOM     28  C   UNL     1       8.752   0.486  21.330  0.00  0.00    +0.000 C 
ATOM     29  F   UNL     1       8.289   0.625  20.052  0.00  0.00    +0.000 F 
ATOM     30  F   UNL     1       9.999  -0.090  21.331  0.00  0.00    +0.000 F 
ENDBRANCH  27  28
ENDBRANCH  22  23
ENDBRANCH  19  20
ENDBRANCH  18  19
ENDBRANCH   5  18
TORSDOF 8
ENDMDL
MODEL 9
REMARK VINA RESULT:      -7.0      2.859      7.102
REMARK  Name = 
REMARK  8 active torsions:
REMARK  status: ('A' for Active; 'I' for Inactive)
REMARK    1  A    between atoms: C_2  and  C_3
REMARK    2  A    between atoms: C_7  and  S_18
REMARK    3  A    between atoms: C_9  and  C_10
REMARK    4  A    between atoms: C_12  and  C_16
REMARK    5  A    between atoms: S_18  and  C_19
REMARK    6  A    between atoms: C_19  and  C_20
REMARK    7  A    between atoms: N_22  and  C_23
REMARK    8  A    between atoms: C_27  and  C_28
REMARK                            x       y       z     vdW  Elec       q    Type
REMARK                         _______ _______ _______ _____ _____    ______ ____
ROOT
ATOM      1  C   UNL     1       9.099   0.540  23.000  0.00  0.00    +0.000 C 
ATOM      2  C   UNL     1       9.755  -0.506  23.910  0.00  0.00    +0.000 C 
ATOM      3  O   UNL     1       9.600  -0.034  25.240  0.00  0.00    +0.000 OA
ATOM      4  N   UNL     1       8.946  -1.715  23.797  0.00  0.00    +0.000 NA
ATOM      5  C   UNL     1       8.705  -2.169  22.705  0.00  0.00    +0.000 C 
ATOM      6  N   UNL     1       8.867  -1.347  21.715  0.00  0.00    +0.000 NA
ATOM      7  C   UNL     1       8.474  -0.108  21.813  0.00  0.00    +0.000 C 
ENDROOT
BRANCH   7   8
ATOM      8  C   UNL     1       7.464   0.394  21.023  0.00  0.00    +0.000 C 
ATOM      9  C   UNL     1       7.764   0.381  19.611  0.00  0.00    +0.000 C 
ATOM     10  C   UNL     1       6.498   0.121  18.623  0.00  0.00    +0.000 C 
ATOM     11  C   UNL     1       5.593   1.272  19.300  0.00  0.00    +0.000 C 
ATOM     12  C   UNL     1       5.713   1.829  20.606  0.00  0.00    +0.000 C 
ATOM     13  C   UNL     1       6.780   1.663  21.654  0.00  0.00    +0.000 C 
BRANCH  10  14
ATOM     14  C   UNL     1       5.943  -1.139  19.138  0.00  0.00    +0.000 C 
ATOM     15  N   UNL     1       5.386  -2.076  19.550  0.00  0.00    +0.000 NA
ENDBRANCH  10  14
ENDBRANCH   7   8
BRANCH   1  17
ATOM     16  N   UNL     1      10.684   2.516  22.636  0.00  0.00    +0.000 NA
ATOM     17  C   UNL     1      10.093   1.522  22.605  0.00  0.00    +0.000 C 
ENDBRANCH   1  17
BRANCH   5  18
ATOM     18  S   UNL     1       6.955  -2.646  22.591  0.00  0.00    +0.000 S 
BRANCH  18  19
ATOM     19  C   UNL     1       7.341  -4.397  22.425  0.00  0.00    +0.000 C 
BRANCH  19  20
ATOM     20  C   UNL     1       6.127  -5.233  22.781  0.00  0.00    +0.000 C 
ATOM     21  O   UNL     1       6.112  -6.435  22.565  0.00  0.00    +0.000 OA
ATOM     22  N   UNL     1       5.273  -4.691  23.655  0.00  0.00    +0.000 NA
BRANCH  22  23
ATOM     23  C   UNL     1       5.210  -5.226  24.825  0.00  0.00    +0.000 C 
ATOM     24  C   UNL     1       4.696  -6.575  25.111  0.00  0.00    +0.000 C 
ATOM     25  C   UNL     1       4.865  -6.822  26.583  0.00  0.00    +0.000 C 
ATOM     26  C   UNL     1       5.512  -5.628  27.165  0.00  0.00    +0.000 C 
ATOM     27  C   UNL     1       5.813  -4.565  26.063  0.00  0.00    +0.000 C 
BRANCH  27  28
ATOM     28  C   UNL     1       7.310  -4.487  25.928  0.00  0.00    +0.000 C 
ATOM     29  F   UNL     1       7.880  -3.762  26.936  0.00  0.00    +0.000 F 
ATOM     30  F   UNL     1       7.870  -5.739  25.858  0.00  0.00    +0.000 F 
ENDBRANCH  27  28
ENDBRANCH  22  23
ENDBRANCH  19  20
ENDBRANCH  18  19
ENDBRANCH   5  18
TORSDOF 8
ENDMDL
