MODEL 1
REMARK VINA RESULT:      -6.9      0.000      0.000
REMARK  Name = 
REMARK  9 active torsions:
REMARK  status: ('A' for Active; 'I' for Inactive)
REMARK    1  A    between atoms: C_2  and  C_3
REMARK    2  A    between atoms: C_4  and  C_5
REMARK    3  A    between atoms: C_5  and  C_6
REMARK    4  A    between atoms: C_6  and  O_7
REMARK    5  A    between atoms: O_7  and  C_8
REMARK    6  A    between atoms: C_8  and  N_9
REMARK    7  A    between atoms: C_15  and  N_16
REMARK    8  A    between atoms: N_16  and  C_17
REMARK    9  A    between atoms: C_17  and  S_18
REMARK                            x       y       z     vdW  Elec       q    Type
REMARK                         _______ _______ _______ _____ _____    ______ ____
ROOT
ATOM      1  N   UNL     1       8.052  -0.912  22.531  0.00  0.00    +0.000 N 
ATOM      2  C   UNL     1       6.864  -0.451  23.178  0.00  0.00    +0.000 C 
ATOM      3  C   UNL     1       6.821  -0.915  24.631  0.00  0.00    +0.000 C 
ATOM      4  C   UNL     1       6.803   1.055  23.160  0.00  0.00    +0.000 C 
ATOM      5  C   UNL     1       8.026   1.796  23.108  0.00  0.00    +0.000 C 
ATOM      6  C   UNL     1       8.905   1.274  21.976  0.00  0.00    +0.000 C 
ATOM      7  C   UNL     1       8.720  -0.041  21.626  0.00  0.00    +0.000 C 
ATOM      8  C   UNL     1      10.265   2.044  22.063  0.00  0.00    +0.000 C 
ENDROOT
BRANCH   1   9
ATOM      9  C   UNL     1       8.626  -2.208  22.740  0.00  0.00    +0.000 C 
BRANCH   9  10
ATOM     10  O   UNL     1       7.753  -3.220  22.329  0.00  0.00    +0.000 OA
BRANCH  10  11
ATOM     11  C   UNL     1       7.750  -4.220  23.345  0.00  0.00    +0.000 C 
BRANCH  11  12
ATOM     12  C   UNL     1       6.459  -4.846  23.427  0.00  0.00    +0.000 C 
ATOM     13  C   UNL     1       5.292  -4.008  22.709  0.00  0.00    +0.000 C 
ATOM     14  O   UNL     1       5.178  -5.217  21.716  0.00  0.00    +0.000 OA
ATOM     15  C   UNL     1       6.299  -6.049  22.364  0.00  0.00    +0.000 C 
BRANCH  12  17
ATOM     16  C   UNL     1       6.754  -5.582  25.854  0.00  0.00    +0.000 C 
ATOM     17  C   UNL     1       6.005  -5.327  24.733  0.00  0.00    +0.000 C 
ATOM     18  F   UNL     1       5.107  -6.370  24.493  0.00  0.00    +0.000 F 
BRANCH  16  20
ATOM     19  O   UNL     1       7.237  -5.999  28.137  0.00  0.00    +0.000 OA
ATOM     20  C   UNL     1       6.993  -4.958  27.218  0.00  0.00    +0.000 C 
ENDBRANCH  16  20
ENDBRANCH  12  17
ENDBRANCH  11  12
ENDBRANCH  10  11
ENDBRANCH   9  10
ENDBRANCH   1   9
BRANCH   7  21
ATOM     21  N   UNL     1       8.246  -0.549  20.373  0.00  0.00    +0.000 NA
BRANCH  21  22
ATOM     22  C   UNL     1       7.572   0.387  19.505  0.00  0.00    +0.000 C 
BRANCH  22  23
ATOM     23  S   UNL     1       6.032  -0.355  18.976  0.00  0.00    +0.000 S 
ATOM     24  O   UNL     1       6.233  -0.844  17.642  0.00  0.00    +0.000 OA
ATOM     25  O   UNL     1       5.005   0.635  19.134  0.00  0.00    +0.000 OA
ATOM     26  N   UNL     1       5.701  -1.628  19.964  0.00  0.00    +0.000 NA
ENDBRANCH  22  23
ENDBRANCH  21  22
ENDBRANCH   7  21
TORSDOF 9
ENDMDL
MODEL 2
REMARK VINA RESULT:      -6.9      3.810      7.569
REMARK  Name = 
REMARK  9 active torsions:
REMARK  status: ('A' for Active; 'I' for Inactive)
REMARK    1  A    between atoms: C_2  and  C_3
REMARK    2  A    between atoms: C_4  and  C_5
REMARK    3  A    between atoms: C_5  and  C_6
REMARK    4  A    between atoms: C_6  and  O_7
REMARK    5  A    between atoms: O_7  and  C_8
REMARK    6  A    between atoms: C_8  and  N_9
REMARK    7  A    between atoms: C_15  and  N_16
REMARK    8  A    between atoms: N_16  and  C_17
REMARK    9  A    between atoms: C_17  and  S_18
REMARK                            x       y       z     vdW  Elec       q    Type
REMARK                         _______ _______ _______ _____ _____    ______ ____
ROOT
ATOM      1  N   UNL     1       6.095  -3.214  23.970  0.00  0.00    +0.000 N 
ATOM      2  C   UNL     1       5.560  -3.745  22.757  0.00  0.00    +0.000 C 
ATOM      3  C   UNL     1       5.818  -2.799  21.588  0.00  0.00    +0.000 C 
ATOM      4  C   UNL     1       6.192  -5.076  22.437  0.00  0.00    +0.000 C 
ATOM      5  C   UNL     1       7.513  -5.345  22.916  0.00  0.00    +0.000 C 
ATOM      6  C   UNL     1       7.600  -5.047  24.409  0.00  0.00    +0.000 C 
ATOM      7  C   UNL     1       6.724  -4.102  24.886  0.00  0.00    +0.000 C 
ATOM      8  C   UNL     1       9.094  -5.244  24.828  0.00  0.00    +0.000 C 
ENDROOT
BRANCH   1   9
ATOM      9  C   UNL     1       6.046  -1.827  24.329  0.00  0.00    +0.000 C 
BRANCH   9  10
ATOM     10  O   UNL     1       7.331  -1.298  24.476  0.00  0.00    +0.000 OA
BRANCH  10  11
ATOM     11  C   UNL     1       7.419  -0.149  23.635  0.00  0.00    +0.000 C 
BRANCH  11  12
ATOM     12  C   UNL     1       8.627  -0.191  22.858  0.00  0.00    +0.000 C 
ATOM     13  C   UNL     1       9.939   0.230  23.684  0.00  0.00    +0.000 C 
ATOM     14  O   UNL     1      10.425  -1.245  23.461  0.00  0.00    +0.000 OA
ATOM     15  C   UNL     1       9.181  -1.696  22.676  0.00  0.00    +0.000 C 
BRANCH  12  17
ATOM     16  C   UNL     1       8.167  -0.036  20.351  0.00  0.00    +0.000 C 
ATOM     17  C   UNL     1       8.628   0.458  21.545  0.00  0.00    +0.000 C 
ATOM     18  F   UNL     1       9.885   1.047  21.383  0.00  0.00    +0.000 F 
BRANCH  16  20
ATOM     19  O   UNL     1       7.502   0.396  18.117  0.00  0.00    +0.000 OA
ATOM     20  C   UNL     1       6.992   0.188  19.415  0.00  0.00    +0.000 C 
ENDBRANCH  16  20
ENDBRANCH  12  17
ENDBRANCH  11  12
ENDBRANCH  10  11
ENDBRANCH   9  10
ENDBRANCH   1   9
BRANCH   7  21
ATOM     21  N   UNL     1       5.668  -4.295  25.834  0.00  0.00    +0.000 NA
BRANCH  21  22
ATOM     22  C   UNL     1       5.408  -5.653  26.250  0.00  0.00    +0.000 C 
BRANCH  22  23
ATOM     23  S   UNL     1       5.993  -5.842  27.930  0.00  0.00    +0.000 S 
ATOM     24  O   UNL     1       5.401  -4.789  28.706  0.00  0.00    +0.000 OA
ATOM     25  O   UNL     1       7.428  -5.857  27.883  0.00  0.00    +0.000 OA
ATOM     26  N   UNL     1       5.463  -7.289  28.507  0.00  0.00    +0.000 NA
ENDBRANCH  22  23
ENDBRANCH  21  22
ENDBRANCH   7  21
TORSDOF 9
ENDMDL
MODEL 3
REMARK VINA RESULT:      -6.7      2.931      6.707
REMARK  Name = 
REMARK  9 active torsions:
REMARK  status: ('A' for Active; 'I' for Inactive)
REMARK    1  A    between atoms: C_2  and  C_3
REMARK    2  A    between atoms: C_4  and  C_5
REMARK    3  A    between atoms: C_5  and  C_6
REMARK    4  A    between atoms: C_6  and  O_7
REMARK    5  A    between atoms: O_7  and  C_8
REMARK    6  A    between atoms: C_8  and  N_9
REMARK    7  A    between atoms: C_15  and  N_16
REMARK    8  A    between atoms: N_16  and  C_17
REMARK    9  A    between atoms: C_17  and  S_18
REMARK                            x       y       z     vdW  Elec       q    Type
REMARK                         _______ _______ _______ _____ _____    ______ ____
ROOT
ATOM      1  N   UNL     1       7.604  -2.826  24.707  0.00  0.00    +0.000 N 
ATOM      2  C   UNL     1       8.684  -2.766  25.641  0.00  0.00    +0.000 C 
ATOM      3  C   UNL     1       8.522  -1.577  26.583  0.00  0.00    +0.000 C 
ATOM      4  C   UNL     1       8.739  -4.023  26.470  0.00  0.00    +0.000 C 
ATOM      5  C   UNL     1       7.532  -4.759  26.689  0.00  0.00    +0.000 C 
ATOM      6  C   UNL     1       6.827  -5.014  25.361  0.00  0.00    +0.000 C 
ATOM      7  C   UNL     1       7.068  -4.099  24.365  0.00  0.00    +0.000 C 
ATOM      8  C   UNL     1       5.464  -5.707  25.693  0.00  0.00    +0.000 C 
ENDROOT
BRANCH   1   9
ATOM      9  C   UNL     1       7.013  -1.677  24.089  0.00  0.00    +0.000 C 
BRANCH   9  10
ATOM     10  O   UNL     1       7.862  -1.131  23.121  0.00  0.00    +0.000 OA
BRANCH  10  11
ATOM     11  C   UNL     1       7.132  -0.115  22.437  0.00  0.00    +0.000 C 
BRANCH  11  12
ATOM     12  C   UNL     1       7.960   0.512  21.444  0.00  0.00    +0.000 C 
ATOM     13  C   UNL     1       8.313   2.044  21.773  0.00  0.00    +0.000 C 
ATOM     14  O   UNL     1       9.803   1.567  21.886  0.00  0.00    +0.000 OA
ATOM     15  C   UNL     1       9.510   0.086  21.588  0.00  0.00    +0.000 C 
BRANCH  12  17
ATOM     16  C   UNL     1       6.350   0.049  19.516  0.00  0.00    +0.000 C 
ATOM     17  C   UNL     1       7.577   0.374  20.037  0.00  0.00    +0.000 C 
ATOM     18  F   UNL     1       8.588  -0.359  19.410  0.00  0.00    +0.000 F 
BRANCH  16  20
ATOM     19  O   UNL     1       4.821   1.861  19.542  0.00  0.00    +0.000 OA
ATOM     20  C   UNL     1       5.216   0.742  18.780  0.00  0.00    +0.000 C 
ENDBRANCH  16  20
ENDBRANCH  12  17
ENDBRANCH  11  12
ENDBRANCH  10  11
ENDBRANCH   9  10
ENDBRANCH   1   9
BRANCH   7  21
ATOM     21  N   UNL     1       7.719  -4.331  23.110  0.00  0.00    +0.000 NA
BRANCH  21  22
ATOM     22  C   UNL     1       7.329  -5.517  22.385  0.00  0.00    +0.000 C 
BRANCH  22  23
ATOM     23  S   UNL     1       5.861  -5.131  21.438  0.00  0.00    +0.000 S 
ATOM     24  O   UNL     1       4.732  -5.582  22.203  0.00  0.00    +0.000 OA
ATOM     25  O   UNL     1       6.020  -5.728  20.142  0.00  0.00    +0.000 OA
ATOM     26  N   UNL     1       5.766  -3.498  21.264  0.00  0.00    +0.000 NA
ENDBRANCH  22  23
ENDBRANCH  21  22
ENDBRANCH   7  21
TORSDOF 9
ENDMDL
MODEL 4
REMARK VINA RESULT:      -6.7      1.818      2.462
REMARK  Name = 
REMARK  9 active torsions:
REMARK  status: ('A' for Active; 'I' for Inactive)
REMARK    1  A    between atoms: C_2  and  C_3
REMARK    2  A    between atoms: C_4  and  C_5
REMARK    3  A    between atoms: C_5  and  C_6
REMARK    4  A    between atoms: C_6  and  O_7
REMARK    5  A    between atoms: O_7  and  C_8
REMARK    6  A    between atoms: C_8  and  N_9
REMARK    7  A    between atoms: C_15  and  N_16
REMARK    8  A    between atoms: N_16  and  C_17
REMARK    9  A    between atoms: C_17  and  S_18
REMARK                            x       y       z     vdW  Elec       q    Type
REMARK                         _______ _______ _______ _____ _____    ______ ____
ROOT
ATOM      1  N   UNL     1       7.384   0.643  22.713  0.00  0.00    +0.000 N 
ATOM      2  C   UNL     1       7.795   2.011  22.748  0.00  0.00    +0.000 C 
ATOM      3  C   UNL     1       7.763   2.552  24.175  0.00  0.00    +0.000 C 
ATOM      4  C   UNL     1       9.199   2.155  22.219  0.00  0.00    +0.000 C 
ATOM      5  C   UNL     1      10.096   1.046  22.328  0.00  0.00    +0.000 C 
ATOM      6  C   UNL     1       9.436  -0.215  21.781  0.00  0.00    +0.000 C 
ATOM      7  C   UNL     1       8.064  -0.253  21.842  0.00  0.00    +0.000 C 
ATOM      8  C   UNL     1      10.424  -1.399  22.049  0.00  0.00    +0.000 C 
ENDROOT
BRANCH   1   9
ATOM      9  C   UNL     1       6.322   0.104  23.510  0.00  0.00    +0.000 C 
BRANCH   9  10
ATOM     10  O   UNL     1       6.685  -1.124  24.071  0.00  0.00    +0.000 OA
BRANCH  10  11
ATOM     11  C   UNL     1       5.487  -1.872  24.271  0.00  0.00    +0.000 C 
BRANCH  11  12
ATOM     12  C   UNL     1       5.694  -3.249  23.915  0.00  0.00    +0.000 C 
ATOM     13  C   UNL     1       4.334  -4.100  23.816  0.00  0.00    +0.000 C 
ATOM     14  O   UNL     1       4.665  -4.253  22.290  0.00  0.00    +0.000 OA
ATOM     15  C   UNL     1       5.968  -3.435  22.336  0.00  0.00    +0.000 C 
BRANCH  12  17
ATOM     16  C   UNL     1       8.023  -4.219  24.308  0.00  0.00    +0.000 C 
ATOM     17  C   UNL     1       6.710  -4.008  24.647  0.00  0.00    +0.000 C 
ATOM     18  F   UNL     1       6.111  -5.200  25.061  0.00  0.00    +0.000 F 
BRANCH  16  20
ATOM     19  O   UNL     1      10.242  -4.878  24.821  0.00  0.00    +0.000 OA
ATOM     20  C   UNL     1       9.396  -3.751  24.761  0.00  0.00    +0.000 C 
ENDBRANCH  16  20
ENDBRANCH  12  17
ENDBRANCH  11  12
ENDBRANCH  10  11
ENDBRANCH   9  10
ENDBRANCH   1   9
BRANCH   7  21
ATOM     21  N   UNL     1       7.146  -0.301  20.744  0.00  0.00    +0.000 NA
BRANCH  21  22
ATOM     22  C   UNL     1       7.649   0.123  19.458  0.00  0.00    +0.000 C 
BRANCH  22  23
ATOM     23  S   UNL     1       6.260   0.265  18.338  0.00  0.00    +0.000 S 
ATOM     24  O   UNL     1       5.981  -1.052  17.839  0.00  0.00    +0.000 OA
ATOM     25  O   UNL     1       6.605   1.251  17.354  0.00  0.00    +0.000 OA
ATOM     26  N   UNL     1       4.956   0.796  19.190  0.00  0.00    +0.000 NA
ENDBRANCH  22  23
ENDBRANCH  21  22
ENDBRANCH   7  21
TORSDOF 9
ENDMDL
MODEL 5
REMARK VINA RESULT:      -6.6      1.927      3.306
REMARK  Name = 
REMARK  9 active torsions:
REMARK  status: ('A' for Active; 'I' for Inactive)
REMARK    1  A    between atoms: C_2  and  C_3
REMARK    2  A    between atoms: C_4  and  C_5
REMARK    3  A    between atoms: C_5  and  C_6
REMARK    4  A    between atoms: C_6  and  O_7
REMARK    5  A    between atoms: O_7  and  C_8
REMARK    6  A    between atoms: C_8  and  N_9
REMARK    7  A    between atoms: C_15  and  N_16
REMARK    8  A    between atoms: N_16  and  C_17
REMARK    9  A    between atoms: C_17  and  S_18
REMARK                            x       y       z     vdW  Elec       q    Type
REMARK                         _______ _______ _______ _____ _____    ______ ____
ROOT
ATOM      1  N   UNL     1       7.277  -0.142  24.202  0.00  0.00    +0.000 N 
ATOM      2  C   UNL     1       7.751   0.798  25.168  0.00  0.00    +0.000 C 
ATOM      3  C   UNL     1       7.478   0.306  26.586  0.00  0.00    +0.000 C 
ATOM      4  C   UNL     1       9.236   1.008  25.017  0.00  0.00    +0.000 C 
ATOM      5  C   UNL     1      10.031  -0.047  24.470  0.00  0.00    +0.000 C 
ATOM      6  C   UNL     1       9.417  -0.541  23.164  0.00  0.00    +0.000 C 
ATOM      7  C   UNL     1       8.058  -0.378  23.037  0.00  0.00    +0.000 C 
ATOM      8  C   UNL     1      10.266  -1.770  22.696  0.00  0.00    +0.000 C 
ENDROOT
BRANCH   1   9
ATOM      9  C   UNL     1       6.053  -0.877  24.332  0.00  0.00    +0.000 C 
BRANCH   9  10
ATOM     10  O   UNL     1       6.205  -2.193  23.886  0.00  0.00    +0.000 OA
BRANCH  10  11
ATOM     11  C   UNL     1       6.081  -3.046  25.023  0.00  0.00    +0.000 C 
BRANCH  11  12
ATOM     12  C   UNL     1       7.249  -3.872  25.157  0.00  0.00    +0.000 C 
ATOM     13  C   UNL     1       8.349  -3.274  26.162  0.00  0.00    +0.000 C 
ATOM     14  O   UNL     1       8.062  -4.530  27.058  0.00  0.00    +0.000 OA
ATOM     15  C   UNL     1       6.992  -5.133  26.131  0.00  0.00    +0.000 C 
BRANCH  12  17
ATOM     16  C   UNL     1       7.459  -5.340  23.078  0.00  0.00    +0.000 C 
ATOM     17  C   UNL     1       7.894  -4.362  23.936  0.00  0.00    +0.000 C 
ATOM     18  F   UNL     1       9.249  -4.532  24.231  0.00  0.00    +0.000 F 
BRANCH  16  20
ATOM     19  O   UNL     1       5.648  -4.733  21.672  0.00  0.00    +0.000 OA
ATOM     20  C   UNL     1       6.871  -5.436  21.680  0.00  0.00    +0.000 C 
ENDBRANCH  16  20
ENDBRANCH  12  17
ENDBRANCH  11  12
ENDBRANCH  10  11
ENDBRANCH   9  10
ENDBRANCH   1   9
BRANCH   7  21
ATOM     21  N   UNL     1       7.366   0.437  22.085  0.00  0.00    +0.000 NA
BRANCH  21  22
ATOM     22  C   UNL     1       8.009   0.633  20.807  0.00  0.00    +0.000 C 
BRANCH  22  23
ATOM     23  S   UNL     1       6.791   0.361  19.524  0.00  0.00    +0.000 S 
ATOM     24  O   UNL     1       7.500   0.269  18.279  0.00  0.00    +0.000 OA
ATOM     25  O   UNL     1       5.826   1.420  19.622  0.00  0.00    +0.000 OA
ATOM     26  N   UNL     1       6.040  -1.073  19.815  0.00  0.00    +0.000 NA
ENDBRANCH  22  23
ENDBRANCH  21  22
ENDBRANCH   7  21
TORSDOF 9
ENDMDL
MODEL 6
REMARK VINA RESULT:      -6.6      1.837      3.273
REMARK  Name = 
REMARK  9 active torsions:
REMARK  status: ('A' for Active; 'I' for Inactive)
REMARK    1  A    between atoms: C_2  and  C_3
REMARK    2  A    between atoms: C_4  and  C_5
REMARK    3  A    between atoms: C_5  and  C_6
REMARK    4  A    between atoms: C_6  and  O_7
REMARK    5  A    between atoms: O_7  and  C_8
REMARK    6  A    between atoms: C_8  and  N_9
REMARK    7  A    between atoms: C_15  and  N_16
REMARK    8  A    between atoms: N_16  and  C_17
REMARK    9  A    between atoms: C_17  and  S_18
REMARK                            x       y       z     vdW  Elec       q    Type
REMARK                         _______ _______ _______ _____ _____    ______ ____
ROOT
ATOM      1  N   UNL     1       7.373   0.699  22.820  0.00  0.00    +0.000 N 
ATOM      2  C   UNL     1       7.718   2.081  22.932  0.00  0.00    +0.000 C 
ATOM      3  C   UNL     1       7.696   2.530  24.390  0.00  0.00    +0.000 C 
ATOM      4  C   UNL     1       9.099   2.328  22.382  0.00  0.00    +0.000 C 
ATOM      5  C   UNL     1      10.052   1.262  22.401  0.00  0.00    +0.000 C 
ATOM      6  C   UNL     1       9.441   0.004  21.791  0.00  0.00    +0.000 C 
ATOM      7  C   UNL     1       8.075  -0.106  21.880  0.00  0.00    +0.000 C 
ATOM      8  C   UNL     1      10.493  -1.142  21.962  0.00  0.00    +0.000 C 
ENDROOT
BRANCH   1   9
ATOM      9  C   UNL     1       6.360   0.059  23.605  0.00  0.00    +0.000 C 
BRANCH   9  10
ATOM     10  O   UNL     1       6.876  -1.045  24.293  0.00  0.00    +0.000 OA
BRANCH  10  11
ATOM     11  C   UNL     1       5.921  -2.099  24.183  0.00  0.00    +0.000 C 
BRANCH  11  12
ATOM     12  C   UNL     1       6.588  -3.367  24.077  0.00  0.00    +0.000 C 
ATOM     13  C   UNL     1       7.883  -3.495  25.018  0.00  0.00    +0.000 C 
ATOM     14  O   UNL     1       7.095  -4.622  25.773  0.00  0.00    +0.000 OA
ATOM     15  C   UNL     1       5.828  -4.525  24.905  0.00  0.00    +0.000 C 
BRANCH  12  17
ATOM     16  C   UNL     1       6.848  -5.182  22.299  0.00  0.00    +0.000 C 
ATOM     17  C   UNL     1       6.885  -3.883  22.738  0.00  0.00    +0.000 C 
ATOM     18  F   UNL     1       8.053  -3.250  22.308  0.00  0.00    +0.000 F 
BRANCH  16  20
ATOM     19  O   UNL     1       5.988  -5.504  20.113  0.00  0.00    +0.000 OA
ATOM     20  C   UNL     1       5.971  -6.050  21.413  0.00  0.00    +0.000 C 
ENDBRANCH  16  20
ENDBRANCH  12  17
ENDBRANCH  11  12
ENDBRANCH  10  11
ENDBRANCH   9  10
ENDBRANCH   1   9
BRANCH   7  21
ATOM     21  N   UNL     1       7.133  -0.133  20.801  0.00  0.00    +0.000 NA
BRANCH  21  22
ATOM     22  C   UNL     1       7.591   0.366  19.526  0.00  0.00    +0.000 C 
BRANCH  22  23
ATOM     23  S   UNL     1       6.192   0.408  18.411  0.00  0.00    +0.000 S 
ATOM     24  O   UNL     1       6.543   1.276  17.322  0.00  0.00    +0.000 OA
ATOM     25  O   UNL     1       5.045   0.797  19.181  0.00  0.00    +0.000 OA
ATOM     26  N   UNL     1       5.948  -1.110  17.822  0.00  0.00    +0.000 NA
ENDBRANCH  22  23
ENDBRANCH  21  22
ENDBRANCH   7  21
TORSDOF 9
ENDMDL
MODEL 7
REMARK VINA RESULT:      -6.5      1.579      1.882
REMARK  Name = 
REMARK  9 active torsions:
REMARK  status: ('A' for Active; 'I' for Inactive)
REMARK    1  A    between atoms: C_2  and  C_3
REMARK    2  A    between atoms: C_4  and  C_5
REMARK    3  A    between atoms: C_5  and  C_6
REMARK    4  A    between atoms: C_6  and  O_7
REMARK    5  A    between atoms: O_7  and  C_8
REMARK    6  A    between atoms: C_8  and  N_9
REMARK    7  A    between atoms: C_15  and  N_16
REMARK    8  A    between atoms: N_16  and  C_17
REMARK    9  A    between atoms: C_17  and  S_18
REMARK                            x       y       z     vdW  Elec       q    Type
REMARK                         _______ _______ _______ _____ _____    ______ ____
ROOT
ATOM      1  N   UNL     1       7.208  -0.271  22.873  0.00  0.00    +0.000 N 
ATOM      2  C   UNL     1       6.486   0.371  23.925  0.00  0.00    +0.000 C 
ATOM      3  C   UNL     1       6.685  -0.363  25.248  0.00  0.00    +0.000 C 
ATOM      4  C   UNL     1       6.954   1.793  24.098  0.00  0.00    +0.000 C 
ATOM      5  C   UNL     1       8.294   2.129  23.725  0.00  0.00    +0.000 C 
ATOM      6  C   UNL     1       8.585   1.629  22.314  0.00  0.00    +0.000 C 
ATOM      7  C   UNL     1       7.861   0.537  21.901  0.00  0.00    +0.000 C 
ATOM      8  C   UNL     1      10.096   1.921  22.029  0.00  0.00    +0.000 C 
ENDROOT
BRANCH   1   9
ATOM      9  C   UNL     1       7.326  -1.692  22.732  0.00  0.00    +0.000 C 
BRANCH   9  10
ATOM     10  O   UNL     1       6.078  -2.282  22.507  0.00  0.00    +0.000 OA
BRANCH  10  11
ATOM     11  C   UNL     1       6.312  -3.613  22.050  0.00  0.00    +0.000 C 
BRANCH  11  12
ATOM     12  C   UNL     1       5.775  -4.564  22.984  0.00  0.00    +0.000 C 
ATOM     13  C   UNL     1       4.241  -4.288  23.373  0.00  0.00    +0.000 C 
ATOM     14  O   UNL     1       3.927  -5.659  22.678  0.00  0.00    +0.000 OA
ATOM     15  C   UNL     1       5.382  -5.958  22.273  0.00  0.00    +0.000 C 
BRANCH  12  17
ATOM     16  C   UNL     1       7.916  -4.957  24.317  0.00  0.00    +0.000 C 
ATOM     17  C   UNL     1       6.554  -4.867  24.186  0.00  0.00    +0.000 C 
ATOM     18  F   UNL     1       5.926  -5.944  24.817  0.00  0.00    +0.000 F 
BRANCH  16  20
ATOM     19  O   UNL     1      10.194  -4.970  24.976  0.00  0.00    +0.000 OA
ATOM     20  C   UNL     1       9.048  -4.150  24.931  0.00  0.00    +0.000 C 
ENDBRANCH  16  20
ENDBRANCH  12  17
ENDBRANCH  11  12
ENDBRANCH  10  11
ENDBRANCH   9  10
ENDBRANCH   1   9
BRANCH   7  21
ATOM     21  N   UNL     1       6.914   0.477  20.828  0.00  0.00    +0.000 NA
BRANCH  21  22
ATOM     22  C   UNL     1       7.449   0.348  19.494  0.00  0.00    +0.000 C 
BRANCH  22  23
ATOM     23  S   UNL     1       6.080   0.359  18.342  0.00  0.00    +0.000 S 
ATOM     24  O   UNL     1       4.915   0.776  19.071  0.00  0.00    +0.000 OA
ATOM     25  O   UNL     1       6.014  -0.945  17.745  0.00  0.00    +0.000 OA
ATOM     26  N   UNL     1       6.396   1.467  17.167  0.00  0.00    +0.000 NA
ENDBRANCH  22  23
ENDBRANCH  21  22
ENDBRANCH   7  21
TORSDOF 9
ENDMDL
MODEL 8
REMARK VINA RESULT:      -6.4      3.237      7.122
REMARK  Name = 
REMARK  9 active torsions:
REMARK  status: ('A' for Active; 'I' for Inactive)
REMARK    1  A    between atoms: C_2  and  C_3
REMARK    2  A    between atoms: C_4  and  C_5
REMARK    3  A    between atoms: C_5  and  C_6
REMARK    4  A    between atoms: C_6  and  O_7
REMARK    5  A    between atoms: O_7  and  C_8
REMARK    6  A    between atoms: C_8  and  N_9
REMARK    7  A    between atoms: C_15  and  N_16
REMARK    8  A    between atoms: N_16  and  C_17
REMARK    9  A    between atoms: C_17  and  S_18
REMARK                            x       y       z     vdW  Elec       q    Type
REMARK                         _______ _______ _______ _____ _____    ______ ____
ROOT
ATOM      1  N   UNL     1       7.248  -2.866  24.308  0.00  0.00    +0.000 N 
ATOM      2  C   UNL     1       8.304  -3.733  23.891  0.00  0.00    +0.000 C 
ATOM      3  C   UNL     1       9.664  -3.072  24.094  0.00  0.00    +0.000 C 
ATOM      4  C   UNL     1       8.279  -5.016  24.683  0.00  0.00    +0.000 C 
ATOM      5  C   UNL     1       7.728  -5.002  26.003  0.00  0.00    +0.000 C 
ATOM      6  C   UNL     1       6.352  -4.346  25.988  0.00  0.00    +0.000 C 
ATOM      7  C   UNL     1       6.133  -3.426  24.992  0.00  0.00    +0.000 C 
ATOM      8  C   UNL     1       5.873  -4.256  27.475  0.00  0.00    +0.000 C 
ENDROOT
BRANCH   1   9
ATOM      9  C   UNL     1       7.240  -1.450  24.087  0.00  0.00    +0.000 C 
BRANCH   9  10
ATOM     10  O   UNL     1       7.346  -1.151  22.726  0.00  0.00    +0.000 OA
BRANCH  10  11
ATOM     11  C   UNL     1       7.132   0.252  22.579  0.00  0.00    +0.000 C 
BRANCH  11  12
ATOM     12  C   UNL     1       8.019   0.791  21.585  0.00  0.00    +0.000 C 
ATOM     13  C   UNL     1       8.360   2.346  21.800  0.00  0.00    +0.000 C 
ATOM     14  O   UNL     1       9.839   1.881  22.041  0.00  0.00    +0.000 OA
ATOM     15  C   UNL     1       9.556   0.379  21.855  0.00  0.00    +0.000 C 
BRANCH  12  17
ATOM     16  C   UNL     1       6.493   0.336  19.589  0.00  0.00    +0.000 C 
ATOM     17  C   UNL     1       7.718   0.531  20.176  0.00  0.00    +0.000 C 
ATOM     18  F   UNL     1       8.635  -0.426  19.733  0.00  0.00    +0.000 F 
BRANCH  16  20
ATOM     19  O   UNL     1       6.173   1.253  17.426  0.00  0.00    +0.000 OA
ATOM     20  C   UNL     1       5.543   1.094  18.678  0.00  0.00    +0.000 C 
ENDBRANCH  16  20
ENDBRANCH  12  17
ENDBRANCH  11  12
ENDBRANCH  10  11
ENDBRANCH   9  10
ENDBRANCH   1   9
BRANCH   7  21
ATOM     21  N   UNL     1       5.184  -3.511  23.922  0.00  0.00    +0.000 NA
BRANCH  21  22
ATOM     22  C   UNL     1       3.989  -4.281  24.174  0.00  0.00    +0.000 C 
BRANCH  22  23
ATOM     23  S   UNL     1       4.059  -5.759  23.168  0.00  0.00    +0.000 S 
ATOM     24  O   UNL     1       5.031  -5.526  22.138  0.00  0.00    +0.000 OA
ATOM     25  O   UNL     1       2.722  -6.034  22.721  0.00  0.00    +0.000 OA
ATOM     26  N   UNL     1       4.573  -7.007  24.110  0.00  0.00    +0.000 NA
ENDBRANCH  22  23
ENDBRANCH  21  22
ENDBRANCH   7  21
TORSDOF 9
ENDMDL
MODEL 9
REMARK VINA RESULT:      -6.3      3.178      6.474
REMARK  Name = 
REMARK  9 active torsions:
REMARK  status: ('A' for Active; 'I' for Inactive)
REMARK    1  A    between atoms: C_2  and  C_3
REMARK    2  A    between atoms: C_4  and  C_5
REMARK    3  A    between atoms: C_5  and  C_6
REMARK    4  A    between atoms: C_6  and  O_7
REMARK    5  A    between atoms: O_7  and  C_8
REMARK    6  A    between atoms: C_8  and  N_9
REMARK    7  A    between atoms: C_15  and  N_16
REMARK    8  A    between atoms: N_16  and  C_17
REMARK    9  A    between atoms: C_17  and  S_18
REMARK                            x       y       z     vdW  Elec       q    Type
REMARK                         _______ _______ _______ _____ _____    ______ ____
ROOT
ATOM      1  N   UNL     1       7.609  -3.079  24.824  0.00  0.00    +0.000 N 
ATOM      2  C   UNL     1       8.699  -2.964  25.740  0.00  0.00    +0.000 C 
ATOM      3  C   UNL     1       8.504  -1.771  26.672  0.00  0.00    +0.000 C 
ATOM      4  C   UNL     1       8.815  -4.208  26.583  0.00  0.00    +0.000 C 
ATOM      5  C   UNL     1       7.641  -4.989  26.828  0.00  0.00    +0.000 C 
ATOM      6  C   UNL     1       6.928  -5.287  25.514  0.00  0.00    +0.000 C 
ATOM      7  C   UNL     1       7.118  -4.375  24.504  0.00  0.00    +0.000 C 
ATOM      8  C   UNL     1       5.598  -6.030  25.874  0.00  0.00    +0.000 C 
ENDROOT
BRANCH   1   9
ATOM      9  C   UNL     1       6.964  -1.961  24.201  0.00  0.00    +0.000 C 
BRANCH   9  10
ATOM     10  O   UNL     1       7.828  -1.308  23.316  0.00  0.00    +0.000 OA
BRANCH  10  11
ATOM     11  C   UNL     1       7.035  -0.799  22.244  0.00  0.00    +0.000 C 
BRANCH  11  12
ATOM     12  C   UNL     1       7.642   0.380  21.692  0.00  0.00    +0.000 C 
ATOM     13  C   UNL     1       7.305   0.610  20.138  0.00  0.00    +0.000 C 
ATOM     14  O   UNL     1       6.556   1.909  20.600  0.00  0.00    +0.000 OA
ATOM     15  C   UNL     1       6.844   1.722  22.100  0.00  0.00    +0.000 C 
BRANCH  12  17
ATOM     16  C   UNL     1       9.728   1.797  22.094  0.00  0.00    +0.000 C 
ATOM     17  C   UNL     1       9.068   0.605  21.937  0.00  0.00    +0.000 C 
ATOM     18  F   UNL     1       9.768  -0.235  21.067  0.00  0.00    +0.000 F 
BRANCH  16  20
ATOM     19  O   UNL     1      10.962   1.679  24.115  0.00  0.00    +0.000 OA
ATOM     20  C   UNL     1      10.372   2.592  23.217  0.00  0.00    +0.000 C 
ENDBRANCH  16  20
ENDBRANCH  12  17
ENDBRANCH  11  12
ENDBRANCH  10  11
ENDBRANCH   9  10
ENDBRANCH   1   9
BRANCH   7  21
ATOM     21  N   UNL     1       7.760  -4.597  23.243  0.00  0.00    +0.000 NA
BRANCH  21  22
ATOM     22  C   UNL     1       7.321  -5.742  22.482  0.00  0.00    +0.000 C 
BRANCH  22  23
ATOM     23  S   UNL     1       5.874  -5.264  21.543  0.00  0.00    +0.000 S 
ATOM     24  O   UNL     1       5.891  -6.021  20.322  0.00  0.00    +0.000 OA
ATOM     25  O   UNL     1       5.912  -3.837  21.398  0.00  0.00    +0.000 OA
ATOM     26  N   UNL     1       4.534  -5.678  22.404  0.00  0.00    +0.000 NA
ENDBRANCH  22  23
ENDBRANCH  21  22
ENDBRANCH   7  21
TORSDOF 9
ENDMDL
