MODEL 1
REMARK VINA RESULT:      -6.3      0.000      0.000
REMARK  Name = 
REMARK  3 active torsions:
REMARK  status: ('A' for Active; 'I' for Inactive)
REMARK    1  A    between atoms: C_2  and  C_3
REMARK    2  A    between atoms: C_7  and  N_16
REMARK    3  A    between atoms: C_10  and  N_11
REMARK                            x       y       z     vdW  Elec       q    Type
REMARK                         _______ _______ _______ _____ _____    ______ ____
ROOT
ATOM      1  C   UNL     1       7.730   2.508  23.022  0.00  0.00    +0.000 C 
ATOM      2  O   UNL     1       8.781   2.061  23.722  0.00  0.00    +0.000 OA
ATOM      3  C   UNL     1       9.275   0.830  23.452  0.00  0.00    +0.000 C 
ATOM      4  C   UNL     1       9.471   0.641  21.983  0.00  0.00    +0.000 C 
ATOM      5  C   UNL     1       8.077   0.894  21.342  0.00  0.00    +0.000 C 
ATOM      6  C   UNL     1       7.548   0.329  20.270  0.00  0.00    +0.000 C 
ATOM      7  C   UNL     1       7.071   1.203  22.547  0.00  0.00    +0.000 C 
ENDROOT
BRANCH   6   8
ATOM      8  N   UNL     1       7.391   0.309  19.013  0.00  0.00    +0.000 NA
ATOM      9  C   UNL     1       6.212  -0.158  18.597  0.00  0.00    +0.000 C 
ATOM     10  O   UNL     1       5.792  -0.120  17.478  0.00  0.00    +0.000 OA
ATOM     11  N   UNL     1       5.861  -1.128  19.476  0.00  0.00    +0.000 NA
ENDBRANCH   6   8
BRANCH   4  12
ATOM     12  N   UNL     1       9.839  -0.696  21.654  0.00  0.00    +0.000 NA
ATOM     13  C   UNL     1       9.788  -1.773  22.392  0.00  0.00    +0.000 C 
ATOM     14  O   UNL     1      10.748  -2.335  22.874  0.00  0.00    +0.000 OA
ATOM     15  N   UNL     1       8.543  -2.249  22.545  0.00  0.00    +0.000 NA
ENDBRANCH   4  12
BRANCH   1  17
ATOM     16  O   UNL     1       7.357   4.685  22.560  0.00  0.00    +0.000 OA
ATOM     17  C   UNL     1       7.220   3.246  21.746  0.00  0.00    +0.000 C 
ENDBRANCH   1  17
TORSDOF 3
ENDMDL
MODEL 2
REMARK VINA RESULT:      -6.3      2.540      3.208
REMARK  Name = 
REMARK  3 active torsions:
REMARK  status: ('A' for Active; 'I' for Inactive)
REMARK    1  A    between atoms: C_2  and  C_3
REMARK    2  A    between atoms: C_7  and  N_16
REMARK    3  A    between atoms: C_10  and  N_11
REMARK                            x       y       z     vdW  Elec       q    Type
REMARK                         _______ _______ _______ _____ _____    ______ ____
ROOT
ATOM      1  C   UNL     1       8.706  -0.021  22.689  0.00  0.00    +0.000 C 
ATOM      2  O   UNL     1       8.930  -1.016  23.559  0.00  0.00    +0.000 OA
ATOM      3  C   UNL     1       8.035  -2.027  23.645  0.00  0.00    +0.000 C 
ATOM      4  C   UNL     1       7.683  -2.549  22.290  0.00  0.00    +0.000 C 
ATOM      5  C   UNL     1       7.144  -1.323  21.499  0.00  0.00    +0.000 C 
ATOM      6  C   UNL     1       6.209  -1.290  20.565  0.00  0.00    +0.000 C 
ATOM      7  C   UNL     1       7.180  -0.080  22.506  0.00  0.00    +0.000 C 
ENDROOT
BRANCH   6   8
ATOM      8  N   UNL     1       5.883  -1.389  19.345  0.00  0.00    +0.000 NA
ATOM      9  C   UNL     1       5.967  -0.256  18.643  0.00  0.00    +0.000 C 
ATOM     10  O   UNL     1       5.861  -0.151  17.457  0.00  0.00    +0.000 OA
ATOM     11  N   UNL     1       5.629   0.740  19.498  0.00  0.00    +0.000 NA
ENDBRANCH   6   8
BRANCH   4  12
ATOM     12  N   UNL     1       6.626  -3.505  22.336  0.00  0.00    +0.000 NA
ATOM     13  C   UNL     1       6.568  -4.698  21.808  0.00  0.00    +0.000 C 
ATOM     14  O   UNL     1       5.904  -5.001  20.840  0.00  0.00    +0.000 OA
ATOM     15  N   UNL     1       7.298  -5.606  22.472  0.00  0.00    +0.000 NA
ENDBRANCH   4  12
BRANCH   1  17
ATOM     16  O   UNL     1      10.070   1.526  21.775  0.00  0.00    +0.000 OA
ATOM     17  C   UNL     1       8.874   0.513  21.234  0.00  0.00    +0.000 C 
ENDBRANCH   1  17
TORSDOF 3
ENDMDL
MODEL 3
REMARK VINA RESULT:      -6.2      4.556      6.984
REMARK  Name = 
REMARK  3 active torsions:
REMARK  status: ('A' for Active; 'I' for Inactive)
REMARK    1  A    between atoms: C_2  and  C_3
REMARK    2  A    between atoms: C_7  and  N_16
REMARK    3  A    between atoms: C_10  and  N_11
REMARK                            x       y       z     vdW  Elec       q    Type
REMARK                         _______ _______ _______ _____ _____    ______ ____
ROOT
ATOM      1  C   UNL     1       6.405  -5.195  26.070  0.00  0.00    +0.000 C 
ATOM      2  O   UNL     1       5.745  -6.016  25.242  0.00  0.00    +0.000 OA
ATOM      3  C   UNL     1       5.765  -5.765  23.913  0.00  0.00    +0.000 C 
ATOM      4  C   UNL     1       7.157  -5.506  23.437  0.00  0.00    +0.000 C 
ATOM      5  C   UNL     1       7.674  -4.314  24.291  0.00  0.00    +0.000 C 
ATOM      6  C   UNL     1       8.509  -3.351  23.942  0.00  0.00    +0.000 C 
ATOM      7  C   UNL     1       6.471  -3.892  25.257  0.00  0.00    +0.000 C 
ENDROOT
BRANCH   6   8
ATOM      8  N   UNL     1       9.697  -2.926  23.825  0.00  0.00    +0.000 NA
ATOM      9  C   UNL     1       9.838  -1.842  23.060  0.00  0.00    +0.000 C 
ATOM     10  O   UNL     1      10.830  -1.187  22.939  0.00  0.00    +0.000 OA
ATOM     11  N   UNL     1       8.913  -1.955  22.075  0.00  0.00    +0.000 NA
ENDBRANCH   6   8
BRANCH   4  12
ATOM     12  N   UNL     1       7.194  -5.083  22.076  0.00  0.00    +0.000 NA
ATOM     13  C   UNL     1       6.204  -4.847  21.257  0.00  0.00    +0.000 C 
ATOM     14  O   UNL     1       5.879  -5.558  20.331  0.00  0.00    +0.000 OA
ATOM     15  N   UNL     1       5.578  -3.687  21.506  0.00  0.00    +0.000 NA
ENDBRANCH   4  12
BRANCH   1  17
ATOM     16  O   UNL     1       7.370  -5.914  27.978  0.00  0.00    +0.000 OA
ATOM     17  C   UNL     1       7.753  -4.843  26.770  0.00  0.00    +0.000 C 
ENDBRANCH   1  17
TORSDOF 3
ENDMDL
MODEL 4
REMARK VINA RESULT:      -6.1      1.740      2.201
REMARK  Name = 
REMARK  3 active torsions:
REMARK  status: ('A' for Active; 'I' for Inactive)
REMARK    1  A    between atoms: C_2  and  C_3
REMARK    2  A    between atoms: C_7  and  N_16
REMARK    3  A    between atoms: C_10  and  N_11
REMARK                            x       y       z     vdW  Elec       q    Type
REMARK                         _______ _______ _______ _____ _____    ______ ____
ROOT
ATOM      1  C   UNL     1       9.711   1.078  23.342  0.00  0.00    +0.000 C 
ATOM      2  O   UNL     1       9.921  -0.036  24.057  0.00  0.00    +0.000 OA
ATOM      3  C   UNL     1       9.188  -1.140  23.785  0.00  0.00    +0.000 C 
ATOM      4  C   UNL     1       9.169  -1.424  22.319  0.00  0.00    +0.000 C 
ATOM      5  C   UNL     1       8.604  -0.136  21.653  0.00  0.00    +0.000 C 
ATOM      6  C   UNL     1       7.860  -0.029  20.566  0.00  0.00    +0.000 C 
ATOM      7  C   UNL     1       8.271   0.881  22.842  0.00  0.00    +0.000 C 
ENDROOT
BRANCH   6   8
ATOM      8  N   UNL     1       7.778   0.076  19.306  0.00  0.00    +0.000 NA
ATOM      9  C   UNL     1       6.548  -0.056  18.806  0.00  0.00    +0.000 C 
ATOM     10  O   UNL     1       6.217   0.161  17.678  0.00  0.00    +0.000 OA
ATOM     11  N   UNL     1       5.920  -0.967  19.588  0.00  0.00    +0.000 NA
ENDBRANCH   6   8
BRANCH   4  12
ATOM     12  N   UNL     1       8.278  -2.485  21.984  0.00  0.00    +0.000 NA
ATOM     13  C   UNL     1       7.385  -3.080  22.728  0.00  0.00    +0.000 C 
ATOM     14  O   UNL     1       7.486  -4.200  23.180  0.00  0.00    +0.000 OA
ATOM     15  N   UNL     1       6.284  -2.339  22.926  0.00  0.00    +0.000 NA
ENDBRANCH   4  12
BRANCH   1  17
ATOM     16  O   UNL     1      10.829   3.011  23.025  0.00  0.00    +0.000 OA
ATOM     17  C   UNL     1      10.057   1.901  22.064  0.00  0.00    +0.000 C 
ENDBRANCH   1  17
TORSDOF 3
ENDMDL
MODEL 5
REMARK VINA RESULT:      -6.1      1.867      4.172
REMARK  Name = 
REMARK  3 active torsions:
REMARK  status: ('A' for Active; 'I' for Inactive)
REMARK    1  A    between atoms: C_2  and  C_3
REMARK    2  A    between atoms: C_7  and  N_16
REMARK    3  A    between atoms: C_10  and  N_11
REMARK                            x       y       z     vdW  Elec       q    Type
REMARK                         _______ _______ _______ _____ _____    ______ ____
ROOT
ATOM      1  C   UNL     1       9.842  -1.466  23.058  0.00  0.00    +0.000 C 
ATOM      2  O   UNL     1      10.249  -0.379  23.728  0.00  0.00    +0.000 OA
ATOM      3  C   UNL     1      10.038   0.843  23.187  0.00  0.00    +0.000 C 
ATOM      4  C   UNL     1       8.628   0.985  22.713  0.00  0.00    +0.000 C 
ATOM      5  C   UNL     1       8.412  -0.176  21.700  0.00  0.00    +0.000 C 
ATOM      6  C   UNL     1       7.656  -0.195  20.616  0.00  0.00    +0.000 C 
ATOM      7  C   UNL     1       9.803  -0.962  21.606  0.00  0.00    +0.000 C 
ENDROOT
BRANCH   6   8
ATOM      8  N   UNL     1       6.527  -0.393  20.077  0.00  0.00    +0.000 NA
ATOM      9  C   UNL     1       6.542  -0.476  18.745  0.00  0.00    +0.000 C 
ATOM     10  O   UNL     1       5.631  -0.813  18.048  0.00  0.00    +0.000 OA
ATOM     11  N   UNL     1       7.503   0.383  18.326  0.00  0.00    +0.000 NA
ENDBRANCH   6   8
BRANCH   4  12
ATOM     12  N   UNL     1       8.417   2.199  21.997  0.00  0.00    +0.000 NA
ATOM     13  C   UNL     1       7.747   3.262  22.352  0.00  0.00    +0.000 C 
ATOM     14  O   UNL     1       6.669   3.590  21.905  0.00  0.00    +0.000 OA
ATOM     15  N   UNL     1       8.390   4.013  23.259  0.00  0.00    +0.000 NA
ENDBRANCH   4  12
BRANCH   1  17
ATOM     16  O   UNL     1       9.335  -3.507  23.872  0.00  0.00    +0.000 OA
ATOM     17  C   UNL     1       8.684  -2.466  22.757  0.00  0.00    +0.000 C 
ENDBRANCH   1  17
TORSDOF 3
ENDMDL
MODEL 6
REMARK VINA RESULT:      -6.0      2.180      5.330
REMARK  Name = 
REMARK  3 active torsions:
REMARK  status: ('A' for Active; 'I' for Inactive)
REMARK    1  A    between atoms: C_2  and  C_3
REMARK    2  A    between atoms: C_7  and  N_16
REMARK    3  A    between atoms: C_10  and  N_11
REMARK                            x       y       z     vdW  Elec       q    Type
REMARK                         _______ _______ _______ _____ _____    ______ ____
ROOT
ATOM      1  C   UNL     1       8.348  -2.250  23.528  0.00  0.00    +0.000 C 
ATOM      2  O   UNL     1       7.479  -2.692  22.609  0.00  0.00    +0.000 OA
ATOM      3  C   UNL     1       6.916  -1.805  21.756  0.00  0.00    +0.000 C 
ATOM      4  C   UNL     1       7.950  -0.913  21.151  0.00  0.00    +0.000 C 
ATOM      5  C   UNL     1       8.667  -0.233  22.352  0.00  0.00    +0.000 C 
ATOM      6  C   UNL     1       9.187   0.980  22.423  0.00  0.00    +0.000 C 
ATOM      7  C   UNL     1       7.947  -0.773  23.676  0.00  0.00    +0.000 C 
ENDROOT
BRANCH   6   8
ATOM      8  N   UNL     1      10.172   1.756  22.245  0.00  0.00    +0.000 NA
ATOM      9  C   UNL     1      10.311   2.714  23.165  0.00  0.00    +0.000 C 
ATOM     10  O   UNL     1      11.247   3.449  23.283  0.00  0.00    +0.000 OA
ATOM     11  N   UNL     1       9.055   3.065  23.535  0.00  0.00    +0.000 NA
ENDBRANCH   6   8
BRANCH   4  12
ATOM     12  N   UNL     1       7.374   0.132  20.371  0.00  0.00    +0.000 NA
ATOM     13  C   UNL     1       6.894   0.090  19.157  0.00  0.00    +0.000 C 
ATOM     14  O   UNL     1       7.430   0.560  18.178  0.00  0.00    +0.000 OA
ATOM     15  N   UNL     1       5.693  -0.504  19.085  0.00  0.00    +0.000 NA
ENDBRANCH   4  12
BRANCH   1  17
ATOM     16  O   UNL     1      10.099  -3.501  24.204  0.00  0.00    +0.000 OA
ATOM     17  C   UNL     1       9.826  -1.898  23.874  0.00  0.00    +0.000 C 
ENDBRANCH   1  17
TORSDOF 3
ENDMDL
MODEL 7
REMARK VINA RESULT:      -6.0      3.069      5.436
REMARK  Name = 
REMARK  3 active torsions:
REMARK  status: ('A' for Active; 'I' for Inactive)
REMARK    1  A    between atoms: C_2  and  C_3
REMARK    2  A    between atoms: C_7  and  N_16
REMARK    3  A    between atoms: C_10  and  N_11
REMARK                            x       y       z     vdW  Elec       q    Type
REMARK                         _______ _______ _______ _____ _____    ______ ____
ROOT
ATOM      1  C   UNL     1      10.232  -0.062  22.817  0.00  0.00    +0.000 C 
ATOM      2  O   UNL     1       9.482   0.193  21.736  0.00  0.00    +0.000 OA
ATOM      3  C   UNL     1       8.722  -0.798  21.215  0.00  0.00    +0.000 C 
ATOM      4  C   UNL     1       7.934  -1.487  22.280  0.00  0.00    +0.000 C 
ATOM      5  C   UNL     1       8.984  -1.999  23.308  0.00  0.00    +0.000 C 
ATOM      6  C   UNL     1       8.944  -3.090  24.053  0.00  0.00    +0.000 C 
ATOM      7  C   UNL     1      10.420  -1.586  22.736  0.00  0.00    +0.000 C 
ENDROOT
BRANCH   6   8
ATOM      8  N   UNL     1       8.587  -3.668  25.122  0.00  0.00    +0.000 NA
ATOM      9  C   UNL     1       8.664  -5.001  25.098  0.00  0.00    +0.000 C 
ATOM     10  O   UNL     1       8.530  -5.733  26.034  0.00  0.00    +0.000 OA
ATOM     11  N   UNL     1       8.356  -5.371  23.831  0.00  0.00    +0.000 NA
ENDBRANCH   6   8
BRANCH   4  12
ATOM     12  N   UNL     1       7.247  -2.635  21.788  0.00  0.00    +0.000 NA
ATOM     13  C   UNL     1       5.982  -2.778  21.495  0.00  0.00    +0.000 C 
ATOM     14  O   UNL     1       5.179  -3.404  22.153  0.00  0.00    +0.000 OA
ATOM     15  N   UNL     1       5.638  -2.188  20.340  0.00  0.00    +0.000 NA
ENDBRANCH   4  12
BRANCH   1  17
ATOM     16  O   UNL     1      10.638   1.506  24.387  0.00  0.00    +0.000 OA
ATOM     17  C   UNL     1      10.314  -0.121  24.373  0.00  0.00    +0.000 C 
ENDBRANCH   1  17
TORSDOF 3
ENDMDL
MODEL 8
REMARK VINA RESULT:      -5.9      2.551      4.269
REMARK  Name = 
REMARK  3 active torsions:
REMARK  status: ('A' for Active; 'I' for Inactive)
REMARK    1  A    between atoms: C_2  and  C_3
REMARK    2  A    between atoms: C_7  and  N_16
REMARK    3  A    between atoms: C_10  and  N_11
REMARK                            x       y       z     vdW  Elec       q    Type
REMARK                         _______ _______ _______ _____ _____    ______ ____
ROOT
ATOM      1  C   UNL     1       7.999   0.505  23.374  0.00  0.00    +0.000 C 
ATOM      2  O   UNL     1       8.424   1.425  22.498  0.00  0.00    +0.000 OA
ATOM      3  C   UNL     1       8.549   1.083  21.194  0.00  0.00    +0.000 C 
ATOM      4  C   UNL     1       7.325   0.380  20.704  0.00  0.00    +0.000 C 
ATOM      5  C   UNL     1       7.147  -0.847  21.643  0.00  0.00    +0.000 C 
ATOM      6  C   UNL     1       6.659  -2.042  21.355  0.00  0.00    +0.000 C 
ATOM      7  C   UNL     1       8.370  -0.812  22.674  0.00  0.00    +0.000 C 
ENDROOT
BRANCH   6   8
ATOM      8  N   UNL     1       5.661  -2.814  21.242  0.00  0.00    +0.000 NA
ATOM      9  C   UNL     1       5.617  -3.813  22.126  0.00  0.00    +0.000 C 
ATOM     10  O   UNL     1       4.699  -4.558  22.304  0.00  0.00    +0.000 OA
ATOM     11  N   UNL     1       6.904  -4.174  22.349  0.00  0.00    +0.000 NA
ENDBRANCH   6   8
BRANCH   4  12
ATOM     12  N   UNL     1       7.487  -0.132  19.384  0.00  0.00    +0.000 NA
ATOM     13  C   UNL     1       6.664  -0.083  18.371  0.00  0.00    +0.000 C 
ATOM     14  O   UNL     1       6.030  -1.021  17.940  0.00  0.00    +0.000 OA
ATOM     15  N   UNL     1       6.606   1.129  17.797  0.00  0.00    +0.000 NA
ENDBRANCH   4  12
BRANCH   1  17
ATOM     16  O   UNL     1       7.115   0.676  25.442  0.00  0.00    +0.000 OA
ATOM     17  C   UNL     1       6.785  -0.187  24.065  0.00  0.00    +0.000 C 
ENDBRANCH   1  17
TORSDOF 3
ENDMDL
MODEL 9
REMARK VINA RESULT:      -5.9      3.018      5.848
REMARK  Name = 
REMARK  3 active torsions:
REMARK  status: ('A' for Active; 'I' for Inactive)
REMARK    1  A    between atoms: C_2  and  C_3
REMARK    2  A    between atoms: C_7  and  N_16
REMARK    3  A    between atoms: C_10  and  N_11
REMARK                            x       y       z     vdW  Elec       q    Type
REMARK                         _______ _______ _______ _____ _____    ______ ____
ROOT
ATOM      1  C   UNL     1       6.249  -2.481  21.767  0.00  0.00    +0.000 C 
ATOM      2  O   UNL     1       6.499  -1.440  20.961  0.00  0.00    +0.000 OA
ATOM      3  C   UNL     1       7.507  -0.594  21.275  0.00  0.00    +0.000 C 
ATOM      4  C   UNL     1       8.755  -1.345  21.608  0.00  0.00    +0.000 C 
ATOM      5  C   UNL     1       8.369  -2.295  22.777  0.00  0.00    +0.000 C 
ATOM      6  C   UNL     1       9.117  -2.705  23.787  0.00  0.00    +0.000 C 
ATOM      7  C   UNL     1       6.830  -2.006  23.109  0.00  0.00    +0.000 C 
ENDROOT
BRANCH   6   8
ATOM      8  N   UNL     1       9.949  -3.534  24.261  0.00  0.00    +0.000 NA
ATOM      9  C   UNL     1       9.480  -4.311  25.240  0.00  0.00    +0.000 C 
ATOM     10  O   UNL     1      10.033  -5.256  25.718  0.00  0.00    +0.000 OA
ATOM     11  N   UNL     1       8.605  -3.547  25.938  0.00  0.00    +0.000 NA
ENDBRANCH   6   8
BRANCH   4  12
ATOM     12  N   UNL     1       9.787  -0.491  22.095  0.00  0.00    +0.000 NA
ATOM     13  C   UNL     1       9.723   0.765  22.448  0.00  0.00    +0.000 C 
ATOM     14  O   UNL     1      10.172   1.693  21.812  0.00  0.00    +0.000 OA
ATOM     15  N   UNL     1       9.133   0.948  23.639  0.00  0.00    +0.000 NA
ENDBRANCH   4  12
BRANCH   1  17
ATOM     16  O   UNL     1       5.731  -4.447  20.789  0.00  0.00    +0.000 OA
ATOM     17  C   UNL     1       6.568  -3.961  22.137  0.00  0.00    +0.000 C 
ENDBRANCH   1  17
TORSDOF 3
ENDMDL
