MODEL 1
REMARK VINA RESULT:      -6.1      0.000      0.000
REMARK  Name = 
REMARK  5 active torsions:
REMARK  status: ('A' for Active; 'I' for Inactive)
REMARK    1  A    between atoms: C_2  and  C_3
REMARK    2  A    between atoms: C_3  and  C_4
REMARK    3  A    between atoms: C_4  and  C_5
REMARK    4  A    between atoms: C_4  and  C_13
REMARK    5  A    between atoms: C_17  and  C_20
REMARK                            x       y       z     vdW  Elec       q    Type
REMARK                         _______ _______ _______ _____ _____    ______ ____
ROOT
ATOM      1  C   UNL     1       7.015  -4.714  24.650  0.00  0.00    +0.000 C 
ATOM      2  C   UNL     1       6.945  -3.328  25.344  0.00  0.00    +0.000 C 
ENDROOT
BRANCH   1   3
ATOM      3  C   UNL     1       7.368  -4.422  23.195  0.00  0.00    +0.000 C 
ATOM      4  C   UNL     1       7.319  -3.139  22.608  0.00  0.00    +0.000 C 
ATOM      5  O   UNL     1       8.434  -2.298  22.251  0.00  0.00    +0.000 OA
ATOM      6  C   UNL     1       6.062  -2.574  21.611  0.00  0.00    +0.000 C 
ATOM      7  O   UNL     1       5.592  -3.963  21.301  0.00  0.00    +0.000 OA
ATOM      8  C   UNL     1       6.166  -5.154  21.285  0.00  0.00    +0.000 C 
ATOM      9  C   UNL     1       7.091  -5.741  22.305  0.00  0.00    +0.000 C 
ATOM     10  O   UNL     1       5.986  -5.768  20.092  0.00  0.00    +0.000 OA
ENDBRANCH   1   3
BRANCH   1  11
ATOM     11  C   UNL     1       5.764  -5.444  24.893  0.00  0.00    +0.000 C 
ATOM     12  C   UNL     1       4.616  -4.504  25.312  0.00  0.00    +0.000 C 
ATOM     13  C   UNL     1       3.956  -5.289  26.506  0.00  0.00    +0.000 C 
ATOM     14  C   UNL     1       5.116  -6.163  27.002  0.00  0.00    +0.000 C 
ATOM     15  O   UNL     1       5.994  -6.353  25.937  0.00  0.00    +0.000 OA
BRANCH  14  16
ATOM     16  C   UNL     1       5.863  -5.449  28.102  0.00  0.00    +0.000 C 
ATOM     17  O   UNL     1       7.014  -6.165  28.433  0.00  0.00    +0.000 OA
ENDBRANCH  14  16
ENDBRANCH   1  11
BRANCH   1  18
ATOM     18  C   UNL     1       8.212  -5.452  25.282  0.00  0.00    +0.000 C 
BRANCH  18  20
ATOM     19  O   UNL     1      10.444  -4.818  24.806  0.00  0.00    +0.000 OA
ATOM     20  C   UNL     1       9.314  -4.421  25.538  0.00  0.00    +0.000 C 
ENDBRANCH  18  20
ENDBRANCH   1  18
TORSDOF 5
ENDMDL
MODEL 2
REMARK VINA RESULT:      -5.9      3.391      4.844
REMARK  Name = 
REMARK  5 active torsions:
REMARK  status: ('A' for Active; 'I' for Inactive)
REMARK    1  A    between atoms: C_2  and  C_3
REMARK    2  A    between atoms: C_3  and  C_4
REMARK    3  A    between atoms: C_4  and  C_5
REMARK    4  A    between atoms: C_4  and  C_13
REMARK    5  A    between atoms: C_17  and  C_20
REMARK                            x       y       z     vdW  Elec       q    Type
REMARK                         _______ _______ _______ _____ _____    ______ ____
ROOT
ATOM      1  C   UNL     1       8.294  -0.818  22.948  0.00  0.00    +0.000 C 
ATOM      2  C   UNL     1       7.347  -0.281  24.053  0.00  0.00    +0.000 C 
ENDROOT
BRANCH   1   3
ATOM      3  C   UNL     1       8.407   0.309  21.926  0.00  0.00    +0.000 C 
ATOM      4  C   UNL     1       7.830   1.588  22.088  0.00  0.00    +0.000 C 
ATOM      5  O   UNL     1       8.509   2.822  22.392  0.00  0.00    +0.000 OA
ATOM      6  C   UNL     1       6.387   2.102  21.347  0.00  0.00    +0.000 C 
ATOM      7  O   UNL     1       6.467   1.036  20.297  0.00  0.00    +0.000 OA
ATOM      8  C   UNL     1       7.450   0.339  19.756  0.00  0.00    +0.000 C 
ATOM      9  C   UNL     1       8.598  -0.323  20.453  0.00  0.00    +0.000 C 
ATOM     10  O   UNL     1       7.438   0.442  18.406  0.00  0.00    +0.000 OA
ENDBRANCH   1   3
BRANCH   1  11
ATOM     11  C   UNL     1       7.788  -2.106  22.456  0.00  0.00    +0.000 C 
ATOM     12  C   UNL     1       6.275  -2.268  22.705  0.00  0.00    +0.000 C 
ATOM     13  C   UNL     1       6.178  -3.745  23.240  0.00  0.00    +0.000 C 
ATOM     14  C   UNL     1       7.583  -3.978  23.812  0.00  0.00    +0.000 C 
ATOM     15  O   UNL     1       8.462  -3.124  23.148  0.00  0.00    +0.000 OA
BRANCH  14  16
ATOM     16  C   UNL     1       7.606  -3.624  25.278  0.00  0.00    +0.000 C 
ATOM     17  O   UNL     1       8.916  -3.680  25.758  0.00  0.00    +0.000 OA
ENDBRANCH  14  16
ENDBRANCH   1  11
BRANCH   1  18
ATOM     18  C   UNL     1       9.676  -0.989  23.610  0.00  0.00    +0.000 C 
BRANCH  18  20
ATOM     19  O   UNL     1      10.905   0.532  24.946  0.00  0.00    +0.000 OA
ATOM     20  C   UNL     1       9.683  -0.157  24.894  0.00  0.00    +0.000 C 
ENDBRANCH  18  20
ENDBRANCH   1  18
TORSDOF 5
ENDMDL
MODEL 3
REMARK VINA RESULT:      -5.8      4.676      7.701
REMARK  Name = 
REMARK  5 active torsions:
REMARK  status: ('A' for Active; 'I' for Inactive)
REMARK    1  A    between atoms: C_2  and  C_3
REMARK    2  A    between atoms: C_3  and  C_4
REMARK    3  A    between atoms: C_4  and  C_5
REMARK    4  A    between atoms: C_4  and  C_13
REMARK    5  A    between atoms: C_17  and  C_20
REMARK                            x       y       z     vdW  Elec       q    Type
REMARK                         _______ _______ _______ _____ _____    ______ ____
ROOT
ATOM      1  C   UNL     1       8.402   0.131  22.116  0.00  0.00    +0.000 C 
ATOM      2  C   UNL     1       7.124  -0.396  22.819  0.00  0.00    +0.000 C 
ENDROOT
BRANCH   1   3
ATOM      3  C   UNL     1       9.241   0.766  23.221  0.00  0.00    +0.000 C 
ATOM      4  C   UNL     1       8.884   0.769  24.587  0.00  0.00    +0.000 C 
ATOM      5  O   UNL     1       9.467  -0.016  25.644  0.00  0.00    +0.000 OA
ATOM      6  C   UNL     1       8.197   2.091  25.408  0.00  0.00    +0.000 C 
ATOM      7  O   UNL     1       8.674   3.067  24.376  0.00  0.00    +0.000 OA
ATOM      8  C   UNL     1       9.666   3.083  23.503  0.00  0.00    +0.000 C 
ATOM      9  C   UNL     1      10.112   1.976  22.599  0.00  0.00    +0.000 C 
ATOM     10  O   UNL     1      10.421   4.199  23.640  0.00  0.00    +0.000 OA
ENDBRANCH   1   3
BRANCH   1  11
ATOM     11  C   UNL     1       8.019   0.999  20.995  0.00  0.00    +0.000 C 
ATOM     12  C   UNL     1       6.623   1.622  21.195  0.00  0.00    +0.000 C 
ATOM     13  C   UNL     1       5.968   1.445  19.776  0.00  0.00    +0.000 C 
ATOM     14  C   UNL     1       6.747   0.253  19.203  0.00  0.00    +0.000 C 
ATOM     15  O   UNL     1       7.989   0.212  19.834  0.00  0.00    +0.000 OA
BRANCH  14  16
ATOM     16  C   UNL     1       6.022  -1.033  19.516  0.00  0.00    +0.000 C 
ATOM     17  O   UNL     1       5.757  -1.726  18.334  0.00  0.00    +0.000 OA
ENDBRANCH  14  16
ENDBRANCH   1  11
BRANCH   1  18
ATOM     18  C   UNL     1       9.161  -1.113  21.611  0.00  0.00    +0.000 C 
BRANCH  18  20
ATOM     19  O   UNL     1      10.003  -2.612  23.240  0.00  0.00    +0.000 OA
ATOM     20  C   UNL     1       8.827  -2.275  22.550  0.00  0.00    +0.000 C 
ENDBRANCH  18  20
ENDBRANCH   1  18
TORSDOF 5
ENDMDL
MODEL 4
REMARK VINA RESULT:      -5.7      2.847      5.737
REMARK  Name = 
REMARK  5 active torsions:
REMARK  status: ('A' for Active; 'I' for Inactive)
REMARK    1  A    between atoms: C_2  and  C_3
REMARK    2  A    between atoms: C_3  and  C_4
REMARK    3  A    between atoms: C_4  and  C_5
REMARK    4  A    between atoms: C_4  and  C_13
REMARK    5  A    between atoms: C_17  and  C_20
REMARK                            x       y       z     vdW  Elec       q    Type
REMARK                         _______ _______ _______ _____ _____    ______ ____
ROOT
ATOM      1  C   UNL     1       7.946  -1.881  23.318  0.00  0.00    +0.000 C 
ATOM      2  C   UNL     1       6.913  -0.813  23.766  0.00  0.00    +0.000 C 
ENDROOT
BRANCH   1   3
ATOM      3  C   UNL     1       7.272  -3.227  23.564  0.00  0.00    +0.000 C 
ATOM      4  C   UNL     1       7.708  -4.448  23.005  0.00  0.00    +0.000 C 
ATOM      5  O   UNL     1       8.388  -5.524  23.680  0.00  0.00    +0.000 OA
ATOM      6  C   UNL     1       6.997  -5.209  21.661  0.00  0.00    +0.000 C 
ATOM      7  O   UNL     1       5.716  -4.449  21.822  0.00  0.00    +0.000 OA
ATOM      8  C   UNL     1       5.105  -3.866  22.839  0.00  0.00    +0.000 C 
ATOM      9  C   UNL     1       5.708  -2.988  23.891  0.00  0.00    +0.000 C 
ATOM     10  O   UNL     1       3.835  -4.316  22.971  0.00  0.00    +0.000 OA
ENDBRANCH   1   3
BRANCH   1  11
ATOM     11  C   UNL     1       9.221  -1.644  24.007  0.00  0.00    +0.000 C 
ATOM     12  C   UNL     1       9.041  -0.806  25.288  0.00  0.00    +0.000 C 
ATOM     13  C   UNL     1      10.229   0.222  25.188  0.00  0.00    +0.000 C 
ATOM     14  C   UNL     1      10.494   0.268  23.677  0.00  0.00    +0.000 C 
ATOM     15  O   UNL     1      10.058  -0.938  23.130  0.00  0.00    +0.000 OA
BRANCH  14  16
ATOM     16  C   UNL     1       9.695   1.383  23.049  0.00  0.00    +0.000 C 
ATOM     17  O   UNL     1      10.020   1.493  21.696  0.00  0.00    +0.000 OA
ENDBRANCH  14  16
ENDBRANCH   1  11
BRANCH   1  18
ATOM     18  C   UNL     1       8.107  -1.711  21.794  0.00  0.00    +0.000 C 
BRANCH  18  20
ATOM     19  O   UNL     1       7.534  -0.123  20.133  0.00  0.00    +0.000 OA
ATOM     20  C   UNL     1       7.062  -0.696  21.325  0.00  0.00    +0.000 C 
ENDBRANCH  18  20
ENDBRANCH   1  18
TORSDOF 5
ENDMDL
MODEL 5
REMARK VINA RESULT:      -5.7      2.464      5.874
REMARK  Name = 
REMARK  5 active torsions:
REMARK  status: ('A' for Active; 'I' for Inactive)
REMARK    1  A    between atoms: C_2  and  C_3
REMARK    2  A    between atoms: C_3  and  C_4
REMARK    3  A    between atoms: C_4  and  C_5
REMARK    4  A    between atoms: C_4  and  C_13
REMARK    5  A    between atoms: C_17  and  C_20
REMARK                            x       y       z     vdW  Elec       q    Type
REMARK                         _______ _______ _______ _____ _____    ______ ____
ROOT
ATOM      1  C   UNL     1       7.727  -2.568  23.262  0.00  0.00    +0.000 C 
ATOM      2  C   UNL     1       8.229  -1.860  24.548  0.00  0.00    +0.000 C 
ENDROOT
BRANCH   1   3
ATOM      3  C   UNL     1       7.834  -4.062  23.552  0.00  0.00    +0.000 C 
ATOM      4  C   UNL     1       7.015  -5.047  22.958  0.00  0.00    +0.000 C 
ATOM      5  O   UNL     1       7.387  -5.994  21.937  0.00  0.00    +0.000 OA
ATOM      6  C   UNL     1       5.679  -5.782  23.712  0.00  0.00    +0.000 C 
ATOM      7  O   UNL     1       6.156  -5.401  25.081  0.00  0.00    +0.000 OA
ATOM      8  C   UNL     1       7.337  -5.132  25.610  0.00  0.00    +0.000 C 
ATOM      9  C   UNL     1       8.424  -4.275  25.040  0.00  0.00    +0.000 C 
ATOM     10  O   UNL     1       7.574  -5.904  26.697  0.00  0.00    +0.000 OA
ENDBRANCH   1   3
BRANCH   1  11
ATOM     11  C   UNL     1       8.476  -2.065  22.103  0.00  0.00    +0.000 C 
ATOM     12  C   UNL     1       9.772  -1.342  22.522  0.00  0.00    +0.000 C 
ATOM     13  C   UNL     1       9.753  -0.060  21.608  0.00  0.00    +0.000 C 
ATOM     14  C   UNL     1       8.257   0.104  21.308  0.00  0.00    +0.000 C 
ATOM     15  O   UNL     1       7.657  -1.148  21.428  0.00  0.00    +0.000 OA
BRANCH  14  16
ATOM     16  C   UNL     1       7.627   1.023  22.326  0.00  0.00    +0.000 C 
ATOM     17  O   UNL     1       8.501   2.071  22.622  0.00  0.00    +0.000 OA
ENDBRANCH  14  16
ENDBRANCH   1  11
BRANCH   1  18
ATOM     18  C   UNL     1       6.229  -2.223  23.137  0.00  0.00    +0.000 C 
BRANCH  18  20
ATOM     19  O   UNL     1       4.572  -2.398  24.819  0.00  0.00    +0.000 OA
ATOM     20  C   UNL     1       5.754  -1.712  24.499  0.00  0.00    +0.000 C 
ENDBRANCH  18  20
ENDBRANCH   1  18
TORSDOF 5
ENDMDL
MODEL 6
REMARK VINA RESULT:      -5.6      2.911      5.743
REMARK  Name = 
REMARK  5 active torsions:
REMARK  status: ('A' for Active; 'I' for Inactive)
REMARK    1  A    between atoms: C_2  and  C_3
REMARK    2  A    between atoms: C_3  and  C_4
REMARK    3  A    between atoms: C_4  and  C_5
REMARK    4  A    between atoms: C_4  and  C_13
REMARK    5  A    between atoms: C_17  and  C_20
REMARK                            x       y       z     vdW  Elec       q    Type
REMARK                         _______ _______ _______ _____ _____    ______ ____
ROOT
ATOM      1  C   UNL     1       7.770  -1.589  23.064  0.00  0.00    +0.000 C 
ATOM      2  C   UNL     1       9.073  -1.900  22.281  0.00  0.00    +0.000 C 
ENDROOT
BRANCH   1   3
ATOM      3  C   UNL     1       7.190  -2.948  23.444  0.00  0.00    +0.000 C 
ATOM      4  C   UNL     1       7.711  -4.184  23.004  0.00  0.00    +0.000 C 
ATOM      5  O   UNL     1       8.462  -5.141  23.776  0.00  0.00    +0.000 OA
ATOM      6  C   UNL     1       7.055  -5.120  21.744  0.00  0.00    +0.000 C 
ATOM      7  O   UNL     1       5.724  -4.437  21.838  0.00  0.00    +0.000 OA
ATOM      8  C   UNL     1       5.074  -3.802  22.797  0.00  0.00    +0.000 C 
ATOM      9  C   UNL     1       5.614  -2.786  23.755  0.00  0.00    +0.000 C 
ATOM     10  O   UNL     1       3.837  -4.323  22.978  0.00  0.00    +0.000 OA
ENDBRANCH   1   3
BRANCH   1  11
ATOM     11  C   UNL     1       6.915  -0.708  22.258  0.00  0.00    +0.000 C 
ATOM     12  C   UNL     1       7.275  -0.764  20.760  0.00  0.00    +0.000 C 
ATOM     13  C   UNL     1       7.251   0.756  20.351  0.00  0.00    +0.000 C 
ATOM     14  C   UNL     1       7.522   1.458  21.689  0.00  0.00    +0.000 C 
ATOM     15  O   UNL     1       7.106   0.606  22.710  0.00  0.00    +0.000 OA
BRANCH  14  16
ATOM     16  C   UNL     1       9.003   1.696  21.852  0.00  0.00    +0.000 C 
ATOM     17  O   UNL     1       9.238   2.431  23.016  0.00  0.00    +0.000 OA
ENDBRANCH  14  16
ENDBRANCH   1  11
BRANCH   1  18
ATOM     18  C   UNL     1       8.207  -0.887  24.366  0.00  0.00    +0.000 C 
BRANCH  18  20
ATOM     19  O   UNL     1      10.278   0.042  25.044  0.00  0.00    +0.000 OA
ATOM     20  C   UNL     1       9.705  -1.142  24.552  0.00  0.00    +0.000 C 
ENDBRANCH  18  20
ENDBRANCH   1  18
TORSDOF 5
ENDMDL
MODEL 7
REMARK VINA RESULT:      -5.5      3.260      5.485
REMARK  Name = 
REMARK  5 active torsions:
REMARK  status: ('A' for Active; 'I' for Inactive)
REMARK    1  A    between atoms: C_2  and  C_3
REMARK    2  A    between atoms: C_3  and  C_4
REMARK    3  A    between atoms: C_4  and  C_5
REMARK    4  A    between atoms: C_4  and  C_13
REMARK    5  A    between atoms: C_17  and  C_20
REMARK                            x       y       z     vdW  Elec       q    Type
REMARK                         _______ _______ _______ _____ _____    ______ ____
ROOT
ATOM      1  C   UNL     1       7.688  -1.134  23.295  0.00  0.00    +0.000 C 
ATOM      2  C   UNL     1       8.525  -1.286  21.998  0.00  0.00    +0.000 C 
ENDROOT
BRANCH   1   3
ATOM      3  C   UNL     1       6.465  -2.023  23.095  0.00  0.00    +0.000 C 
ATOM      4  C   UNL     1       5.825  -2.739  24.131  0.00  0.00    +0.000 C 
ATOM      5  O   UNL     1       4.559  -2.438  24.749  0.00  0.00    +0.000 OA
ATOM      6  C   UNL     1       6.027  -4.402  24.430  0.00  0.00    +0.000 C 
ATOM      7  O   UNL     1       6.538  -4.658  23.045  0.00  0.00    +0.000 OA
ATOM      8  C   UNL     1       6.392  -4.058  21.877  0.00  0.00    +0.000 C 
ATOM      9  C   UNL     1       6.460  -2.591  21.583  0.00  0.00    +0.000 C 
ATOM     10  O   UNL     1       5.955  -4.924  20.932  0.00  0.00    +0.000 OA
ENDBRANCH   1   3
BRANCH   1  11
ATOM     11  C   UNL     1       7.434   0.291  23.547  0.00  0.00    +0.000 C 
ATOM     12  C   UNL     1       7.682   1.154  22.294  0.00  0.00    +0.000 C 
ATOM     13  C   UNL     1       8.480   2.378  22.880  0.00  0.00    +0.000 C 
ATOM     14  C   UNL     1       9.110   1.780  24.145  0.00  0.00    +0.000 C 
ATOM     15  O   UNL     1       8.315   0.711  24.554  0.00  0.00    +0.000 OA
BRANCH  14  16
ATOM     16  C   UNL     1      10.486   1.246  23.831  0.00  0.00    +0.000 C 
ATOM     17  O   UNL     1      11.014   0.609  24.955  0.00  0.00    +0.000 OA
ENDBRANCH  14  16
ENDBRANCH   1  11
BRANCH   1  18
ATOM     18  C   UNL     1       8.532  -1.749  24.428  0.00  0.00    +0.000 C 
BRANCH  18  20
ATOM     19  O   UNL     1       9.642  -3.829  24.205  0.00  0.00    +0.000 OA
ATOM     20  C   UNL     1       9.706  -2.491  23.785  0.00  0.00    +0.000 C 
ENDBRANCH  18  20
ENDBRANCH   1  18
TORSDOF 5
ENDMDL
MODEL 8
REMARK VINA RESULT:      -5.5      1.682      5.544
REMARK  Name = 
REMARK  5 active torsions:
REMARK  status: ('A' for Active; 'I' for Inactive)
REMARK    1  A    between atoms: C_2  and  C_3
REMARK    2  A    between atoms: C_3  and  C_4
REMARK    3  A    between atoms: C_4  and  C_5
REMARK    4  A    between atoms: C_4  and  C_13
REMARK    5  A    between atoms: C_17  and  C_20
REMARK                            x       y       z     vdW  Elec       q    Type
REMARK                         _______ _______ _______ _____ _____    ______ ____
ROOT
ATOM      1  C   UNL     1       7.384  -4.379  24.473  0.00  0.00    +0.000 C 
ATOM      2  C   UNL     1       6.273  -3.409  23.991  0.00  0.00    +0.000 C 
ENDROOT
BRANCH   1   3
ATOM      3  C   UNL     1       6.687  -5.358  25.414  0.00  0.00    +0.000 C 
ATOM      4  C   UNL     1       5.316  -5.688  25.343  0.00  0.00    +0.000 C 
ATOM      5  O   UNL     1       4.737  -6.918  24.865  0.00  0.00    +0.000 OA
ATOM      6  C   UNL     1       4.111  -5.051  26.361  0.00  0.00    +0.000 C 
ATOM      7  O   UNL     1       5.109  -4.641  27.400  0.00  0.00    +0.000 OA
ATOM      8  C   UNL     1       6.319  -5.052  27.737  0.00  0.00    +0.000 C 
ATOM      9  C   UNL     1       7.464  -5.381  26.830  0.00  0.00    +0.000 C 
ATOM     10  O   UNL     1       6.382  -5.358  29.055  0.00  0.00    +0.000 OA
ENDBRANCH   1   3
BRANCH   1  11
ATOM     11  C   UNL     1       8.498  -3.604  25.034  0.00  0.00    +0.000 C 
ATOM     12  C   UNL     1       8.094  -2.149  25.344  0.00  0.00    +0.000 C 
ATOM     13  C   UNL     1       9.320  -1.333  24.791  0.00  0.00    +0.000 C 
ATOM     14  C   UNL     1       9.894  -2.285  23.732  0.00  0.00    +0.000 C 
ATOM     15  O   UNL     1       9.528  -3.583  24.082  0.00  0.00    +0.000 OA
BRANCH  14  16
ATOM     16  C   UNL     1       9.292  -1.977  22.384  0.00  0.00    +0.000 C 
ATOM     17  O   UNL     1       9.684  -0.702  21.971  0.00  0.00    +0.000 OA
ENDBRANCH  14  16
ENDBRANCH   1  11
BRANCH   1  18
ATOM     18  C   UNL     1       7.838  -5.169  23.230  0.00  0.00    +0.000 C 
BRANCH  18  20
ATOM     19  O   UNL     1       6.885  -5.878  21.181  0.00  0.00    +0.000 OA
ATOM     20  C   UNL     1       6.904  -4.796  22.075  0.00  0.00    +0.000 C 
ENDBRANCH  18  20
ENDBRANCH   1  18
TORSDOF 5
ENDMDL
MODEL 9
REMARK VINA RESULT:      -5.5      2.324      4.449
REMARK  Name = 
REMARK  5 active torsions:
REMARK  status: ('A' for Active; 'I' for Inactive)
REMARK    1  A    between atoms: C_2  and  C_3
REMARK    2  A    between atoms: C_3  and  C_4
REMARK    3  A    between atoms: C_4  and  C_5
REMARK    4  A    between atoms: C_4  and  C_13
REMARK    5  A    between atoms: C_17  and  C_20
REMARK                            x       y       z     vdW  Elec       q    Type
REMARK                         _______ _______ _______ _____ _____    ______ ____
ROOT
ATOM      1  C   UNL     1       7.789  -3.703  24.618  0.00  0.00    +0.000 C 
ATOM      2  C   UNL     1       6.362  -3.216  24.984  0.00  0.00    +0.000 C 
ENDROOT
BRANCH   1   3
ATOM      3  C   UNL     1       8.719  -2.555  24.996  0.00  0.00    +0.000 C 
ATOM      4  C   UNL     1       8.323  -1.427  25.748  0.00  0.00    +0.000 C 
ATOM      5  O   UNL     1       8.648  -1.134  27.121  0.00  0.00    +0.000 OA
ATOM      6  C   UNL     1       7.965   0.101  25.091  0.00  0.00    +0.000 C 
ATOM      7  O   UNL     1       8.713  -0.193  23.826  0.00  0.00    +0.000 OA
ATOM      8  C   UNL     1       9.709  -0.999  23.503  0.00  0.00    +0.000 C 
ATOM      9  C   UNL     1       9.892  -2.433  23.893  0.00  0.00    +0.000 C 
ATOM     10  O   UNL     1      10.717  -0.319  22.908  0.00  0.00    +0.000 OA
ENDBRANCH   1   3
BRANCH   1  11
ATOM     11  C   UNL     1       7.811  -4.136  23.215  0.00  0.00    +0.000 C 
ATOM     12  C   UNL     1       6.741  -3.416  22.369  0.00  0.00    +0.000 C 
ATOM     13  C   UNL     1       6.135  -4.594  21.520  0.00  0.00    +0.000 C 
ATOM     14  C   UNL     1       6.438  -5.818  22.395  0.00  0.00    +0.000 C 
ATOM     15  O   UNL     1       7.543  -5.513  23.187  0.00  0.00    +0.000 OA
BRANCH  14  16
ATOM     16  C   UNL     1       5.271  -6.096  23.310  0.00  0.00    +0.000 C 
ATOM     17  O   UNL     1       4.079  -5.731  22.681  0.00  0.00    +0.000 OA
ENDBRANCH  14  16
ENDBRANCH   1  11
BRANCH   1  18
ATOM     18  C   UNL     1       8.097  -4.883  25.561  0.00  0.00    +0.000 C 
BRANCH  18  20
ATOM     19  O   UNL     1       7.495  -5.802  27.659  0.00  0.00    +0.000 OA
ATOM     20  C   UNL     1       7.143  -4.788  26.754  0.00  0.00    +0.000 C 
ENDBRANCH  18  20
ENDBRANCH   1  18
TORSDOF 5
ENDMDL
