MODEL 1
REMARK VINA RESULT:      -6.4      0.000      0.000
REMARK  Name = 
REMARK  5 active torsions:
REMARK  status: ('A' for Active; 'I' for Inactive)
REMARK    1  A    between atoms: C_2  and  N_3
REMARK    2  A    between atoms: C_9  and  N_10
REMARK    3  A    between atoms: N_10  and  C_11
REMARK    4  A    between atoms: C_11  and  C_12
REMARK    5  A    between atoms: N_18  and  C_19
REMARK                            x       y       z     vdW  Elec       q    Type
REMARK                         _______ _______ _______ _____ _____    ______ ____
ROOT
ATOM      1  N   UNL     1       9.077  -1.859  23.626  0.00  0.00    +0.000 NA
ENDROOT
BRANCH   1   8
ATOM      2  N   UNL     1       9.380  -0.078  21.584  0.00  0.00    +0.000 NA
ATOM      3  C   UNL     1       9.354   0.405  22.817  0.00  0.00    +0.000 C 
ATOM      4  N   UNL     1       9.812   1.484  23.053  0.00  0.00    +0.000 NA
ATOM      5  C   UNL     1      10.922   1.732  23.874  0.00  0.00    +0.000 C 
ATOM      6  C   UNL     1      10.693   0.610  24.885  0.00  0.00    +0.000 C 
ATOM      7  C   UNL     1       9.380   0.004  25.151  0.00  0.00    +0.000 C 
ATOM      8  C   UNL     1       8.635  -0.524  23.869  0.00  0.00    +0.000 C 
BRANCH   2  10
ATOM      9  C   UNL     1       7.741   0.221  19.812  0.00  0.00    +0.000 C 
ATOM     10  C   UNL     1       8.238  -0.675  20.935  0.00  0.00    +0.000 C 
ENDBRANCH   2  10
ENDBRANCH   1   8
BRANCH   1  11
ATOM     11  C   UNL     1       8.893  -2.642  24.823  0.00  0.00    +0.000 C 
BRANCH  11  12
ATOM     12  C   UNL     1       9.047  -4.127  24.444  0.00  0.00    +0.000 C 
ATOM     13  C   UNL     1       9.401  -4.879  25.755  0.00  0.00    +0.000 C 
ATOM     14  C   UNL     1       8.114  -5.210  26.450  0.00  0.00    +0.000 C 
ATOM     15  C   UNL     1       6.860  -4.842  25.924  0.00  0.00    +0.000 C 
ATOM     16  N   UNL     1       6.744  -4.522  24.695  0.00  0.00    +0.000 NA
ATOM     17  C   UNL     1       7.745  -4.656  23.974  0.00  0.00    +0.000 C 
ATOM     18  N   UNL     1       7.483  -4.773  22.668  0.00  0.00    +0.000 NA
BRANCH  18  19
ATOM     19  C   UNL     1       7.085  -6.050  22.098  0.00  0.00    +0.000 C 
ATOM     20  C   UNL     1       6.195  -5.802  20.885  0.00  0.00    +0.000 C 
ENDBRANCH  18  19
ENDBRANCH  11  12
ENDBRANCH   1  11
TORSDOF 5
ENDMDL
MODEL 2
REMARK VINA RESULT:      -6.2      1.619      5.779
REMARK  Name = 
REMARK  5 active torsions:
REMARK  status: ('A' for Active; 'I' for Inactive)
REMARK    1  A    between atoms: C_2  and  N_3
REMARK    2  A    between atoms: C_9  and  N_10
REMARK    3  A    between atoms: N_10  and  C_11
REMARK    4  A    between atoms: C_11  and  C_12
REMARK    5  A    between atoms: N_18  and  C_19
REMARK                            x       y       z     vdW  Elec       q    Type
REMARK                         _______ _______ _______ _____ _____    ______ ____
ROOT
ATOM      1  N   UNL     1       7.229  -2.071  23.145  0.00  0.00    +0.000 NA
ENDROOT
BRANCH   1   8
ATOM      2  N   UNL     1       6.525  -4.704  23.206  0.00  0.00    +0.000 NA
ATOM      3  C   UNL     1       7.797  -4.407  23.426  0.00  0.00    +0.000 C 
ATOM      4  N   UNL     1       8.511  -5.184  23.987  0.00  0.00    +0.000 NA
ATOM      5  C   UNL     1       9.115  -4.976  25.236  0.00  0.00    +0.000 C 
ATOM      6  C   UNL     1       9.342  -3.471  25.113  0.00  0.00    +0.000 C 
ATOM      7  C   UNL     1       9.453  -2.762  23.829  0.00  0.00    +0.000 C 
ATOM      8  C   UNL     1       8.254  -3.016  22.840  0.00  0.00    +0.000 C 
BRANCH   2  10
ATOM      9  C   UNL     1       6.250  -5.653  20.983  0.00  0.00    +0.000 C 
ATOM     10  C   UNL     1       5.871  -4.526  21.933  0.00  0.00    +0.000 C 
ENDBRANCH   2  10
ENDBRANCH   1   8
BRANCH   1  11
ATOM     11  C   UNL     1       7.835  -0.794  23.429  0.00  0.00    +0.000 C 
BRANCH  11  12
ATOM     12  C   UNL     1       7.207   0.248  22.483  0.00  0.00    +0.000 C 
ATOM     13  C   UNL     1       7.430   1.633  23.148  0.00  0.00    +0.000 C 
ATOM     14  C   UNL     1       8.790   2.117  22.745  0.00  0.00    +0.000 C 
ATOM     15  C   UNL     1       9.641   1.359  21.917  0.00  0.00    +0.000 C 
ATOM     16  N   UNL     1       9.174   0.407  21.208  0.00  0.00    +0.000 NA
ATOM     17  C   UNL     1       7.943   0.256  21.198  0.00  0.00    +0.000 C 
ATOM     18  N   UNL     1       7.467  -0.396  20.131  0.00  0.00    +0.000 NA
BRANCH  18  19
ATOM     19  C   UNL     1       7.244   0.296  18.872  0.00  0.00    +0.000 C 
ATOM     20  C   UNL     1       5.791   0.752  18.800  0.00  0.00    +0.000 C 
ENDBRANCH  18  19
ENDBRANCH  11  12
ENDBRANCH   1  11
TORSDOF 5
ENDMDL
MODEL 3
REMARK VINA RESULT:      -6.1      1.313      2.629
REMARK  Name = 
REMARK  5 active torsions:
REMARK  status: ('A' for Active; 'I' for Inactive)
REMARK    1  A    between atoms: C_2  and  N_3
REMARK    2  A    between atoms: C_9  and  N_10
REMARK    3  A    between atoms: N_10  and  C_11
REMARK    4  A    between atoms: C_11  and  C_12
REMARK    5  A    between atoms: N_18  and  C_19
REMARK                            x       y       z     vdW  Elec       q    Type
REMARK                         _______ _______ _______ _____ _____    ______ ____
ROOT
ATOM      1  N   UNL     1       8.764  -1.546  22.308  0.00  0.00    +0.000 NA
ENDROOT
BRANCH   1   8
ATOM      2  N   UNL     1       8.591   0.955  21.238  0.00  0.00    +0.000 NA
ATOM      3  C   UNL     1       8.813   0.862  22.541  0.00  0.00    +0.000 C 
ATOM      4  N   UNL     1       9.285   1.782  23.141  0.00  0.00    +0.000 NA
ATOM      5  C   UNL     1      10.536   1.780  23.775  0.00  0.00    +0.000 C 
ATOM      6  C   UNL     1      10.551   0.317  24.212  0.00  0.00    +0.000 C 
ATOM      7  C   UNL     1       9.337  -0.488  24.415  0.00  0.00    +0.000 C 
ATOM      8  C   UNL     1       8.352  -0.501  23.187  0.00  0.00    +0.000 C 
BRANCH   2  10
ATOM      9  C   UNL     1       7.602   0.146  19.168  0.00  0.00    +0.000 C 
ATOM     10  C   UNL     1       7.353   0.567  20.609  0.00  0.00    +0.000 C 
ENDBRANCH   2  10
ENDBRANCH   1   8
BRANCH   1  11
ATOM     11  C   UNL     1       7.723  -2.541  22.237  0.00  0.00    +0.000 C 
BRANCH  11  12
ATOM     12  C   UNL     1       7.457  -3.050  23.667  0.00  0.00    +0.000 C 
ATOM     13  C   UNL     1       5.949  -3.411  23.729  0.00  0.00    +0.000 C 
ATOM     14  C   UNL     1       5.796  -4.815  23.223  0.00  0.00    +0.000 C 
ATOM     15  C   UNL     1       6.895  -5.576  22.779  0.00  0.00    +0.000 C 
ATOM     16  N   UNL     1       8.084  -5.243  23.099  0.00  0.00    +0.000 NA
ATOM     17  C   UNL     1       8.216  -4.301  23.896  0.00  0.00    +0.000 C 
ATOM     18  N   UNL     1       9.379  -4.286  24.558  0.00  0.00    +0.000 NA
BRANCH  18  19
ATOM     19  C   UNL     1       9.579  -5.117  25.735  0.00  0.00    +0.000 C 
ATOM     20  C   UNL     1       8.376  -4.974  26.660  0.00  0.00    +0.000 C 
ENDBRANCH  18  19
ENDBRANCH  11  12
ENDBRANCH   1  11
TORSDOF 5
ENDMDL
MODEL 4
REMARK VINA RESULT:      -6.0      1.838      3.716
REMARK  Name = 
REMARK  5 active torsions:
REMARK  status: ('A' for Active; 'I' for Inactive)
REMARK    1  A    between atoms: C_2  and  N_3
REMARK    2  A    between atoms: C_9  and  N_10
REMARK    3  A    between atoms: N_10  and  C_11
REMARK    4  A    between atoms: C_11  and  C_12
REMARK    5  A    between atoms: N_18  and  C_19
REMARK                            x       y       z     vdW  Elec       q    Type
REMARK                         _______ _______ _______ _____ _____    ______ ____
ROOT
ATOM      1  N   UNL     1       6.679  -0.396  22.115  0.00  0.00    +0.000 NA
ENDROOT
BRANCH   1   8
ATOM      2  N   UNL     1       8.667   0.811  20.694  0.00  0.00    +0.000 NA
ATOM      3  C   UNL     1       7.834   0.022  20.031  0.00  0.00    +0.000 C 
ATOM      4  N   UNL     1       7.717   0.127  18.846  0.00  0.00    +0.000 NA
ATOM      5  C   UNL     1       6.547   0.522  18.179  0.00  0.00    +0.000 C 
ATOM      6  C   UNL     1       5.535  -0.110  19.132  0.00  0.00    +0.000 C 
ATOM      7  C   UNL     1       5.838  -1.252  20.006  0.00  0.00    +0.000 C 
ATOM      8  C   UNL     1       7.103  -1.054  20.922  0.00  0.00    +0.000 C 
BRANCH   2  10
ATOM      9  C   UNL     1      10.153   1.491  22.495  0.00  0.00    +0.000 C 
ATOM     10  C   UNL     1       9.614   0.332  21.671  0.00  0.00    +0.000 C 
ENDBRANCH   2  10
ENDBRANCH   1   8
BRANCH   1  11
ATOM     11  C   UNL     1       6.697  -1.340  23.206  0.00  0.00    +0.000 C 
BRANCH  11  12
ATOM     12  C   UNL     1       7.354  -2.637  22.699  0.00  0.00    +0.000 C 
ATOM     13  C   UNL     1       8.639  -2.837  23.547  0.00  0.00    +0.000 C 
ATOM     14  C   UNL     1       8.247  -3.552  24.804  0.00  0.00    +0.000 C 
ATOM     15  C   UNL     1       6.913  -3.917  25.075  0.00  0.00    +0.000 C 
ATOM     16  N   UNL     1       6.053  -3.965  24.136  0.00  0.00    +0.000 NA
ATOM     17  C   UNL     1       6.463  -3.786  22.978  0.00  0.00    +0.000 C 
ATOM     18  N   UNL     1       5.678  -4.294  22.021  0.00  0.00    +0.000 NA
BRANCH  18  19
ATOM     19  C   UNL     1       5.746  -5.704  21.670  0.00  0.00    +0.000 C 
ATOM     20  C   UNL     1       7.182  -6.191  21.826  0.00  0.00    +0.000 C 
ENDBRANCH  18  19
ENDBRANCH  11  12
ENDBRANCH   1  11
TORSDOF 5
ENDMDL
MODEL 5
REMARK VINA RESULT:      -6.0      1.563      3.554
REMARK  Name = 
REMARK  5 active torsions:
REMARK  status: ('A' for Active; 'I' for Inactive)
REMARK    1  A    between atoms: C_2  and  N_3
REMARK    2  A    between atoms: C_9  and  N_10
REMARK    3  A    between atoms: N_10  and  C_11
REMARK    4  A    between atoms: C_11  and  C_12
REMARK    5  A    between atoms: N_18  and  C_19
REMARK                            x       y       z     vdW  Elec       q    Type
REMARK                         _______ _______ _______ _____ _____    ______ ____
ROOT
ATOM      1  N   UNL     1       8.003  -1.284  22.986  0.00  0.00    +0.000 NA
ENDROOT
BRANCH   1   8
ATOM      2  N   UNL     1       8.929   0.135  25.122  0.00  0.00    +0.000 NA
ATOM      3  C   UNL     1       9.610   0.223  23.988  0.00  0.00    +0.000 C 
ATOM      4  N   UNL     1      10.346   1.144  23.795  0.00  0.00    +0.000 NA
ATOM      5  C   UNL     1      10.184   2.117  22.798  0.00  0.00    +0.000 C 
ATOM      6  C   UNL     1       9.560   1.223  21.729  0.00  0.00    +0.000 C 
ATOM      7  C   UNL     1       9.749  -0.234  21.669  0.00  0.00    +0.000 C 
ATOM      8  C   UNL     1       9.399  -0.991  23.004  0.00  0.00    +0.000 C 
BRANCH   2  10
ATOM      9  C   UNL     1       7.487  -1.166  26.586  0.00  0.00    +0.000 C 
ATOM     10  C   UNL     1       8.849  -1.066  25.915  0.00  0.00    +0.000 C 
ENDBRANCH   2  10
ENDBRANCH   1   8
BRANCH   1  11
ATOM     11  C   UNL     1       7.806  -2.615  22.468  0.00  0.00    +0.000 C 
BRANCH  11  12
ATOM     12  C   UNL     1       6.818  -3.343  23.399  0.00  0.00    +0.000 C 
ATOM     13  C   UNL     1       5.669  -3.864  22.495  0.00  0.00    +0.000 C 
ATOM     14  C   UNL     1       6.092  -5.191  21.941  0.00  0.00    +0.000 C 
ATOM     15  C   UNL     1       7.344  -5.765  22.241  0.00  0.00    +0.000 C 
ATOM     16  N   UNL     1       8.017  -5.358  23.245  0.00  0.00    +0.000 NA
ATOM     17  C   UNL     1       7.479  -4.528  23.994  0.00  0.00    +0.000 C 
ATOM     18  N   UNL     1       7.978  -4.485  25.234  0.00  0.00    +0.000 NA
BRANCH  18  19
ATOM     19  C   UNL     1       7.559  -5.446  26.241  0.00  0.00    +0.000 C 
ATOM     20  C   UNL     1       6.050  -5.643  26.150  0.00  0.00    +0.000 C 
ENDBRANCH  18  19
ENDBRANCH  11  12
ENDBRANCH   1  11
TORSDOF 5
ENDMDL
MODEL 6
REMARK VINA RESULT:      -5.9      1.496      6.779
REMARK  Name = 
REMARK  5 active torsions:
REMARK  status: ('A' for Active; 'I' for Inactive)
REMARK    1  A    between atoms: C_2  and  N_3
REMARK    2  A    between atoms: C_9  and  N_10
REMARK    3  A    between atoms: N_10  and  C_11
REMARK    4  A    between atoms: C_11  and  C_12
REMARK    5  A    between atoms: N_18  and  C_19
REMARK                            x       y       z     vdW  Elec       q    Type
REMARK                         _______ _______ _______ _____ _____    ______ ____
ROOT
ATOM      1  N   UNL     1       8.032  -2.503  23.454  0.00  0.00    +0.000 NA
ENDROOT
BRANCH   1   8
ATOM      2  N   UNL     1       8.635  -5.090  24.068  0.00  0.00    +0.000 NA
ATOM      3  C   UNL     1       7.438  -4.847  23.555  0.00  0.00    +0.000 C 
ATOM      4  N   UNL     1       6.810  -5.724  23.041  0.00  0.00    +0.000 NA
ATOM      5  C   UNL     1       6.457  -5.781  21.685  0.00  0.00    +0.000 C 
ATOM      6  C   UNL     1       6.268  -4.284  21.452  0.00  0.00    +0.000 C 
ATOM      7  C   UNL     1       5.949  -3.324  22.519  0.00  0.00    +0.000 C 
ATOM      8  C   UNL     1       6.933  -3.364  23.747  0.00  0.00    +0.000 C 
BRANCH   2  10
ATOM      9  C   UNL     1       8.200  -5.317  26.450  0.00  0.00    +0.000 C 
ATOM     10  C   UNL     1       9.048  -4.650  25.378  0.00  0.00    +0.000 C 
ENDBRANCH   2  10
ENDBRANCH   1   8
BRANCH   1  11
ATOM     11  C   UNL     1       7.544  -1.156  23.288  0.00  0.00    +0.000 C 
BRANCH  11  12
ATOM     12  C   UNL     1       8.746  -0.258  22.937  0.00  0.00    +0.000 C 
ATOM     13  C   UNL     1       9.184  -0.656  21.502  0.00  0.00    +0.000 C 
ATOM     14  C   UNL     1       8.344   0.126  20.537  0.00  0.00    +0.000 C 
ATOM     15  C   UNL     1       7.348   1.025  20.966  0.00  0.00    +0.000 C 
ATOM     16  N   UNL     1       7.347   1.465  22.164  0.00  0.00    +0.000 NA
ATOM     17  C   UNL     1       8.309   1.156  22.885  0.00  0.00    +0.000 C 
ATOM     18  N   UNL     1       8.520   1.978  23.918  0.00  0.00    +0.000 NA
BRANCH  18  19
ATOM     19  C   UNL     1       9.242   3.228  23.743  0.00  0.00    +0.000 C 
ATOM     20  C   UNL     1      10.687   2.924  23.364  0.00  0.00    +0.000 C 
ENDBRANCH  18  19
ENDBRANCH  11  12
ENDBRANCH   1  11
TORSDOF 5
ENDMDL
MODEL 7
REMARK VINA RESULT:      -5.9      1.559      6.184
REMARK  Name = 
REMARK  5 active torsions:
REMARK  status: ('A' for Active; 'I' for Inactive)
REMARK    1  A    between atoms: C_2  and  N_3
REMARK    2  A    between atoms: C_9  and  N_10
REMARK    3  A    between atoms: N_10  and  C_11
REMARK    4  A    between atoms: C_11  and  C_12
REMARK    5  A    between atoms: N_18  and  C_19
REMARK                            x       y       z     vdW  Elec       q    Type
REMARK                         _______ _______ _______ _____ _____    ______ ____
ROOT
ATOM      1  N   UNL     1       7.195  -2.310  23.375  0.00  0.00    +0.000 NA
ENDROOT
BRANCH   1   8
ATOM      2  N   UNL     1       6.559  -4.960  23.320  0.00  0.00    +0.000 NA
ATOM      3  C   UNL     1       7.826  -4.641  23.537  0.00  0.00    +0.000 C 
ATOM      4  N   UNL     1       8.568  -5.425  24.050  0.00  0.00    +0.000 NA
ATOM      5  C   UNL     1       9.184  -5.259  25.300  0.00  0.00    +0.000 C 
ATOM      6  C   UNL     1       9.371  -3.745  25.245  0.00  0.00    +0.000 C 
ATOM      7  C   UNL     1       9.445  -2.974  23.995  0.00  0.00    +0.000 C 
ATOM      8  C   UNL     1       8.239  -3.212  23.011  0.00  0.00    +0.000 C 
BRANCH   2  10
ATOM      9  C   UNL     1       6.327  -5.770  21.038  0.00  0.00    +0.000 C 
ATOM     10  C   UNL     1       5.882  -4.740  22.065  0.00  0.00    +0.000 C 
ENDBRANCH   2  10
ENDBRANCH   1   8
BRANCH   1  11
ATOM     11  C   UNL     1       6.957  -1.399  22.283  0.00  0.00    +0.000 C 
BRANCH  11  12
ATOM     12  C   UNL     1       8.197  -0.497  22.140  0.00  0.00    +0.000 C 
ATOM     13  C   UNL     1       8.321  -0.157  20.631  0.00  0.00    +0.000 C 
ATOM     14  C   UNL     1       7.450   1.033  20.361  0.00  0.00    +0.000 C 
ATOM     15  C   UNL     1       6.683   1.647  21.370  0.00  0.00    +0.000 C 
ATOM     16  N   UNL     1       6.951   1.442  22.600  0.00  0.00    +0.000 NA
ATOM     17  C   UNL     1       7.968   0.778  22.859  0.00  0.00    +0.000 C 
ATOM     18  N   UNL     1       8.471   0.977  24.082  0.00  0.00    +0.000 NA
BRANCH  18  19
ATOM     19  C   UNL     1       9.325   2.119  24.362  0.00  0.00    +0.000 C 
ATOM     20  C   UNL     1      10.340   2.274  23.235  0.00  0.00    +0.000 C 
ENDBRANCH  18  19
ENDBRANCH  11  12
ENDBRANCH   1  11
TORSDOF 5
ENDMDL
MODEL 8
REMARK VINA RESULT:      -5.8      2.297      3.399
REMARK  Name = 
REMARK  5 active torsions:
REMARK  status: ('A' for Active; 'I' for Inactive)
REMARK    1  A    between atoms: C_2  and  N_3
REMARK    2  A    between atoms: C_9  and  N_10
REMARK    3  A    between atoms: N_10  and  C_11
REMARK    4  A    between atoms: C_11  and  C_12
REMARK    5  A    between atoms: N_18  and  C_19
REMARK                            x       y       z     vdW  Elec       q    Type
REMARK                         _______ _______ _______ _____ _____    ______ ____
ROOT
ATOM      1  N   UNL     1       7.529   0.741  23.176  0.00  0.00    +0.000 NA
ENDROOT
BRANCH   1   8
ATOM      2  N   UNL     1       7.729   3.273  22.186  0.00  0.00    +0.000 NA
ATOM      3  C   UNL     1       8.478   2.966  23.234  0.00  0.00    +0.000 C 
ATOM      4  N   UNL     1       9.448   3.614  23.495  0.00  0.00    +0.000 NA
ATOM      5  C   UNL     1      10.770   3.143  23.466  0.00  0.00    +0.000 C 
ATOM      6  C   UNL     1      10.495   1.711  23.919  0.00  0.00    +0.000 C 
ATOM      7  C   UNL     1       9.319   1.315  24.709  0.00  0.00    +0.000 C 
ATOM      8  C   UNL     1       7.941   1.755  24.091  0.00  0.00    +0.000 C 
BRANCH   2  10
ATOM      9  C   UNL     1       5.873   4.692  22.862  0.00  0.00    +0.000 C 
ATOM     10  C   UNL     1       6.291   3.372  22.233  0.00  0.00    +0.000 C 
ENDBRANCH   2  10
ENDBRANCH   1   8
BRANCH   1  11
ATOM     11  C   UNL     1       7.513  -0.530  23.856  0.00  0.00    +0.000 C 
BRANCH  11  12
ATOM     12  C   UNL     1       7.599  -1.639  22.790  0.00  0.00    +0.000 C 
ATOM     13  C   UNL     1       8.617  -1.145  21.727  0.00  0.00    +0.000 C 
ATOM     14  C   UNL     1       9.988  -1.524  22.202  0.00  0.00    +0.000 C 
ATOM     15  C   UNL     1      10.202  -2.194  23.422  0.00  0.00    +0.000 C 
ATOM     16  N   UNL     1       9.242  -2.802  24.002  0.00  0.00    +0.000 NA
ATOM     17  C   UNL     1       8.161  -2.868  23.397  0.00  0.00    +0.000 C 
ATOM     18  N   UNL     1       7.363  -3.869  23.784  0.00  0.00    +0.000 NA
BRANCH  18  19
ATOM     19  C   UNL     1       7.559  -5.218  23.278  0.00  0.00    +0.000 C 
ATOM     20  C   UNL     1       7.097  -5.282  21.826  0.00  0.00    +0.000 C 
ENDBRANCH  18  19
ENDBRANCH  11  12
ENDBRANCH   1  11
TORSDOF 5
ENDMDL
MODEL 9
REMARK VINA RESULT:      -5.7      1.638      5.935
REMARK  Name = 
REMARK  5 active torsions:
REMARK  status: ('A' for Active; 'I' for Inactive)
REMARK    1  A    between atoms: C_2  and  N_3
REMARK    2  A    between atoms: C_9  and  N_10
REMARK    3  A    between atoms: N_10  and  C_11
REMARK    4  A    between atoms: C_11  and  C_12
REMARK    5  A    between atoms: N_18  and  C_19
REMARK                            x       y       z     vdW  Elec       q    Type
REMARK                         _______ _______ _______ _____ _____    ______ ____
ROOT
ATOM      1  N   UNL     1       8.582  -3.453  23.791  0.00  0.00    +0.000 NA
ENDROOT
BRANCH   1   8
ATOM      2  N   UNL     1       6.590  -5.305  23.608  0.00  0.00    +0.000 NA
ATOM      3  C   UNL     1       7.203  -5.181  24.776  0.00  0.00    +0.000 C 
ATOM      4  N   UNL     1       6.680  -5.569  25.778  0.00  0.00    +0.000 NA
ATOM      5  C   UNL     1       6.279  -4.757  26.849  0.00  0.00    +0.000 C 
ATOM      6  C   UNL     1       7.396  -3.720  26.760  0.00  0.00    +0.000 C 
ATOM      7  C   UNL     1       8.710  -3.983  26.155  0.00  0.00    +0.000 C 
ATOM      8  C   UNL     1       8.650  -4.558  24.691  0.00  0.00    +0.000 C 
BRANCH   2  10
ATOM      9  C   UNL     1       6.250  -5.817  21.255  0.00  0.00    +0.000 C 
ATOM     10  C   UNL     1       7.225  -5.825  22.422  0.00  0.00    +0.000 C 
ENDBRANCH   2  10
ENDBRANCH   1   8
BRANCH   1  11
ATOM     11  C   UNL     1       9.591  -2.488  24.152  0.00  0.00    +0.000 C 
BRANCH  11  12
ATOM     12  C   UNL     1       9.221  -1.147  23.491  0.00  0.00    +0.000 C 
ATOM     13  C   UNL     1       7.670  -1.083  23.471  0.00  0.00    +0.000 C 
ATOM     14  C   UNL     1       7.221  -0.531  24.791  0.00  0.00    +0.000 C 
ATOM     15  C   UNL     1       8.132  -0.181  25.806  0.00  0.00    +0.000 C 
ATOM     16  N   UNL     1       9.364   0.004  25.534  0.00  0.00    +0.000 NA
ATOM     17  C   UNL     1       9.694  -0.029  24.338  0.00  0.00    +0.000 C 
ATOM     18  N   UNL     1      10.832   0.614  24.053  0.00  0.00    +0.000 NA
BRANCH  18  19
ATOM     19  C   UNL     1      10.849   2.056  23.865  0.00  0.00    +0.000 C 
ATOM     20  C   UNL     1       9.786   2.440  22.842  0.00  0.00    +0.000 C 
ENDBRANCH  18  19
ENDBRANCH  11  12
ENDBRANCH   1  11
TORSDOF 5
ENDMDL
