MODEL 1
REMARK VINA RESULT:      -6.0      0.000      0.000
REMARK  Name = 
REMARK  2 active torsions:
REMARK  status: ('A' for Active; 'I' for Inactive)
REMARK    1  A    between atoms: C_2  and  C_3
REMARK    2  A    between atoms: C_7  and  C_10
REMARK                            x       y       z     vdW  Elec       q    Type
REMARK                         _______ _______ _______ _____ _____    ______ ____
ROOT
ATOM      1  C   UNL     1       8.430  -2.420  23.069  0.00  0.00    +0.000 C 
ATOM      2  C   UNL     1       7.453  -1.775  24.150  0.00  0.00    +0.000 C 
ATOM      3  C   UNL     1       6.922  -0.619  23.343  0.00  0.00    +0.000 C 
ATOM      4  C   UNL     1       6.904  -1.088  21.945  0.00  0.00    +0.000 C 
ATOM      5  O   UNL     1       8.038  -1.929  21.819  0.00  0.00    +0.000 OA
ATOM      6  N   UNL     1       6.546   0.529  23.822  0.00  0.00    +0.000 NA
ENDROOT
BRANCH   4   7
ATOM      7  C   UNL     1       7.291   0.251  21.122  0.00  0.00    +0.000 C 
ATOM      8  C   UNL     1       6.362   1.187  20.719  0.00  0.00    +0.000 C 
ATOM      9  O   UNL     1       6.229   2.511  21.267  0.00  0.00    +0.000 OA
ATOM     10  C   UNL     1       5.466   1.225  19.304  0.00  0.00    +0.000 C 
ATOM     11  C   UNL     1       6.574   0.241  18.582  0.00  0.00    +0.000 C 
ATOM     12  C   UNL     1       7.821   0.030  19.104  0.00  0.00    +0.000 C 
ATOM     13  O   UNL     1       8.456  -0.268  20.311  0.00  0.00    +0.000 OA
ATOM     14  O   UNL     1       5.922  -0.548  17.662  0.00  0.00    +0.000 OA
ENDBRANCH   4   7
BRANCH   1  16
ATOM     15  O   UNL     1      10.561  -1.819  22.226  0.00  0.00    +0.000 OA
ATOM     16  C   UNL     1       9.795  -1.876  23.419  0.00  0.00    +0.000 C 
ENDBRANCH   1  16
TORSDOF 2
ENDMDL
MODEL 2
REMARK VINA RESULT:      -5.9      2.252      2.949
REMARK  Name = 
REMARK  2 active torsions:
REMARK  status: ('A' for Active; 'I' for Inactive)
REMARK    1  A    between atoms: C_2  and  C_3
REMARK    2  A    between atoms: C_7  and  C_10
REMARK                            x       y       z     vdW  Elec       q    Type
REMARK                         _______ _______ _______ _____ _____    ______ ____
ROOT
ATOM      1  C   UNL     1       9.953   0.940  22.293  0.00  0.00    +0.000 C 
ATOM      2  C   UNL     1      10.218  -0.605  22.575  0.00  0.00    +0.000 C 
ATOM      3  C   UNL     1       8.999  -1.189  21.909  0.00  0.00    +0.000 C 
ATOM      4  C   UNL     1       8.690  -0.284  20.786  0.00  0.00    +0.000 C 
ATOM      5  O   UNL     1       9.024   1.013  21.250  0.00  0.00    +0.000 OA
ATOM      6  N   UNL     1       8.390  -2.279  22.268  0.00  0.00    +0.000 NA
ENDROOT
BRANCH   4   7
ATOM      7  C   UNL     1       7.072  -0.306  20.756  0.00  0.00    +0.000 C 
ATOM      8  C   UNL     1       6.342  -1.134  19.929  0.00  0.00    +0.000 C 
ATOM      9  O   UNL     1       5.563  -2.262  20.367  0.00  0.00    +0.000 OA
ATOM     10  C   UNL     1       5.833  -0.855  18.358  0.00  0.00    +0.000 C 
ATOM     11  C   UNL     1       5.988   0.768  18.601  0.00  0.00    +0.000 C 
ATOM     12  C   UNL     1       6.098   1.317  19.850  0.00  0.00    +0.000 C 
ATOM     13  O   UNL     1       6.785   1.148  21.053  0.00  0.00    +0.000 OA
ATOM     14  O   UNL     1       6.344   1.355  17.408  0.00  0.00    +0.000 OA
ENDBRANCH   4   7
BRANCH   1  16
ATOM     15  O   UNL     1      10.282   1.339  24.606  0.00  0.00    +0.000 OA
ATOM     16  C   UNL     1       9.323   1.455  23.566  0.00  0.00    +0.000 C 
ENDBRANCH   1  16
TORSDOF 2
ENDMDL
MODEL 3
REMARK VINA RESULT:      -5.7      3.318      6.086
REMARK  Name = 
REMARK  2 active torsions:
REMARK  status: ('A' for Active; 'I' for Inactive)
REMARK    1  A    between atoms: C_2  and  C_3
REMARK    2  A    between atoms: C_7  and  C_10
REMARK                            x       y       z     vdW  Elec       q    Type
REMARK                         _______ _______ _______ _____ _____    ______ ____
ROOT
ATOM      1  C   UNL     1       8.329  -1.142  22.771  0.00  0.00    +0.000 C 
ATOM      2  C   UNL     1       6.973  -1.109  21.936  0.00  0.00    +0.000 C 
ATOM      3  C   UNL     1       6.420  -2.458  22.314  0.00  0.00    +0.000 C 
ATOM      4  C   UNL     1       6.892  -2.710  23.688  0.00  0.00    +0.000 C 
ATOM      5  O   UNL     1       8.185  -2.131  23.750  0.00  0.00    +0.000 OA
ATOM      6  N   UNL     1       5.667  -3.205  21.562  0.00  0.00    +0.000 NA
ENDROOT
BRANCH   4   7
ATOM      7  C   UNL     1       7.157  -4.307  23.680  0.00  0.00    +0.000 C 
ATOM      8  C   UNL     1       6.260  -5.225  24.184  0.00  0.00    +0.000 C 
ATOM      9  O   UNL     1       5.486  -6.145  23.394  0.00  0.00    +0.000 OA
ATOM     10  C   UNL     1       6.124  -5.798  25.752  0.00  0.00    +0.000 C 
ATOM     11  C   UNL     1       7.685  -5.356  26.043  0.00  0.00    +0.000 C 
ATOM     12  C   UNL     1       8.566  -5.062  25.039  0.00  0.00    +0.000 C 
ATOM     13  O   UNL     1       8.658  -4.324  23.858  0.00  0.00    +0.000 OA
ATOM     14  O   UNL     1       7.796  -4.999  27.368  0.00  0.00    +0.000 OA
ENDBRANCH   4   7
BRANCH   1  16
ATOM     15  O   UNL     1      10.562  -1.884  22.490  0.00  0.00    +0.000 OA
ATOM     16  C   UNL     1       9.379  -1.569  21.773  0.00  0.00    +0.000 C 
ENDBRANCH   1  16
TORSDOF 2
ENDMDL
MODEL 4
REMARK VINA RESULT:      -5.6      2.380      4.714
REMARK  Name = 
REMARK  2 active torsions:
REMARK  status: ('A' for Active; 'I' for Inactive)
REMARK    1  A    between atoms: C_2  and  C_3
REMARK    2  A    between atoms: C_7  and  C_10
REMARK                            x       y       z     vdW  Elec       q    Type
REMARK                         _______ _______ _______ _____ _____    ______ ____
ROOT
ATOM      1  C   UNL     1       8.325   0.400  20.892  0.00  0.00    +0.000 C 
ATOM      2  C   UNL     1       9.698   0.409  21.699  0.00  0.00    +0.000 C 
ATOM      3  C   UNL     1       9.489  -0.813  22.555  0.00  0.00    +0.000 C 
ATOM      4  C   UNL     1       8.664  -1.728  21.743  0.00  0.00    +0.000 C 
ATOM      5  O   UNL     1       7.791  -0.888  21.007  0.00  0.00    +0.000 OA
ATOM      6  N   UNL     1       9.972  -0.994  23.747  0.00  0.00    +0.000 NA
ENDROOT
BRANCH   4   7
ATOM      7  C   UNL     1       7.721  -2.428  22.856  0.00  0.00    +0.000 C 
ATOM      8  C   UNL     1       7.945  -3.696  23.349  0.00  0.00    +0.000 C 
ATOM      9  O   UNL     1       8.395  -3.998  24.682  0.00  0.00    +0.000 OA
ATOM     10  C   UNL     1       7.402  -5.161  22.746  0.00  0.00    +0.000 C 
ATOM     11  C   UNL     1       6.191  -4.378  21.948  0.00  0.00    +0.000 C 
ATOM     12  C   UNL     1       5.828  -3.092  22.243  0.00  0.00    +0.000 C 
ATOM     13  O   UNL     1       6.383  -1.834  22.477  0.00  0.00    +0.000 OA
ATOM     14  O   UNL     1       5.918  -5.066  20.787  0.00  0.00    +0.000 OA
ENDBRANCH   4   7
BRANCH   1  16
ATOM     15  O   UNL     1       8.228   2.519  21.948  0.00  0.00    +0.000 OA
ATOM     16  C   UNL     1       7.444   1.379  21.632  0.00  0.00    +0.000 C 
ENDBRANCH   1  16
TORSDOF 2
ENDMDL
MODEL 5
REMARK VINA RESULT:      -5.5      3.123      4.333
REMARK  Name = 
REMARK  2 active torsions:
REMARK  status: ('A' for Active; 'I' for Inactive)
REMARK    1  A    between atoms: C_2  and  C_3
REMARK    2  A    between atoms: C_7  and  C_10
REMARK                            x       y       z     vdW  Elec       q    Type
REMARK                         _______ _______ _______ _____ _____    ______ ____
ROOT
ATOM      1  C   UNL     1       7.396  -3.768  25.347  0.00  0.00    +0.000 C 
ATOM      2  C   UNL     1       7.304  -2.847  26.644  0.00  0.00    +0.000 C 
ATOM      3  C   UNL     1       8.206  -1.721  26.211  0.00  0.00    +0.000 C 
ATOM      4  C   UNL     1       8.047  -1.628  24.747  0.00  0.00    +0.000 C 
ATOM      5  O   UNL     1       7.867  -2.963  24.306  0.00  0.00    +0.000 OA
ATOM      6  N   UNL     1       8.939  -0.993  26.998  0.00  0.00    +0.000 NA
ENDROOT
BRANCH   4   7
ATOM      7  C   UNL     1       9.538  -1.230  24.259  0.00  0.00    +0.000 C 
ATOM      8  C   UNL     1       9.938   0.071  24.035  0.00  0.00    +0.000 C 
ATOM      9  O   UNL     1      10.864   0.804  24.857  0.00  0.00    +0.000 OA
ATOM     10  C   UNL     1       9.818   0.972  22.628  0.00  0.00    +0.000 C 
ATOM     11  C   UNL     1       9.705  -0.419  21.752  0.00  0.00    +0.000 C 
ATOM     12  C   UNL     1      10.046  -1.641  22.265  0.00  0.00    +0.000 C 
ATOM     13  O   UNL     1       9.862  -2.431  23.401  0.00  0.00    +0.000 OA
ATOM     14  O   UNL     1       8.910  -0.180  20.654  0.00  0.00    +0.000 OA
ENDBRANCH   4   7
BRANCH   1  16
ATOM     15  O   UNL     1       7.830  -5.766  26.545  0.00  0.00    +0.000 OA
ATOM     16  C   UNL     1       8.436  -4.807  25.693  0.00  0.00    +0.000 C 
ENDBRANCH   1  16
TORSDOF 2
ENDMDL
MODEL 6
REMARK VINA RESULT:      -5.5      2.478      5.342
REMARK  Name = 
REMARK  2 active torsions:
REMARK  status: ('A' for Active; 'I' for Inactive)
REMARK    1  A    between atoms: C_2  and  C_3
REMARK    2  A    between atoms: C_7  and  C_10
REMARK                            x       y       z     vdW  Elec       q    Type
REMARK                         _______ _______ _______ _____ _____    ______ ____
ROOT
ATOM      1  C   UNL     1       9.415  -0.279  21.238  0.00  0.00    +0.000 C 
ATOM      2  C   UNL     1       9.965   0.835  22.235  0.00  0.00    +0.000 C 
ATOM      3  C   UNL     1       9.558   0.214  23.546  0.00  0.00    +0.000 C 
ATOM      4  C   UNL     1       9.631  -1.244  23.333  0.00  0.00    +0.000 C 
ATOM      5  O   UNL     1       9.228  -1.445  21.989  0.00  0.00    +0.000 OA
ATOM      6  N   UNL     1       9.239   0.864  24.625  0.00  0.00    +0.000 NA
ENDROOT
BRANCH   4   7
ATOM      7  C   UNL     1       8.392  -1.789  24.220  0.00  0.00    +0.000 C 
ATOM      8  C   UNL     1       8.538  -2.284  25.499  0.00  0.00    +0.000 C 
ATOM      9  O   UNL     1       8.081  -1.629  26.696  0.00  0.00    +0.000 OA
ATOM     10  C   UNL     1       8.873  -3.853  25.979  0.00  0.00    +0.000 C 
ATOM     11  C   UNL     1       8.317  -4.409  24.530  0.00  0.00    +0.000 C 
ATOM     12  C   UNL     1       7.561  -3.641  23.688  0.00  0.00    +0.000 C 
ATOM     13  O   UNL     1       7.520  -2.364  23.127  0.00  0.00    +0.000 OA
ATOM     14  O   UNL     1       9.025  -5.542  24.199  0.00  0.00    +0.000 OA
ENDBRANCH   4   7
BRANCH   1  16
ATOM     15  O   UNL     1       7.949  -0.020  19.395  0.00  0.00    +0.000 OA
ATOM     16  C   UNL     1       8.075   0.248  20.783  0.00  0.00    +0.000 C 
ENDBRANCH   1  16
TORSDOF 2
ENDMDL
MODEL 7
REMARK VINA RESULT:      -5.3      2.656      5.472
REMARK  Name = 
REMARK  2 active torsions:
REMARK  status: ('A' for Active; 'I' for Inactive)
REMARK    1  A    between atoms: C_2  and  C_3
REMARK    2  A    between atoms: C_7  and  C_10
REMARK                            x       y       z     vdW  Elec       q    Type
REMARK                         _______ _______ _______ _____ _____    ______ ____
ROOT
ATOM      1  C   UNL     1       7.502   0.166  21.646  0.00  0.00    +0.000 C 
ATOM      2  C   UNL     1       8.920  -0.183  21.010  0.00  0.00    +0.000 C 
ATOM      3  C   UNL     1       9.309  -1.339  21.894  0.00  0.00    +0.000 C 
ATOM      4  C   UNL     1       8.043  -2.002  22.258  0.00  0.00    +0.000 C 
ATOM      5  O   UNL     1       7.095  -0.955  22.378  0.00  0.00    +0.000 OA
ATOM      6  N   UNL     1      10.523  -1.664  22.225  0.00  0.00    +0.000 NA
ENDROOT
BRANCH   4   7
ATOM      7  C   UNL     1       8.323  -2.479  23.779  0.00  0.00    +0.000 C 
ATOM      8  C   UNL     1       8.666  -3.771  24.116  0.00  0.00    +0.000 C 
ATOM      9  O   UNL     1       9.962  -4.188  24.582  0.00  0.00    +0.000 OA
ATOM     10  C   UNL     1       7.657  -5.061  24.467  0.00  0.00    +0.000 C 
ATOM     11  C   UNL     1       6.443  -4.006  24.828  0.00  0.00    +0.000 C 
ATOM     12  C   UNL     1       6.668  -2.676  25.053  0.00  0.00    +0.000 C 
ATOM     13  O   UNL     1       7.353  -1.585  24.517  0.00  0.00    +0.000 OA
ATOM     14  O   UNL     1       5.243  -4.595  24.501  0.00  0.00    +0.000 OA
ENDBRANCH   4   7
BRANCH   1  16
ATOM     15  O   UNL     1       8.543   2.281  21.889  0.00  0.00    +0.000 OA
ATOM     16  C   UNL     1       7.782   1.311  22.591  0.00  0.00    +0.000 C 
ENDBRANCH   1  16
TORSDOF 2
ENDMDL
MODEL 8
REMARK VINA RESULT:      -5.3      2.886      4.383
REMARK  Name = 
REMARK  2 active torsions:
REMARK  status: ('A' for Active; 'I' for Inactive)
REMARK    1  A    between atoms: C_2  and  C_3
REMARK    2  A    between atoms: C_7  and  C_10
REMARK                            x       y       z     vdW  Elec       q    Type
REMARK                         _______ _______ _______ _____ _____    ______ ____
ROOT
ATOM      1  C   UNL     1       7.675  -5.028  24.113  0.00  0.00    +0.000 C 
ATOM      2  C   UNL     1       6.865  -5.531  22.837  0.00  0.00    +0.000 C 
ATOM      3  C   UNL     1       6.736  -4.226  22.097  0.00  0.00    +0.000 C 
ATOM      4  C   UNL     1       7.952  -3.460  22.431  0.00  0.00    +0.000 C 
ATOM      5  O   UNL     1       8.247  -3.797  23.776  0.00  0.00    +0.000 OA
ATOM      6  N   UNL     1       5.752  -3.892  21.317  0.00  0.00    +0.000 NA
ENDROOT
BRANCH   4   7
ATOM      7  C   UNL     1       7.400  -1.940  22.499  0.00  0.00    +0.000 C 
ATOM      8  C   UNL     1       7.633  -1.006  21.511  0.00  0.00    +0.000 C 
ATOM      9  O   UNL     1       6.637  -0.491  20.609  0.00  0.00    +0.000 OA
ATOM     10  C   UNL     1       8.929   0.042  21.351  0.00  0.00    +0.000 C 
ATOM     11  C   UNL     1       9.244  -0.109  22.962  0.00  0.00    +0.000 C 
ATOM     12  C   UNL     1       8.335  -0.629  23.843  0.00  0.00    +0.000 C 
ATOM     13  O   UNL     1       7.460  -1.706  23.991  0.00  0.00    +0.000 OA
ATOM     14  O   UNL     1      10.602   0.012  23.154  0.00  0.00    +0.000 OA
ENDBRANCH   4   7
BRANCH   1  16
ATOM     15  O   UNL     1       6.769  -5.847  26.143  0.00  0.00    +0.000 OA
ATOM     16  C   UNL     1       6.621  -4.821  25.174  0.00  0.00    +0.000 C 
ENDBRANCH   1  16
TORSDOF 2
ENDMDL
MODEL 9
REMARK VINA RESULT:      -5.3      2.404      4.100
REMARK  Name = 
REMARK  2 active torsions:
REMARK  status: ('A' for Active; 'I' for Inactive)
REMARK    1  A    between atoms: C_2  and  C_3
REMARK    2  A    between atoms: C_7  and  C_10
REMARK                            x       y       z     vdW  Elec       q    Type
REMARK                         _______ _______ _______ _____ _____    ______ ____
ROOT
ATOM      1  C   UNL     1       5.896  -3.592  24.321  0.00  0.00    +0.000 C 
ATOM      2  C   UNL     1       7.132  -4.097  25.189  0.00  0.00    +0.000 C 
ATOM      3  C   UNL     1       8.247  -3.392  24.461  0.00  0.00    +0.000 C 
ATOM      4  C   UNL     1       7.660  -2.136  23.957  0.00  0.00    +0.000 C 
ATOM      5  O   UNL     1       6.322  -2.460  23.619  0.00  0.00    +0.000 OA
ATOM      6  N   UNL     1       9.467  -3.825  24.343  0.00  0.00    +0.000 NA
ENDROOT
BRANCH   4   7
ATOM      7  C   UNL     1       8.409  -1.945  22.535  0.00  0.00    +0.000 C 
ATOM      8  C   UNL     1       9.548  -1.184  22.377  0.00  0.00    +0.000 C 
ATOM      9  O   UNL     1      10.861  -1.707  22.104  0.00  0.00    +0.000 OA
ATOM     10  C   UNL     1       9.672   0.454  22.052  0.00  0.00    +0.000 C 
ATOM     11  C   UNL     1       8.137   0.445  21.450  0.00  0.00    +0.000 C 
ATOM     12  C   UNL     1       7.487  -0.710  21.112  0.00  0.00    +0.000 C 
ATOM     13  O   UNL     1       7.219  -1.988  21.604  0.00  0.00    +0.000 OA
ATOM     14  O   UNL     1       7.564   1.671  21.701  0.00  0.00    +0.000 OA
ENDBRANCH   4   7
BRANCH   1  16
ATOM     15  O   UNL     1       4.789  -4.219  22.321  0.00  0.00    +0.000 OA
ATOM     16  C   UNL     1       5.631  -4.718  23.349  0.00  0.00    +0.000 C 
ENDBRANCH   1  16
TORSDOF 2
ENDMDL
