MODEL 1
REMARK VINA RESULT:      -6.3      0.000      0.000
REMARK  Name = 
REMARK  7 active torsions:
REMARK  status: ('A' for Active; 'I' for Inactive)
REMARK    1  A    between atoms: C_2  and  C_3
REMARK    2  A    between atoms: C_4  and  C_5
REMARK    3  A    between atoms: C_5  and  C_6
REMARK    4  A    between atoms: C_6  and  N_7
REMARK    5  A    between atoms: C_13  and  N_14
REMARK    6  A    between atoms: N_14  and  C_15
REMARK    7  A    between atoms: C_15  and  S_16
REMARK                            x       y       z     vdW  Elec       q    Type
REMARK                         _______ _______ _______ _____ _____    ______ ____
ROOT
ATOM      1  N   UNL     1       8.398  -0.873  22.424  0.00  0.00    +0.000 NA
ATOM      2  C   UNL     1       8.731  -0.004  23.508  0.00  0.00    +0.000 C 
ATOM      3  C   UNL     1       7.730   1.123  23.631  0.00  0.00    +0.000 C 
ATOM      4  C   UNL     1      10.137   0.560  23.317  0.00  0.00    +0.000 C 
ATOM      5  C   UNL     1      10.088   1.547  22.141  0.00  0.00    +0.000 C 
ATOM      6  C   UNL     1       8.795   1.289  21.376  0.00  0.00    +0.000 C 
ATOM      7  C   UNL     1       8.627  -0.226  21.179  0.00  0.00    +0.000 C 
ENDROOT
BRANCH   1   8
ATOM      8  C   UNL     1       9.239  -2.033  22.538  0.00  0.00    +0.000 C 
BRANCH   8   9
ATOM      9  C   UNL     1       8.860  -2.897  23.698  0.00  0.00    +0.000 C 
BRANCH   9  11
ATOM     10  C   UNL     1       6.468  -3.787  23.482  0.00  0.00    +0.000 C 
ATOM     11  C   UNL     1       7.797  -3.925  23.206  0.00  0.00    +0.000 C 
ATOM     12  F   UNL     1       8.261  -5.194  23.585  0.00  0.00    +0.000 F 
BRANCH  10  14
ATOM     13  O   UNL     1       5.613  -3.120  21.375  0.00  0.00    +0.000 OA
ATOM     14  C   UNL     1       5.207  -3.527  22.662  0.00  0.00    +0.000 C 
ENDBRANCH  10  14
ENDBRANCH   9  11
ENDBRANCH   8   9
ENDBRANCH   1   8
BRANCH   7  15
ATOM     15  N   UNL     1       7.532  -0.420  20.261  0.00  0.00    +0.000 NA
BRANCH  15  16
ATOM     16  C   UNL     1       7.140   0.849  19.727  0.00  0.00    +0.000 C 
BRANCH  16  17
ATOM     17  S   UNL     1       5.989   0.589  18.383  0.00  0.00    +0.000 S 
ATOM     18  O   UNL     1       6.433   1.404  17.285  0.00  0.00    +0.000 OA
ATOM     19  O   UNL     1       4.677   0.877  18.890  0.00  0.00    +0.000 OA
ATOM     20  N   UNL     1       6.050  -0.990  17.930  0.00  0.00    +0.000 NA
ENDBRANCH  16  17
ENDBRANCH  15  16
ENDBRANCH   7  15
TORSDOF 7
ENDMDL
MODEL 2
REMARK VINA RESULT:      -6.3      1.782      2.054
REMARK  Name = 
REMARK  7 active torsions:
REMARK  status: ('A' for Active; 'I' for Inactive)
REMARK    1  A    between atoms: C_2  and  C_3
REMARK    2  A    between atoms: C_4  and  C_5
REMARK    3  A    between atoms: C_5  and  C_6
REMARK    4  A    between atoms: C_6  and  N_7
REMARK    5  A    between atoms: C_13  and  N_14
REMARK    6  A    between atoms: N_14  and  C_15
REMARK    7  A    between atoms: C_15  and  S_16
REMARK                            x       y       z     vdW  Elec       q    Type
REMARK                         _______ _______ _______ _____ _____    ______ ____
ROOT
ATOM      1  N   UNL     1       8.136  -0.949  22.553  0.00  0.00    +0.000 NA
ATOM      2  C   UNL     1       8.660  -0.174  23.633  0.00  0.00    +0.000 C 
ATOM      3  C   UNL     1       7.833   1.071  23.864  0.00  0.00    +0.000 C 
ATOM      4  C   UNL     1      10.113   0.203  23.354  0.00  0.00    +0.000 C 
ATOM      5  C   UNL     1      10.115   1.233  22.213  0.00  0.00    +0.000 C 
ATOM      6  C   UNL     1       8.749   1.179  21.541  0.00  0.00    +0.000 C 
ATOM      7  C   UNL     1       8.362  -0.291  21.313  0.00  0.00    +0.000 C 
ENDROOT
BRANCH   1   8
ATOM      8  C   UNL     1       8.817  -2.214  22.570  0.00  0.00    +0.000 C 
BRANCH   8   9
ATOM      9  C   UNL     1       8.045  -3.264  23.303  0.00  0.00    +0.000 C 
BRANCH   9  11
ATOM     10  C   UNL     1       8.608  -3.833  25.737  0.00  0.00    +0.000 C 
ATOM     11  C   UNL     1       8.965  -3.846  24.420  0.00  0.00    +0.000 C 
ATOM     12  F   UNL     1      10.232  -3.271  24.235  0.00  0.00    +0.000 F 
BRANCH  10  14
ATOM     13  O   UNL     1       7.356  -5.790  26.203  0.00  0.00    +0.000 OA
ATOM     14  C   UNL     1       8.274  -4.892  26.784  0.00  0.00    +0.000 C 
ENDBRANCH  10  14
ENDBRANCH   9  11
ENDBRANCH   8   9
ENDBRANCH   1   8
BRANCH   7  15
ATOM     15  N   UNL     1       7.189  -0.301  20.476  0.00  0.00    +0.000 NA
BRANCH  15  16
ATOM     16  C   UNL     1       7.321   0.713  19.474  0.00  0.00    +0.000 C 
BRANCH  16  17
ATOM     17  S   UNL     1       5.996   0.539  18.285  0.00  0.00    +0.000 S 
ATOM     18  O   UNL     1       6.308   1.401  17.178  0.00  0.00    +0.000 OA
ATOM     19  O   UNL     1       4.770   0.822  18.976  0.00  0.00    +0.000 OA
ATOM     20  N   UNL     1       5.961  -1.015  17.753  0.00  0.00    +0.000 NA
ENDBRANCH  16  17
ENDBRANCH  15  16
ENDBRANCH   7  15
TORSDOF 7
ENDMDL
MODEL 3
REMARK VINA RESULT:      -6.2      2.175      2.602
REMARK  Name = 
REMARK  7 active torsions:
REMARK  status: ('A' for Active; 'I' for Inactive)
REMARK    1  A    between atoms: C_2  and  C_3
REMARK    2  A    between atoms: C_4  and  C_5
REMARK    3  A    between atoms: C_5  and  C_6
REMARK    4  A    between atoms: C_6  and  N_7
REMARK    5  A    between atoms: C_13  and  N_14
REMARK    6  A    between atoms: N_14  and  C_15
REMARK    7  A    between atoms: C_15  and  S_16
REMARK                            x       y       z     vdW  Elec       q    Type
REMARK                         _______ _______ _______ _____ _____    ______ ____
ROOT
ATOM      1  N   UNL     1       7.525  -1.784  22.601  0.00  0.00    +0.000 NA
ATOM      2  C   UNL     1       8.432  -1.569  23.685  0.00  0.00    +0.000 C 
ATOM      3  C   UNL     1       8.419  -0.124  24.129  0.00  0.00    +0.000 C 
ATOM      4  C   UNL     1       9.844  -1.983  23.279  0.00  0.00    +0.000 C 
ATOM      5  C   UNL     1      10.352  -0.960  22.252  0.00  0.00    +0.000 C 
ATOM      6  C   UNL     1       9.145  -0.184  21.738  0.00  0.00    +0.000 C 
ATOM      7  C   UNL     1       8.016  -1.175  21.414  0.00  0.00    +0.000 C 
ENDROOT
BRANCH   1   8
ATOM      8  C   UNL     1       7.414  -3.204  22.417  0.00  0.00    +0.000 C 
BRANCH   8   9
ATOM      9  C   UNL     1       6.322  -3.801  23.246  0.00  0.00    +0.000 C 
BRANCH   9  11
ATOM     10  C   UNL     1       7.076  -4.761  25.499  0.00  0.00    +0.000 C 
ATOM     11  C   UNL     1       6.952  -4.906  24.148  0.00  0.00    +0.000 C 
ATOM     12  F   UNL     1       8.182  -5.248  23.564  0.00  0.00    +0.000 F 
BRANCH  10  14
ATOM     13  O   UNL     1       7.535  -5.757  27.599  0.00  0.00    +0.000 OA
ATOM     14  C   UNL     1       6.474  -5.439  26.727  0.00  0.00    +0.000 C 
ENDBRANCH  10  14
ENDBRANCH   9  11
ENDBRANCH   8   9
ENDBRANCH   1   8
BRANCH   7  15
ATOM     15  N   UNL     1       6.988  -0.441  20.719  0.00  0.00    +0.000 NA
BRANCH  15  16
ATOM     16  C   UNL     1       7.563   0.200  19.576  0.00  0.00    +0.000 C 
BRANCH  16  17
ATOM     17  S   UNL     1       6.306   0.394  18.318  0.00  0.00    +0.000 S 
ATOM     18  O   UNL     1       5.979  -0.923  17.844  0.00  0.00    +0.000 OA
ATOM     19  O   UNL     1       6.828   1.305  17.339  0.00  0.00    +0.000 OA
ATOM     20  N   UNL     1       4.968   1.058  19.003  0.00  0.00    +0.000 NA
ENDBRANCH  16  17
ENDBRANCH  15  16
ENDBRANCH   7  15
TORSDOF 7
ENDMDL
MODEL 4
REMARK VINA RESULT:      -6.2      3.655      5.830
REMARK  Name = 
REMARK  7 active torsions:
REMARK  status: ('A' for Active; 'I' for Inactive)
REMARK    1  A    between atoms: C_2  and  C_3
REMARK    2  A    between atoms: C_4  and  C_5
REMARK    3  A    between atoms: C_5  and  C_6
REMARK    4  A    between atoms: C_6  and  N_7
REMARK    5  A    between atoms: C_13  and  N_14
REMARK    6  A    between atoms: N_14  and  C_15
REMARK    7  A    between atoms: C_15  and  S_16
REMARK                            x       y       z     vdW  Elec       q    Type
REMARK                         _______ _______ _______ _____ _____    ______ ____
ROOT
ATOM      1  N   UNL     1      10.114  -0.485  22.932  0.00  0.00    +0.000 NA
ATOM      2  C   UNL     1      10.380   0.752  23.595  0.00  0.00    +0.000 C 
ATOM      3  C   UNL     1      11.094   0.524  24.909  0.00  0.00    +0.000 C 
ATOM      4  C   UNL     1       9.078   1.515  23.829  0.00  0.00    +0.000 C 
ATOM      5  C   UNL     1       8.282   0.758  24.904  0.00  0.00    +0.000 C 
ATOM      6  C   UNL     1       8.884  -0.636  25.027  0.00  0.00    +0.000 C 
ATOM      7  C   UNL     1       9.104  -1.211  23.619  0.00  0.00    +0.000 C 
ENDROOT
BRANCH   1   8
ATOM      8  C   UNL     1       9.673  -0.166  21.602  0.00  0.00    +0.000 C 
BRANCH   8   9
ATOM      9  C   UNL     1       8.318  -0.722  21.304  0.00  0.00    +0.000 C 
BRANCH   9  11
ATOM     10  C   UNL     1       7.026   0.327  19.357  0.00  0.00    +0.000 C 
ATOM     11  C   UNL     1       7.469   0.406  20.645  0.00  0.00    +0.000 C 
ATOM     12  F   UNL     1       8.158   1.609  20.867  0.00  0.00    +0.000 F 
BRANCH  10  14
ATOM     13  O   UNL     1       5.860  -0.415  17.432  0.00  0.00    +0.000 OA
ATOM     14  C   UNL     1       5.663   0.214  18.679  0.00  0.00    +0.000 C 
ENDBRANCH  10  14
ENDBRANCH   9  11
ENDBRANCH   8   9
ENDBRANCH   1   8
BRANCH   7  15
ATOM     15  N   UNL     1       9.449  -2.602  23.772  0.00  0.00    +0.000 NA
BRANCH  15  16
ATOM     16  C   UNL     1       8.796  -3.120  24.936  0.00  0.00    +0.000 C 
BRANCH  16  17
ATOM     17  S   UNL     1       8.969  -4.900  24.962  0.00  0.00    +0.000 S 
ATOM     18  O   UNL     1      10.351  -5.185  25.231  0.00  0.00    +0.000 OA
ATOM     19  O   UNL     1       8.455  -5.392  23.715  0.00  0.00    +0.000 OA
ATOM     20  N   UNL     1       8.055  -5.503  26.189  0.00  0.00    +0.000 NA
ENDBRANCH  16  17
ENDBRANCH  15  16
ENDBRANCH   7  15
TORSDOF 7
ENDMDL
MODEL 5
REMARK VINA RESULT:      -6.1      2.561      4.518
REMARK  Name = 
REMARK  7 active torsions:
REMARK  status: ('A' for Active; 'I' for Inactive)
REMARK    1  A    between atoms: C_2  and  C_3
REMARK    2  A    between atoms: C_4  and  C_5
REMARK    3  A    between atoms: C_5  and  C_6
REMARK    4  A    between atoms: C_6  and  N_7
REMARK    5  A    between atoms: C_13  and  N_14
REMARK    6  A    between atoms: N_14  and  C_15
REMARK    7  A    between atoms: C_15  and  S_16
REMARK                            x       y       z     vdW  Elec       q    Type
REMARK                         _______ _______ _______ _____ _____    ______ ____
ROOT
ATOM      1  N   UNL     1       7.932  -2.943  22.651  0.00  0.00    +0.000 NA
ATOM      2  C   UNL     1       7.504  -4.257  23.015  0.00  0.00    +0.000 C 
ATOM      3  C   UNL     1       7.035  -5.033  21.805  0.00  0.00    +0.000 C 
ATOM      4  C   UNL     1       6.389  -4.178  24.056  0.00  0.00    +0.000 C 
ATOM      5  C   UNL     1       5.135  -3.635  23.353  0.00  0.00    +0.000 C 
ATOM      6  C   UNL     1       5.578  -3.015  22.033  0.00  0.00    +0.000 C 
ATOM      7  C   UNL     1       6.817  -2.141  22.284  0.00  0.00    +0.000 C 
ENDROOT
BRANCH   1   8
ATOM      8  C   UNL     1       8.587  -2.378  23.799  0.00  0.00    +0.000 C 
BRANCH   8   9
ATOM      9  C   UNL     1      10.047  -2.151  23.565  0.00  0.00    +0.000 C 
BRANCH   9  11
ATOM     10  C   UNL     1       9.476   0.346  23.563  0.00  0.00    +0.000 C 
ATOM     11  C   UNL     1      10.233  -0.681  23.081  0.00  0.00    +0.000 C 
ATOM     12  F   UNL     1      10.203  -0.714  21.678  0.00  0.00    +0.000 F 
BRANCH  10  14
ATOM     13  O   UNL     1      10.894   2.217  23.883  0.00  0.00    +0.000 OA
ATOM     14  C   UNL     1       9.740   1.594  24.401  0.00  0.00    +0.000 C 
ENDBRANCH  10  14
ENDBRANCH   9  11
ENDBRANCH   8   9
ENDBRANCH   1   8
BRANCH   7  15
ATOM     15  N   UNL     1       7.066  -1.394  21.076  0.00  0.00    +0.000 NA
BRANCH  15  16
ATOM     16  C   UNL     1       5.938  -1.524  20.205  0.00  0.00    +0.000 C 
BRANCH  16  17
ATOM     17  S   UNL     1       6.118  -0.386  18.837  0.00  0.00    +0.000 S 
ATOM     18  O   UNL     1       5.124   0.638  19.008  0.00  0.00    +0.000 OA
ATOM     19  O   UNL     1       6.023  -1.159  17.631  0.00  0.00    +0.000 OA
ATOM     20  N   UNL     1       7.608   0.303  18.913  0.00  0.00    +0.000 NA
ENDBRANCH  16  17
ENDBRANCH  15  16
ENDBRANCH   7  15
TORSDOF 7
ENDMDL
MODEL 6
REMARK VINA RESULT:      -5.8      1.765      2.092
REMARK  Name = 
REMARK  7 active torsions:
REMARK  status: ('A' for Active; 'I' for Inactive)
REMARK    1  A    between atoms: C_2  and  C_3
REMARK    2  A    between atoms: C_4  and  C_5
REMARK    3  A    between atoms: C_5  and  C_6
REMARK    4  A    between atoms: C_6  and  N_7
REMARK    5  A    between atoms: C_13  and  N_14
REMARK    6  A    between atoms: N_14  and  C_15
REMARK    7  A    between atoms: C_15  and  S_16
REMARK                            x       y       z     vdW  Elec       q    Type
REMARK                         _______ _______ _______ _____ _____    ______ ____
ROOT
ATOM      1  N   UNL     1       8.339  -1.142  24.025  0.00  0.00    +0.000 NA
ATOM      2  C   UNL     1       8.504   0.009  24.856  0.00  0.00    +0.000 C 
ATOM      3  C   UNL     1       8.104   1.271  24.125  0.00  0.00    +0.000 C 
ATOM      4  C   UNL     1       9.951   0.112  25.331  0.00  0.00    +0.000 C 
ATOM      5  C   UNL     1      10.814   0.488  24.116  0.00  0.00    +0.000 C 
ATOM      6  C   UNL     1       9.988   0.221  22.864  0.00  0.00    +0.000 C 
ATOM      7  C   UNL     1       9.316  -1.155  22.993  0.00  0.00    +0.000 C 
ENDROOT
BRANCH   1   8
ATOM      8  C   UNL     1       8.495  -2.296  24.866  0.00  0.00    +0.000 C 
BRANCH   8   9
ATOM      9  C   UNL     1       9.182  -3.423  24.162  0.00  0.00    +0.000 C 
BRANCH   9  11
ATOM     10  C   UNL     1       7.237  -4.572  22.956  0.00  0.00    +0.000 C 
ATOM     11  C   UNL     1       8.148  -4.573  23.971  0.00  0.00    +0.000 C 
ATOM     12  F   UNL     1       7.519  -4.758  25.212  0.00  0.00    +0.000 F 
BRANCH  10  14
ATOM     13  O   UNL     1       5.945  -4.819  20.985  0.00  0.00    +0.000 OA
ATOM     14  C   UNL     1       6.987  -5.426  21.716  0.00  0.00    +0.000 C 
ENDBRANCH  10  14
ENDBRANCH   9  11
ENDBRANCH   8   9
ENDBRANCH   1   8
BRANCH   7  15
ATOM     15  N   UNL     1       8.742  -1.474  21.710  0.00  0.00    +0.000 NA
BRANCH  15  16
ATOM     16  C   UNL     1       8.868  -0.340  20.847  0.00  0.00    +0.000 C 
BRANCH  16  17
ATOM     17  S   UNL     1       7.273   0.028  20.124  0.00  0.00    +0.000 S 
ATOM     18  O   UNL     1       6.839   1.280  20.678  0.00  0.00    +0.000 OA
ATOM     19  O   UNL     1       6.425  -1.102  20.378  0.00  0.00    +0.000 OA
ATOM     20  N   UNL     1       7.455   0.202  18.499  0.00  0.00    +0.000 NA
ENDBRANCH  16  17
ENDBRANCH  15  16
ENDBRANCH   7  15
TORSDOF 7
ENDMDL
MODEL 7
REMARK VINA RESULT:      -5.7      2.687      3.024
REMARK  Name = 
REMARK  7 active torsions:
REMARK  status: ('A' for Active; 'I' for Inactive)
REMARK    1  A    between atoms: C_2  and  C_3
REMARK    2  A    between atoms: C_4  and  C_5
REMARK    3  A    between atoms: C_5  and  C_6
REMARK    4  A    between atoms: C_6  and  N_7
REMARK    5  A    between atoms: C_13  and  N_14
REMARK    6  A    between atoms: N_14  and  C_15
REMARK    7  A    between atoms: C_15  and  S_16
REMARK                            x       y       z     vdW  Elec       q    Type
REMARK                         _______ _______ _______ _____ _____    ______ ____
ROOT
ATOM      1  N   UNL     1       8.712  -1.239  23.726  0.00  0.00    +0.000 NA
ATOM      2  C   UNL     1       8.638  -0.280  24.782  0.00  0.00    +0.000 C 
ATOM      3  C   UNL     1       7.989   1.002  24.311  0.00  0.00    +0.000 C 
ATOM      4  C   UNL     1      10.033   0.006  25.332  0.00  0.00    +0.000 C 
ATOM      5  C   UNL     1      10.802   0.795  24.261  0.00  0.00    +0.000 C 
ATOM      6  C   UNL     1      10.050   0.639  22.945  0.00  0.00    +0.000 C 
ATOM      7  C   UNL     1       9.673  -0.839  22.758  0.00  0.00    +0.000 C 
ENDROOT
BRANCH   1   8
ATOM      8  C   UNL     1       9.100  -2.491  24.316  0.00  0.00    +0.000 C 
BRANCH   8   9
ATOM      9  C   UNL     1       7.935  -3.404  24.529  0.00  0.00    +0.000 C 
BRANCH   9  11
ATOM     10  C   UNL     1       6.900  -4.271  26.706  0.00  0.00    +0.000 C 
ATOM     11  C   UNL     1       8.014  -3.954  25.985  0.00  0.00    +0.000 C 
ATOM     12  F   UNL     1       8.843  -3.076  26.701  0.00  0.00    +0.000 F 
BRANCH  10  14
ATOM     13  O   UNL     1       7.217  -6.087  28.195  0.00  0.00    +0.000 OA
ATOM     14  C   UNL     1       6.297  -5.556  27.268  0.00  0.00    +0.000 C 
ENDBRANCH  10  14
ENDBRANCH   9  11
ENDBRANCH   8   9
ENDBRANCH   1   8
BRANCH   7  15
ATOM     15  N   UNL     1       9.178  -0.988  21.412  0.00  0.00    +0.000 NA
BRANCH  15  16
ATOM     16  C   UNL     1       8.822   0.300  20.900  0.00  0.00    +0.000 C 
BRANCH  16  17
ATOM     17  S   UNL     1       7.219   0.196  20.112  0.00  0.00    +0.000 S 
ATOM     18  O   UNL     1       6.488   1.375  20.487  0.00  0.00    +0.000 OA
ATOM     19  O   UNL     1       6.637  -1.057  20.504  0.00  0.00    +0.000 OA
ATOM     20  N   UNL     1       7.428   0.198  18.482  0.00  0.00    +0.000 NA
ENDBRANCH  16  17
ENDBRANCH  15  16
ENDBRANCH   7  15
TORSDOF 7
ENDMDL
MODEL 8
REMARK VINA RESULT:      -5.6      1.972      2.481
REMARK  Name = 
REMARK  7 active torsions:
REMARK  status: ('A' for Active; 'I' for Inactive)
REMARK    1  A    between atoms: C_2  and  C_3
REMARK    2  A    between atoms: C_4  and  C_5
REMARK    3  A    between atoms: C_5  and  C_6
REMARK    4  A    between atoms: C_6  and  N_7
REMARK    5  A    between atoms: C_13  and  N_14
REMARK    6  A    between atoms: N_14  and  C_15
REMARK    7  A    between atoms: C_15  and  S_16
REMARK                            x       y       z     vdW  Elec       q    Type
REMARK                         _______ _______ _______ _____ _____    ______ ____
ROOT
ATOM      1  N   UNL     1       7.947  -0.065  23.599  0.00  0.00    +0.000 NA
ATOM      2  C   UNL     1       8.885  -0.350  24.639  0.00  0.00    +0.000 C 
ATOM      3  C   UNL     1      10.070   0.587  24.576  0.00  0.00    +0.000 C 
ATOM      4  C   UNL     1       9.353  -1.800  24.543  0.00  0.00    +0.000 C 
ATOM      5  C   UNL     1      10.240  -1.921  23.294  0.00  0.00    +0.000 C 
ATOM      6  C   UNL     1       9.989  -0.690  22.430  0.00  0.00    +0.000 C 
ATOM      7  C   UNL     1       8.474  -0.448  22.336  0.00  0.00    +0.000 C 
ENDROOT
BRANCH   1   8
ATOM      8  C   UNL     1       6.757  -0.818  23.885  0.00  0.00    +0.000 C 
BRANCH   8   9
ATOM      9  C   UNL     1       6.424  -1.788  22.796  0.00  0.00    +0.000 C 
BRANCH   9  11
ATOM     10  C   UNL     1       6.757  -4.239  23.464  0.00  0.00    +0.000 C 
ATOM     11  C   UNL     1       5.972  -3.123  23.462  0.00  0.00    +0.000 C 
ATOM     12  F   UNL     1       4.692  -3.408  22.961  0.00  0.00    +0.000 F 
BRANCH  10  14
ATOM     13  O   UNL     1       8.825  -5.185  24.126  0.00  0.00    +0.000 OA
ATOM     14  C   UNL     1       7.480  -5.059  24.528  0.00  0.00    +0.000 C 
ENDBRANCH  10  14
ENDBRANCH   9  11
ENDBRANCH   8   9
ENDBRANCH   1   8
BRANCH   7  15
ATOM     15  N   UNL     1       8.264   0.567  21.334  0.00  0.00    +0.000 NA
BRANCH  15  16
ATOM     16  C   UNL     1       8.222  -0.051  20.044  0.00  0.00    +0.000 C 
BRANCH  16  17
ATOM     17  S   UNL     1       6.657   0.325  19.264  0.00  0.00    +0.000 S 
ATOM     18  O   UNL     1       6.938   0.654  17.893  0.00  0.00    +0.000 OA
ATOM     19  O   UNL     1       6.034   1.358  20.044  0.00  0.00    +0.000 OA
ATOM     20  N   UNL     1       5.709  -1.017  19.303  0.00  0.00    +0.000 NA
ENDBRANCH  16  17
ENDBRANCH  15  16
ENDBRANCH   7  15
TORSDOF 7
ENDMDL
MODEL 9
REMARK VINA RESULT:      -5.3      4.338      6.610
REMARK  Name = 
REMARK  7 active torsions:
REMARK  status: ('A' for Active; 'I' for Inactive)
REMARK    1  A    between atoms: C_2  and  C_3
REMARK    2  A    between atoms: C_4  and  C_5
REMARK    3  A    between atoms: C_5  and  C_6
REMARK    4  A    between atoms: C_6  and  N_7
REMARK    5  A    between atoms: C_13  and  N_14
REMARK    6  A    between atoms: N_14  and  C_15
REMARK    7  A    between atoms: C_15  and  S_16
REMARK                            x       y       z     vdW  Elec       q    Type
REMARK                         _______ _______ _______ _____ _____    ______ ____
ROOT
ATOM      1  N   UNL     1       8.140  -2.569  23.276  0.00  0.00    +0.000 NA
ATOM      2  C   UNL     1       7.078  -1.617  23.184  0.00  0.00    +0.000 C 
ATOM      3  C   UNL     1       5.912  -2.014  24.061  0.00  0.00    +0.000 C 
ATOM      4  C   UNL     1       6.622  -1.475  21.734  0.00  0.00    +0.000 C 
ATOM      5  C   UNL     1       5.899  -2.774  21.344  0.00  0.00    +0.000 C 
ATOM      6  C   UNL     1       6.259  -3.831  22.381  0.00  0.00    +0.000 C 
ATOM      7  C   UNL     1       7.774  -3.785  22.635  0.00  0.00    +0.000 C 
ENDROOT
BRANCH   1   8
ATOM      8  C   UNL     1       9.283  -1.993  22.624  0.00  0.00    +0.000 C 
BRANCH   8   9
ATOM      9  C   UNL     1      10.080  -1.121  23.540  0.00  0.00    +0.000 C 
BRANCH   9  11
ATOM     10  C   UNL     1       9.513   1.364  23.289  0.00  0.00    +0.000 C 
ATOM     11  C   UNL     1      10.224   0.278  22.869  0.00  0.00    +0.000 C 
ATOM     12  F   UNL     1      10.070   0.079  21.488  0.00  0.00    +0.000 F 
BRANCH  10  14
ATOM     13  O   UNL     1      10.935   3.258  23.239  0.00  0.00    +0.000 OA
ATOM     14  C   UNL     1       9.851   2.699  23.946  0.00  0.00    +0.000 C 
ENDBRANCH  10  14
ENDBRANCH   9  11
ENDBRANCH   8   9
ENDBRANCH   1   8
BRANCH   7  15
ATOM     15  N   UNL     1       8.110  -4.937  23.433  0.00  0.00    +0.000 NA
BRANCH  15  16
ATOM     16  C   UNL     1       7.185  -5.039  24.520  0.00  0.00    +0.000 C 
BRANCH  16  17
ATOM     17  S   UNL     1       8.084  -4.958  26.065  0.00  0.00    +0.000 S 
ATOM     18  O   UNL     1       9.471  -5.171  25.756  0.00  0.00    +0.000 OA
ATOM     19  O   UNL     1       7.482  -5.913  26.952  0.00  0.00    +0.000 OA
ATOM     20  N   UNL     1       7.907  -3.453  26.702  0.00  0.00    +0.000 NA
ENDBRANCH  16  17
ENDBRANCH  15  16
ENDBRANCH   7  15
TORSDOF 7
ENDMDL
