MODEL 1
REMARK VINA RESULT:      -7.4      0.000      0.000
REMARK  Name = 
REMARK  5 active torsions:
REMARK  status: ('A' for Active; 'I' for Inactive)
REMARK    1  A    between atoms: C_3  and  C_5
REMARK    2  A    between atoms: C_9  and  N_12
REMARK    3  A    between atoms: C_19  and  N_24
REMARK    4  A    between atoms: N_24  and  C_25
REMARK    5  A    between atoms: C_25  and  S_26
REMARK                            x       y       z     vdW  Elec       q    Type
REMARK                         _______ _______ _______ _____ _____    ______ ____
ROOT
ATOM      1  N   UNL     1       6.270  -2.175  24.124  0.00  0.00    +0.000 N 
ATOM      2  C   UNL     1       6.698  -3.513  24.083  0.00  0.00    +0.000 C 
ATOM      3  C   UNL     1       8.021  -3.589  23.648  0.00  0.00    +0.000 C 
ATOM      4  C   UNL     1       8.704  -2.665  22.723  0.00  0.00    +0.000 C 
ATOM      5  N   UNL     1       7.718  -1.698  22.238  0.00  0.00    +0.000 N 
ATOM      6  C   UNL     1       6.512  -1.931  22.194  0.00  0.00    +0.000 C 
ATOM      7  C   UNL     1       5.882  -2.763  21.329  0.00  0.00    +0.000 C 
ATOM      8  C   UNL     1       8.268  -0.665  21.445  0.00  0.00    +0.000 C 
ATOM      9  C   UNL     1       9.541  -0.157  21.601  0.00  0.00    +0.000 C 
ATOM     10  C   UNL     1      10.619  -1.131  22.266  0.00  0.00    +0.000 C 
ATOM     11  C   UNL     1       9.845  -1.879  23.344  0.00  0.00    +0.000 C 
ATOM     12  C   UNL     1       9.914   1.290  22.180  0.00  0.00    +0.000 C 
ENDROOT
BRANCH   1  16
ATOM     13  C   UNL     1       5.532  -0.409  26.388  0.00  0.00    +0.000 C 
ATOM     14  C   UNL     1       6.753  -1.230  26.538  0.00  0.00    +0.000 C 
ATOM     15  C   UNL     1       5.668  -2.133  25.303  0.00  0.00    +0.000 C 
ATOM     16  C   UNL     1       5.993  -1.027  24.237  0.00  0.00    +0.000 C 
ATOM     17  O   UNL     1       5.287  -0.193  25.003  0.00  0.00    +0.000 OA
BRANCH  13  20
ATOM     18  C   UNL     1       2.097  -1.761  27.225  0.00  0.00    +0.000 C 
ATOM     19  N   UNL     1       3.169  -1.057  26.631  0.00  0.00    +0.000 NA
ATOM     20  C   UNL     1       4.457  -1.303  27.018  0.00  0.00    +0.000 C 
ATOM     21  O   UNL     1       4.663  -1.761  28.118  0.00  0.00    +0.000 OA
ENDBRANCH  13  20
ENDBRANCH   1  16
BRANCH   8  22
ATOM     22  N   UNL     1       7.553  -0.692  20.182  0.00  0.00    +0.000 NA
BRANCH  22  23
ATOM     23  C   UNL     1       7.329   0.650  19.643  0.00  0.00    +0.000 C 
BRANCH  23  24
ATOM     24  S   UNL     1       6.089   0.547  18.365  0.00  0.00    +0.000 S 
ATOM     25  O   UNL     1       6.492   1.381  17.267  0.00  0.00    +0.000 OA
ATOM     26  O   UNL     1       4.828   0.894  18.965  0.00  0.00    +0.000 OA
ATOM     27  N   UNL     1       6.008  -1.008  17.830  0.00  0.00    +0.000 NA
ENDBRANCH  23  24
ENDBRANCH  22  23
ENDBRANCH   8  22
TORSDOF 5
ENDMDL
MODEL 2
REMARK VINA RESULT:      -7.3      2.812      4.160
REMARK  Name = 
REMARK  5 active torsions:
REMARK  status: ('A' for Active; 'I' for Inactive)
REMARK    1  A    between atoms: C_3  and  C_5
REMARK    2  A    between atoms: C_9  and  N_12
REMARK    3  A    between atoms: C_19  and  N_24
REMARK    4  A    between atoms: N_24  and  C_25
REMARK    5  A    between atoms: C_25  and  S_26
REMARK                            x       y       z     vdW  Elec       q    Type
REMARK                         _______ _______ _______ _____ _____    ______ ____
ROOT
ATOM      1  N   UNL     1       9.149  -0.255  24.497  0.00  0.00    +0.000 N 
ATOM      2  C   UNL     1      10.490   0.161  24.524  0.00  0.00    +0.000 C 
ATOM      3  C   UNL     1      10.582   1.528  24.266  0.00  0.00    +0.000 C 
ATOM      4  C   UNL     1       9.674   2.335  23.429  0.00  0.00    +0.000 C 
ATOM      5  N   UNL     1       8.705   1.430  22.810  0.00  0.00    +0.000 N 
ATOM      6  C   UNL     1       8.927   0.238  22.612  0.00  0.00    +0.000 C 
ATOM      7  C   UNL     1       9.764  -0.283  21.681  0.00  0.00    +0.000 C 
ATOM      8  C   UNL     1       7.685   2.089  22.086  0.00  0.00    +0.000 C 
ATOM      9  C   UNL     1       7.186   3.337  22.401  0.00  0.00    +0.000 C 
ATOM     10  C   UNL     1       8.162   4.309  23.210  0.00  0.00    +0.000 C 
ATOM     11  C   UNL     1       8.892   3.393  24.185  0.00  0.00    +0.000 C 
ATOM     12  C   UNL     1       5.736   3.645  23.010  0.00  0.00    +0.000 C 
ENDROOT
BRANCH   1  16
ATOM     13  C   UNL     1       7.525  -2.089  26.168  0.00  0.00    +0.000 C 
ATOM     14  C   UNL     1       8.439  -1.161  26.869  0.00  0.00    +0.000 C 
ATOM     15  C   UNL     1       9.160  -1.404  25.156  0.00  0.00    +0.000 C 
ATOM     16  C   UNL     1       7.997  -0.533  24.561  0.00  0.00    +0.000 C 
ATOM     17  O   UNL     1       7.181  -1.532  24.904  0.00  0.00    +0.000 OA
BRANCH  13  20
ATOM     18  C   UNL     1       8.760  -5.389  24.783  0.00  0.00    +0.000 C 
ATOM     19  N   UNL     1       8.085  -4.159  24.957  0.00  0.00    +0.000 NA
ATOM     20  C   UNL     1       8.391  -3.345  26.013  0.00  0.00    +0.000 C 
ATOM     21  O   UNL     1       8.883  -3.830  27.005  0.00  0.00    +0.000 OA
ENDBRANCH  13  20
ENDBRANCH   1  16
BRANCH   8  22
ATOM     22  N   UNL     1       7.719   1.544  20.740  0.00  0.00    +0.000 NA
BRANCH  22  23
ATOM     23  C   UNL     1       6.383   1.215  20.241  0.00  0.00    +0.000 C 
BRANCH  23  24
ATOM     24  S   UNL     1       6.558   0.198  18.786  0.00  0.00    +0.000 S 
ATOM     25  O   UNL     1       5.685  -0.936  18.913  0.00  0.00    +0.000 OA
ATOM     26  O   UNL     1       7.954  -0.118  18.651  0.00  0.00    +0.000 OA
ATOM     27  N   UNL     1       6.085   1.070  17.472  0.00  0.00    +0.000 NA
ENDBRANCH  23  24
ENDBRANCH  22  23
ENDBRANCH   8  22
TORSDOF 5
ENDMDL
MODEL 3
REMARK VINA RESULT:      -7.2      1.679      2.137
REMARK  Name = 
REMARK  5 active torsions:
REMARK  status: ('A' for Active; 'I' for Inactive)
REMARK    1  A    between atoms: C_3  and  C_5
REMARK    2  A    between atoms: C_9  and  N_12
REMARK    3  A    between atoms: C_19  and  N_24
REMARK    4  A    between atoms: N_24  and  C_25
REMARK    5  A    between atoms: C_25  and  S_26
REMARK                            x       y       z     vdW  Elec       q    Type
REMARK                         _______ _______ _______ _____ _____    ______ ____
ROOT
ATOM      1  N   UNL     1       7.798  -2.098  23.953  0.00  0.00    +0.000 N 
ATOM      2  C   UNL     1       8.790  -2.855  23.308  0.00  0.00    +0.000 C 
ATOM      3  C   UNL     1       9.723  -2.016  22.698  0.00  0.00    +0.000 C 
ATOM      4  C   UNL     1       9.477  -0.671  22.144  0.00  0.00    +0.000 C 
ATOM      5  N   UNL     1       8.043  -0.397  22.242  0.00  0.00    +0.000 N 
ATOM      6  C   UNL     1       7.188  -1.280  22.278  0.00  0.00    +0.000 C 
ATOM      7  C   UNL     1       6.802  -2.071  21.248  0.00  0.00    +0.000 C 
ATOM      8  C   UNL     1       7.683   0.919  21.872  0.00  0.00    +0.000 C 
ATOM      9  C   UNL     1       8.492   2.025  22.039  0.00  0.00    +0.000 C 
ATOM     10  C   UNL     1      10.066   1.754  22.088  0.00  0.00    +0.000 C 
ATOM     11  C   UNL     1      10.205   0.450  22.864  0.00  0.00    +0.000 C 
ATOM     12  C   UNL     1       8.267   3.205  23.101  0.00  0.00    +0.000 C 
ENDROOT
BRANCH   1  16
ATOM     13  C   UNL     1       6.771  -2.076  26.734  0.00  0.00    +0.000 C 
ATOM     14  C   UNL     1       8.237  -2.146  26.553  0.00  0.00    +0.000 C 
ATOM     15  C   UNL     1       7.485  -2.860  24.990  0.00  0.00    +0.000 C 
ATOM     16  C   UNL     1       7.044  -1.415  24.563  0.00  0.00    +0.000 C 
ATOM     17  O   UNL     1       6.192  -1.457  25.591  0.00  0.00    +0.000 OA
BRANCH  13  20
ATOM     18  C   UNL     1       4.578  -5.159  26.851  0.00  0.00    +0.000 C 
ATOM     19  N   UNL     1       5.052  -3.837  26.682  0.00  0.00    +0.000 NA
ATOM     20  C   UNL     1       6.382  -3.556  26.833  0.00  0.00    +0.000 C 
ATOM     21  O   UNL     1       7.064  -4.285  27.514  0.00  0.00    +0.000 OA
ENDBRANCH  13  20
ENDBRANCH   1  16
BRANCH   8  22
ATOM     22  N   UNL     1       6.687   0.794  20.824  0.00  0.00    +0.000 NA
BRANCH  22  23
ATOM     23  C   UNL     1       7.274   0.884  19.486  0.00  0.00    +0.000 C 
BRANCH  23  24
ATOM     24  S   UNL     1       5.978   0.658  18.282  0.00  0.00    +0.000 S 
ATOM     25  O   UNL     1       6.286   1.448  17.123  0.00  0.00    +0.000 OA
ATOM     26  O   UNL     1       4.734   0.980  18.928  0.00  0.00    +0.000 OA
ATOM     27  N   UNL     1       5.943  -0.927  17.833  0.00  0.00    +0.000 NA
ENDBRANCH  23  24
ENDBRANCH  22  23
ENDBRANCH   8  22
TORSDOF 5
ENDMDL
MODEL 4
REMARK VINA RESULT:      -6.9      2.525      2.852
REMARK  Name = 
REMARK  5 active torsions:
REMARK  status: ('A' for Active; 'I' for Inactive)
REMARK    1  A    between atoms: C_3  and  C_5
REMARK    2  A    between atoms: C_9  and  N_12
REMARK    3  A    between atoms: C_19  and  N_24
REMARK    4  A    between atoms: N_24  and  C_25
REMARK    5  A    between atoms: C_25  and  S_26
REMARK                            x       y       z     vdW  Elec       q    Type
REMARK                         _______ _______ _______ _____ _____    ______ ____
ROOT
ATOM      1  N   UNL     1       6.085  -4.351  24.575  0.00  0.00    +0.000 N 
ATOM      2  C   UNL     1       6.687  -5.336  23.776  0.00  0.00    +0.000 C 
ATOM      3  C   UNL     1       7.973  -4.945  23.405  0.00  0.00    +0.000 C 
ATOM      4  C   UNL     1       8.455  -3.565  23.200  0.00  0.00    +0.000 C 
ATOM      5  N   UNL     1       7.313  -2.661  23.344  0.00  0.00    +0.000 N 
ATOM      6  C   UNL     1       6.150  -3.007  23.149  0.00  0.00    +0.000 C 
ATOM      7  C   UNL     1       5.579  -3.276  21.949  0.00  0.00    +0.000 C 
ATOM      8  C   UNL     1       7.658  -1.291  23.308  0.00  0.00    +0.000 C 
ATOM      9  C   UNL     1       8.858  -0.776  23.755  0.00  0.00    +0.000 C 
ATOM     10  C   UNL     1      10.104  -1.776  23.755  0.00  0.00    +0.000 C 
ATOM     11  C   UNL     1       9.519  -3.116  24.184  0.00  0.00    +0.000 C 
ATOM     12  C   UNL     1       9.071   0.111  25.073  0.00  0.00    +0.000 C 
ENDROOT
BRANCH   1  16
ATOM     13  C   UNL     1       6.214  -3.935  27.508  0.00  0.00    +0.000 C 
ATOM     14  C   UNL     1       7.491  -4.171  26.799  0.00  0.00    +0.000 C 
ATOM     15  C   UNL     1       6.157  -4.965  25.747  0.00  0.00    +0.000 C 
ATOM     16  C   UNL     1       5.662  -3.535  25.326  0.00  0.00    +0.000 C 
ATOM     17  O   UNL     1       5.272  -3.385  26.594  0.00  0.00    +0.000 OA
BRANCH  13  20
ATOM     18  C   UNL     1       4.095  -6.744  28.901  0.00  0.00    +0.000 C 
ATOM     19  N   UNL     1       4.531  -5.502  28.387  0.00  0.00    +0.000 NA
ATOM     20  C   UNL     1       5.816  -5.350  27.945  0.00  0.00    +0.000 C 
ATOM     21  O   UNL     1       6.676  -6.082  28.375  0.00  0.00    +0.000 OA
ENDBRANCH  13  20
ENDBRANCH   1  16
BRANCH   8  22
ATOM     22  N   UNL     1       6.864  -0.695  22.248  0.00  0.00    +0.000 NA
BRANCH  22  23
ATOM     23  C   UNL     1       7.666  -0.381  21.064  0.00  0.00    +0.000 C 
BRANCH  23  24
ATOM     24  S   UNL     1       6.564   0.108  19.749  0.00  0.00    +0.000 S 
ATOM     25  O   UNL     1       5.960   1.363  20.100  0.00  0.00    +0.000 OA
ATOM     26  O   UNL     1       5.643  -0.976  19.538  0.00  0.00    +0.000 OA
ATOM     27  N   UNL     1       7.446   0.325  18.374  0.00  0.00    +0.000 NA
ENDBRANCH  23  24
ENDBRANCH  22  23
ENDBRANCH   8  22
TORSDOF 5
ENDMDL
MODEL 5
REMARK VINA RESULT:      -6.8      3.660      4.877
REMARK  Name = 
REMARK  5 active torsions:
REMARK  status: ('A' for Active; 'I' for Inactive)
REMARK    1  A    between atoms: C_3  and  C_5
REMARK    2  A    between atoms: C_9  and  N_12
REMARK    3  A    between atoms: C_19  and  N_24
REMARK    4  A    between atoms: N_24  and  C_25
REMARK    5  A    between atoms: C_25  and  S_26
REMARK                            x       y       z     vdW  Elec       q    Type
REMARK                         _______ _______ _______ _____ _____    ______ ____
ROOT
ATOM      1  N   UNL     1       6.909  -2.325  26.379  0.00  0.00    +0.000 N 
ATOM      2  C   UNL     1       5.663  -1.721  26.143  0.00  0.00    +0.000 C 
ATOM      3  C   UNL     1       5.618  -1.184  24.857  0.00  0.00    +0.000 C 
ATOM      4  C   UNL     1       6.752  -0.647  24.080  0.00  0.00    +0.000 C 
ATOM      5  N   UNL     1       7.938  -0.669  24.937  0.00  0.00    +0.000 N 
ATOM      6  C   UNL     1       7.883  -0.637  26.165  0.00  0.00    +0.000 C 
ATOM      7  C   UNL     1       7.549   0.431  26.930  0.00  0.00    +0.000 C 
ATOM      8  C   UNL     1       9.133  -0.308  24.273  0.00  0.00    +0.000 C 
ATOM      9  C   UNL     1       9.385  -0.545  22.938  0.00  0.00    +0.000 C 
ATOM     10  C   UNL     1       8.109  -0.678  21.986  0.00  0.00    +0.000 C 
ATOM     11  C   UNL     1       7.083  -1.432  22.824  0.00  0.00    +0.000 C 
ATOM     12  C   UNL     1      10.422  -1.618  22.350  0.00  0.00    +0.000 C 
ENDROOT
BRANCH   1  16
ATOM     13  C   UNL     1       7.746  -5.162  26.182  0.00  0.00    +0.000 C 
ATOM     14  C   UNL     1       6.951  -4.610  25.064  0.00  0.00    +0.000 C 
ATOM     15  C   UNL     1       6.520  -3.577  26.568  0.00  0.00    +0.000 C 
ATOM     16  C   UNL     1       7.938  -2.906  26.492  0.00  0.00    +0.000 C 
ATOM     17  O   UNL     1       8.433  -4.099  26.831  0.00  0.00    +0.000 OA
BRANCH  13  20
ATOM     18  C   UNL     1       6.128  -6.620  29.277  0.00  0.00    +0.000 C 
ATOM     19  N   UNL     1       7.019  -5.977  28.388  0.00  0.00    +0.000 NA
ATOM     20  C   UNL     1       6.665  -5.770  27.084  0.00  0.00    +0.000 C 
ATOM     21  O   UNL     1       5.832  -6.486  26.580  0.00  0.00    +0.000 OA
ENDBRANCH  13  20
ENDBRANCH   1  16
BRANCH   8  22
ATOM     22  N   UNL     1       9.701   0.799  25.022  0.00  0.00    +0.000 NA
BRANCH  22  23
ATOM     23  C   UNL     1      10.376   1.766  24.156  0.00  0.00    +0.000 C 
BRANCH  23  24
ATOM     24  S   UNL     1       9.319   3.191  23.968  0.00  0.00    +0.000 S 
ATOM     25  O   UNL     1      10.142   4.344  23.730  0.00  0.00    +0.000 OA
ATOM     26  O   UNL     1       8.489   3.265  25.141  0.00  0.00    +0.000 OA
ATOM     27  N   UNL     1       8.353   2.964  22.653  0.00  0.00    +0.000 NA
ENDBRANCH  23  24
ENDBRANCH  22  23
ENDBRANCH   8  22
TORSDOF 5
ENDMDL
MODEL 6
REMARK VINA RESULT:      -6.8      3.739      7.158
REMARK  Name = 
REMARK  5 active torsions:
REMARK  status: ('A' for Active; 'I' for Inactive)
REMARK    1  A    between atoms: C_3  and  C_5
REMARK    2  A    between atoms: C_9  and  N_12
REMARK    3  A    between atoms: C_19  and  N_24
REMARK    4  A    between atoms: N_24  and  C_25
REMARK    5  A    between atoms: C_25  and  S_26
REMARK                            x       y       z     vdW  Elec       q    Type
REMARK                         _______ _______ _______ _____ _____    ______ ____
ROOT
ATOM      1  N   UNL     1       8.379  -1.494  24.040  0.00  0.00    +0.000 N 
ATOM      2  C   UNL     1       9.574  -2.218  24.182  0.00  0.00    +0.000 C 
ATOM      3  C   UNL     1       9.349  -3.577  23.964  0.00  0.00    +0.000 C 
ATOM      4  C   UNL     1       8.106  -4.325  24.235  0.00  0.00    +0.000 C 
ATOM      5  N   UNL     1       7.163  -3.414  24.886  0.00  0.00    +0.000 N 
ATOM      6  C   UNL     1       7.514  -2.428  25.531  0.00  0.00    +0.000 C 
ATOM      7  C   UNL     1       8.104  -2.431  26.751  0.00  0.00    +0.000 C 
ATOM      8  C   UNL     1       5.876  -3.964  25.079  0.00  0.00    +0.000 C 
ATOM      9  C   UNL     1       5.291  -4.895  24.245  0.00  0.00    +0.000 C 
ATOM     10  C   UNL     1       6.287  -5.815  23.399  0.00  0.00    +0.000 C 
ATOM     11  C   UNL     1       7.423  -4.882  22.999  0.00  0.00    +0.000 C 
ATOM     12  C   UNL     1       4.065  -4.630  23.248  0.00  0.00    +0.000 C 
ENDROOT
BRANCH   1  16
ATOM     13  C   UNL     1       7.585   0.715  22.228  0.00  0.00    +0.000 C 
ATOM     14  C   UNL     1       8.326  -0.418  21.632  0.00  0.00    +0.000 C 
ATOM     15  C   UNL     1       8.797  -0.385  23.447  0.00  0.00    +0.000 C 
ATOM     16  C   UNL     1       7.366  -0.919  23.810  0.00  0.00    +0.000 C 
ATOM     17  O   UNL     1       6.906   0.262  23.393  0.00  0.00    +0.000 OA
BRANCH  13  20
ATOM     18  C   UNL     1       9.320   3.722  23.737  0.00  0.00    +0.000 C 
ATOM     19  N   UNL     1       8.380   2.711  23.430  0.00  0.00    +0.000 NA
ATOM     20  C   UNL     1       8.712   1.695  22.576  0.00  0.00    +0.000 C 
ATOM     21  O   UNL     1       9.591   1.872  21.766  0.00  0.00    +0.000 OA
ENDBRANCH  13  20
ENDBRANCH   1  16
BRANCH   8  22
ATOM     22  N   UNL     1       5.591  -3.854  26.499  0.00  0.00    +0.000 NA
BRANCH  22  23
ATOM     23  C   UNL     1       4.978  -5.069  27.037  0.00  0.00    +0.000 C 
BRANCH  23  24
ATOM     24  S   UNL     1       6.096  -5.789  28.226  0.00  0.00    +0.000 S 
ATOM     25  O   UNL     1       5.953  -5.088  29.472  0.00  0.00    +0.000 OA
ATOM     26  O   UNL     1       7.413  -5.750  27.651  0.00  0.00    +0.000 OA
ATOM     27  N   UNL     1       5.672  -7.362  28.466  0.00  0.00    +0.000 NA
ENDBRANCH  23  24
ENDBRANCH  22  23
ENDBRANCH   8  22
TORSDOF 5
ENDMDL
MODEL 7
REMARK VINA RESULT:      -6.7      3.597      6.894
REMARK  Name = 
REMARK  5 active torsions:
REMARK  status: ('A' for Active; 'I' for Inactive)
REMARK    1  A    between atoms: C_3  and  C_5
REMARK    2  A    between atoms: C_9  and  N_12
REMARK    3  A    between atoms: C_19  and  N_24
REMARK    4  A    between atoms: N_24  and  C_25
REMARK    5  A    between atoms: C_25  and  S_26
REMARK                            x       y       z     vdW  Elec       q    Type
REMARK                         _______ _______ _______ _____ _____    ______ ____
ROOT
ATOM      1  N   UNL     1       7.385  -0.569  24.786  0.00  0.00    +0.000 N 
ATOM      2  C   UNL     1       8.232  -0.396  25.893  0.00  0.00    +0.000 C 
ATOM      3  C   UNL     1       8.967  -1.557  26.131  0.00  0.00    +0.000 C 
ATOM      4  C   UNL     1       8.549  -2.944  25.849  0.00  0.00    +0.000 C 
ATOM      5  N   UNL     1       7.166  -2.911  25.373  0.00  0.00    +0.000 N 
ATOM      6  C   UNL     1       6.378  -2.011  25.652  0.00  0.00    +0.000 C 
ATOM      7  C   UNL     1       5.797  -1.792  26.857  0.00  0.00    +0.000 C 
ATOM      8  C   UNL     1       6.681  -4.164  24.933  0.00  0.00    +0.000 C 
ATOM      9  C   UNL     1       7.463  -5.147  24.360  0.00  0.00    +0.000 C 
ATOM     10  C   UNL     1       9.016  -5.129  24.738  0.00  0.00    +0.000 C 
ATOM     11  C   UNL     1       9.379  -3.650  24.793  0.00  0.00    +0.000 C 
ATOM     12  C   UNL     1       7.442  -5.589  22.820  0.00  0.00    +0.000 C 
ENDROOT
BRANCH   1  16
ATOM     13  C   UNL     1       7.740   0.208  21.947  0.00  0.00    +0.000 C 
ATOM     14  C   UNL     1       8.879  -0.457  22.615  0.00  0.00    +0.000 C 
ATOM     15  C   UNL     1       7.880   0.357  23.977  0.00  0.00    +0.000 C 
ATOM     16  C   UNL     1       6.765  -0.733  23.787  0.00  0.00    +0.000 C 
ATOM     17  O   UNL     1       6.533  -0.173  22.597  0.00  0.00    +0.000 OA
BRANCH  13  20
ATOM     18  C   UNL     1       7.197   3.949  22.148  0.00  0.00    +0.000 C 
ATOM     19  N   UNL     1       6.996   2.553  22.058  0.00  0.00    +0.000 NA
ATOM     20  C   UNL     1       8.054   1.693  22.167  0.00  0.00    +0.000 C 
ATOM     21  O   UNL     1       9.164   2.091  21.902  0.00  0.00    +0.000 OA
ENDBRANCH  13  20
ENDBRANCH   1  16
BRANCH   8  22
ATOM     22  N   UNL     1       5.477  -4.430  25.699  0.00  0.00    +0.000 NA
BRANCH  22  23
ATOM     23  C   UNL     1       5.407  -5.818  26.159  0.00  0.00    +0.000 C 
BRANCH  23  24
ATOM     24  S   UNL     1       5.953  -5.880  27.856  0.00  0.00    +0.000 S 
ATOM     25  O   UNL     1       5.307  -4.823  28.584  0.00  0.00    +0.000 OA
ATOM     26  O   UNL     1       7.390  -5.825  27.845  0.00  0.00    +0.000 OA
ATOM     27  N   UNL     1       5.486  -7.318  28.510  0.00  0.00    +0.000 NA
ENDBRANCH  23  24
ENDBRANCH  22  23
ENDBRANCH   8  22
TORSDOF 5
ENDMDL
MODEL 8
REMARK VINA RESULT:      -6.6      3.408      4.950
REMARK  Name = 
REMARK  5 active torsions:
REMARK  status: ('A' for Active; 'I' for Inactive)
REMARK    1  A    between atoms: C_3  and  C_5
REMARK    2  A    between atoms: C_9  and  N_12
REMARK    3  A    between atoms: C_19  and  N_24
REMARK    4  A    between atoms: N_24  and  C_25
REMARK    5  A    between atoms: C_25  and  S_26
REMARK                            x       y       z     vdW  Elec       q    Type
REMARK                         _______ _______ _______ _____ _____    ______ ____
ROOT
ATOM      1  N   UNL     1       8.251  -1.183  22.442  0.00  0.00    +0.000 N 
ATOM      2  C   UNL     1       9.386  -0.949  21.648  0.00  0.00    +0.000 C 
ATOM      3  C   UNL     1      10.008   0.241  22.026  0.00  0.00    +0.000 C 
ATOM      4  C   UNL     1       9.360   1.439  22.592  0.00  0.00    +0.000 C 
ATOM      5  N   UNL     1       7.914   1.214  22.592  0.00  0.00    +0.000 N 
ATOM      6  C   UNL     1       7.351   0.444  21.817  0.00  0.00    +0.000 C 
ATOM      7  C   UNL     1       7.159   0.634  20.489  0.00  0.00    +0.000 C 
ATOM      8  C   UNL     1       7.175   2.231  23.238  0.00  0.00    +0.000 C 
ATOM      9  C   UNL     1       7.639   2.978  24.302  0.00  0.00    +0.000 C 
ATOM     10  C   UNL     1       9.225   3.126  24.426  0.00  0.00    +0.000 C 
ATOM     11  C   UNL     1       9.771   1.764  24.017  0.00  0.00    +0.000 C 
ATOM     12  C   UNL     1       7.138   2.869  25.820  0.00  0.00    +0.000 C 
ENDROOT
BRANCH   1  16
ATOM     13  C   UNL     1       7.653  -3.268  24.463  0.00  0.00    +0.000 C 
ATOM     14  C   UNL     1       8.984  -2.627  24.523  0.00  0.00    +0.000 C 
ATOM     15  C   UNL     1       8.408  -2.462  22.746  0.00  0.00    +0.000 C 
ATOM     16  C   UNL     1       7.363  -1.383  23.204  0.00  0.00    +0.000 C 
ATOM     17  O   UNL     1       6.737  -2.375  23.841  0.00  0.00    +0.000 OA
BRANCH  13  20
ATOM     18  C   UNL     1       6.979  -6.141  22.092  0.00  0.00    +0.000 C 
ATOM     19  N   UNL     1       6.862  -4.956  22.855  0.00  0.00    +0.000 NA
ATOM     20  C   UNL     1       7.922  -4.499  23.589  0.00  0.00    +0.000 C 
ATOM     21  O   UNL     1       8.772  -5.281  23.944  0.00  0.00    +0.000 OA
ENDBRANCH  13  20
ENDBRANCH   1  16
BRANCH   8  22
ATOM     22  N   UNL     1       6.206   2.713  22.270  0.00  0.00    +0.000 NA
BRANCH  22  23
ATOM     23  C   UNL     1       5.539   3.938  22.714  0.00  0.00    +0.000 C 
BRANCH  23  24
ATOM     24  S   UNL     1       3.827   3.563  23.042  0.00  0.00    +0.000 S 
ATOM     25  O   UNL     1       3.766   2.535  24.044  0.00  0.00    +0.000 OA
ATOM     26  O   UNL     1       3.215   3.227  21.784  0.00  0.00    +0.000 OA
ATOM     27  N   UNL     1       3.095   4.912  23.640  0.00  0.00    +0.000 NA
ENDBRANCH  23  24
ENDBRANCH  22  23
ENDBRANCH   8  22
TORSDOF 5
ENDMDL
MODEL 9
REMARK VINA RESULT:      -6.5      4.055      7.688
REMARK  Name = 
REMARK  5 active torsions:
REMARK  status: ('A' for Active; 'I' for Inactive)
REMARK    1  A    between atoms: C_3  and  C_5
REMARK    2  A    between atoms: C_9  and  N_12
REMARK    3  A    between atoms: C_19  and  N_24
REMARK    4  A    between atoms: N_24  and  C_25
REMARK    5  A    between atoms: C_25  and  S_26
REMARK                            x       y       z     vdW  Elec       q    Type
REMARK                         _______ _______ _______ _____ _____    ______ ____
ROOT
ATOM      1  N   UNL     1       7.430  -3.151  23.433  0.00  0.00    +0.000 N 
ATOM      2  C   UNL     1       7.898  -4.010  22.425  0.00  0.00    +0.000 C 
ATOM      3  C   UNL     1       7.025  -5.084  22.255  0.00  0.00    +0.000 C 
ATOM      4  C   UNL     1       6.173  -5.705  23.288  0.00  0.00    +0.000 C 
ATOM      5  N   UNL     1       6.481  -5.071  24.570  0.00  0.00    +0.000 N 
ATOM      6  C   UNL     1       7.560  -4.535  24.816  0.00  0.00    +0.000 C 
ATOM      7  C   UNL     1       8.742  -5.163  25.026  0.00  0.00    +0.000 C 
ATOM      8  C   UNL     1       5.636  -5.476  25.628  0.00  0.00    +0.000 C 
ATOM      9  C   UNL     1       4.316  -5.849  25.475  0.00  0.00    +0.000 C 
ATOM     10  C   UNL     1       3.900  -6.410  24.038  0.00  0.00    +0.000 C 
ATOM     11  C   UNL     1       4.682  -5.553  23.050  0.00  0.00    +0.000 C 
ATOM     12  C   UNL     1       3.038  -5.006  25.949  0.00  0.00    +0.000 C 
ENDROOT
BRANCH   1  16
ATOM     13  C   UNL     1       7.291  -0.204  23.728  0.00  0.00    +0.000 C 
ATOM     14  C   UNL     1       6.907  -0.774  22.418  0.00  0.00    +0.000 C 
ATOM     15  C   UNL     1       8.072  -2.015  23.203  0.00  0.00    +0.000 C 
ATOM     16  C   UNL     1       6.941  -2.409  24.219  0.00  0.00    +0.000 C 
ATOM     17  O   UNL     1       7.092  -1.187  24.737  0.00  0.00    +0.000 OA
BRANCH  13  20
ATOM     18  C   UNL     1      10.880   0.632  24.591  0.00  0.00    +0.000 C 
ATOM     19  N   UNL     1       9.521   0.252  24.667  0.00  0.00    +0.000 NA
ATOM     20  C   UNL     1       8.779   0.104  23.527  0.00  0.00    +0.000 C 
ATOM     21  O   UNL     1       9.114   0.695  22.527  0.00  0.00    +0.000 OA
ENDBRANCH  13  20
ENDBRANCH   1  16
BRANCH   8  22
ATOM     22  N   UNL     1       6.505  -5.980  26.677  0.00  0.00    +0.000 NA
BRANCH  22  23
ATOM     23  C   UNL     1       6.372  -5.219  27.920  0.00  0.00    +0.000 C 
BRANCH  23  24
ATOM     24  S   UNL     1       5.704  -6.297  29.175  0.00  0.00    +0.000 S 
ATOM     25  O   UNL     1       6.362  -6.013  30.421  0.00  0.00    +0.000 OA
ATOM     26  O   UNL     1       5.850  -7.647  28.701  0.00  0.00    +0.000 OA
ATOM     27  N   UNL     1       4.099  -5.971  29.352  0.00  0.00    +0.000 NA
ENDBRANCH  23  24
ENDBRANCH  22  23
ENDBRANCH   8  22
TORSDOF 5
ENDMDL
