MODEL 1
REMARK VINA RESULT:      -8.2      0.000      0.000
REMARK  Name = 
REMARK  5 active torsions:
REMARK  status: ('A' for Active; 'I' for Inactive)
REMARK    1  A    between atoms: C_3  and  C_5
REMARK    2  A    between atoms: C_9  and  N_12
REMARK    3  A    between atoms: C_18  and  N_24
REMARK    4  A    between atoms: N_24  and  C_25
REMARK    5  A    between atoms: C_25  and  S_26
REMARK                            x       y       z     vdW  Elec       q    Type
REMARK                         _______ _______ _______ _____ _____    ______ ____
ROOT
ATOM      1  N   UNL     1       8.993   0.120  23.207  0.00  0.00    +0.000 NA
ATOM      2  C   UNL     1      10.014  -1.062  23.910  0.00  0.00    +0.000 C 
ATOM      3  C   UNL     1       8.765  -1.261  24.663  0.00  0.00    +0.000 C 
ATOM      4  C   UNL     1       7.649  -1.935  23.957  0.00  0.00    +0.000 C 
ATOM      5  N   UNL     1       7.730  -1.831  22.528  0.00  0.00    +0.000 N 
ATOM      6  C   UNL     1       8.967  -1.704  21.924  0.00  0.00    +0.000 C 
ATOM      7  C   UNL     1       6.739  -2.522  21.796  0.00  0.00    +0.000 C 
ATOM      8  C   UNL     1       6.335  -3.759  22.225  0.00  0.00    +0.000 C 
ATOM      9  C   UNL     1       6.665  -4.218  23.669  0.00  0.00    +0.000 C 
ATOM     10  C   UNL     1       7.593  -3.373  24.376  0.00  0.00    +0.000 C 
ATOM     11  C   UNL     1       5.446  -4.649  24.394  0.00  0.00    +0.000 C 
ATOM     12  C   UNL     1       6.396  -5.111  21.361  0.00  0.00    +0.000 C 
ENDROOT
BRANCH   1  16
ATOM     13  C   UNL     1      10.545   2.271  23.088  0.00  0.00    +0.000 C 
ATOM     14  C   UNL     1      10.442   1.334  24.141  0.00  0.00    +0.000 C 
ATOM     15  C   UNL     1       8.899   0.512  21.920  0.00  0.00    +0.000 C 
ATOM     16  C   UNL     1       9.749   0.473  22.138  0.00  0.00    +0.000 C 
ATOM     17  O   UNL     1       9.787   1.973  22.086  0.00  0.00    +0.000 OA
BRANCH  13  20
ATOM     18  C   UNL     1       8.328   5.056  24.119  0.00  0.00    +0.000 C 
ATOM     19  N   UNL     1       9.058   3.818  24.299  0.00  0.00    +0.000 NA
ATOM     20  C   UNL     1      10.241   3.637  23.651  0.00  0.00    +0.000 C 
ATOM     21  O   UNL     1      10.990   4.598  23.564  0.00  0.00    +0.000 OA
ENDBRANCH  13  20
ENDBRANCH   1  16
BRANCH   7  22
ATOM     22  N   UNL     1       6.100  -1.484  21.118  0.00  0.00    +0.000 NA
BRANCH  22  23
ATOM     23  C   UNL     1       5.944  -1.612  19.707  0.00  0.00    +0.000 C 
BRANCH  23  24
ATOM     24  S   UNL     1       6.393  -0.194  18.776  0.00  0.00    +0.000 S 
ATOM     25  O   UNL     1       7.822  -0.080  18.703  0.00  0.00    +0.000 OA
ATOM     26  O   UNL     1       5.726  -0.287  17.489  0.00  0.00    +0.000 OA
ATOM     27  N   UNL     1       5.817   1.174  19.516  0.00  0.00    +0.000 NA
ENDBRANCH  23  24
ENDBRANCH  22  23
ENDBRANCH   7  22
TORSDOF 5
ENDMDL
MODEL 2
REMARK VINA RESULT:      -7.5      2.723      6.396
REMARK  Name = 
REMARK  5 active torsions:
REMARK  status: ('A' for Active; 'I' for Inactive)
REMARK    1  A    between atoms: C_3  and  C_5
REMARK    2  A    between atoms: C_9  and  N_12
REMARK    3  A    between atoms: C_18  and  N_24
REMARK    4  A    between atoms: N_24  and  C_25
REMARK    5  A    between atoms: C_25  and  S_26
REMARK                            x       y       z     vdW  Elec       q    Type
REMARK                         _______ _______ _______ _____ _____    ______ ____
ROOT
ATOM      1  N   UNL     1       7.286  -2.073  24.299  0.00  0.00    +0.000 NA
ATOM      2  C   UNL     1       8.179  -1.885  25.749  0.00  0.00    +0.000 C 
ATOM      3  C   UNL     1       9.182  -1.525  24.732  0.00  0.00    +0.000 C 
ATOM      4  C   UNL     1       9.034  -0.205  24.074  0.00  0.00    +0.000 C 
ATOM      5  N   UNL     1       7.693   0.306  24.112  0.00  0.00    +0.000 N 
ATOM      6  C   UNL     1       6.855  -0.057  25.150  0.00  0.00    +0.000 C 
ATOM      7  C   UNL     1       7.504   1.598  23.572  0.00  0.00    +0.000 C 
ATOM      8  C   UNL     1       8.455   2.559  23.793  0.00  0.00    +0.000 C 
ATOM      9  C   UNL     1       9.867   2.145  24.285  0.00  0.00    +0.000 C 
ATOM     10  C   UNL     1       9.985   0.771  24.698  0.00  0.00    +0.000 C 
ATOM     11  C   UNL     1      10.930   2.688  23.405  0.00  0.00    +0.000 C 
ATOM     12  C   UNL     1       8.198   3.980  24.493  0.00  0.00    +0.000 C 
ENDROOT
BRANCH   1  16
ATOM     13  C   UNL     1       5.945  -4.358  24.461  0.00  0.00    +0.000 C 
ATOM     14  C   UNL     1       7.292  -4.117  24.813  0.00  0.00    +0.000 C 
ATOM     15  C   UNL     1       6.006  -1.708  24.088  0.00  0.00    +0.000 C 
ATOM     16  C   UNL     1       6.038  -2.205  24.811  0.00  0.00    +0.000 C 
ATOM     17  O   UNL     1       5.347  -3.293  24.044  0.00  0.00    +0.000 OA
BRANCH  13  20
ATOM     18  C   UNL     1       6.293  -5.795  21.064  0.00  0.00    +0.000 C 
ATOM     19  N   UNL     1       6.758  -5.374  22.370  0.00  0.00    +0.000 NA
ATOM     20  C   UNL     1       5.923  -5.468  23.441  0.00  0.00    +0.000 C 
ATOM     21  O   UNL     1       5.202  -6.451  23.509  0.00  0.00    +0.000 OA
ENDBRANCH  13  20
ENDBRANCH   1  16
BRANCH   7  22
ATOM     22  N   UNL     1       6.615   1.350  22.527  0.00  0.00    +0.000 NA
BRANCH  22  23
ATOM     23  C   UNL     1       7.090   1.533  21.195  0.00  0.00    +0.000 C 
BRANCH  23  24
ATOM     24  S   UNL     1       7.627   0.071  20.387  0.00  0.00    +0.000 S 
ATOM     25  O   UNL     1       9.006  -0.187  20.693  0.00  0.00    +0.000 OA
ATOM     26  O   UNL     1       6.715  -0.995  20.761  0.00  0.00    +0.000 OA
ATOM     27  N   UNL     1       7.503   0.255  18.744  0.00  0.00    +0.000 NA
ENDBRANCH  23  24
ENDBRANCH  22  23
ENDBRANCH   7  22
TORSDOF 5
ENDMDL
MODEL 3
REMARK VINA RESULT:      -7.3      2.918      4.561
REMARK  Name = 
REMARK  5 active torsions:
REMARK  status: ('A' for Active; 'I' for Inactive)
REMARK    1  A    between atoms: C_3  and  C_5
REMARK    2  A    between atoms: C_9  and  N_12
REMARK    3  A    between atoms: C_18  and  N_24
REMARK    4  A    between atoms: N_24  and  C_25
REMARK    5  A    between atoms: C_25  and  S_26
REMARK                            x       y       z     vdW  Elec       q    Type
REMARK                         _______ _______ _______ _____ _____    ______ ____
ROOT
ATOM      1  N   UNL     1       7.523  -0.757  22.887  0.00  0.00    +0.000 NA
ATOM      2  C   UNL     1       7.656   0.125  24.350  0.00  0.00    +0.000 C 
ATOM      3  C   UNL     1       6.344  -0.524  24.511  0.00  0.00    +0.000 C 
ATOM      4  C   UNL     1       6.339  -1.975  24.813  0.00  0.00    +0.000 C 
ATOM      5  N   UNL     1       7.534  -2.651  24.396  0.00  0.00    +0.000 N 
ATOM      6  C   UNL     1       8.726  -1.952  24.337  0.00  0.00    +0.000 C 
ATOM      7  C   UNL     1       7.623  -4.021  24.728  0.00  0.00    +0.000 C 
ATOM      8  C   UNL     1       7.162  -4.442  25.948  0.00  0.00    +0.000 C 
ATOM      9  C   UNL     1       6.226  -3.523  26.775  0.00  0.00    +0.000 C 
ATOM     10  C   UNL     1       6.106  -2.177  26.279  0.00  0.00    +0.000 C 
ATOM     11  C   UNL     1       4.976  -4.224  27.157  0.00  0.00    +0.000 C 
ATOM     12  C   UNL     1       8.029  -5.217  27.055  0.00  0.00    +0.000 C 
ENDROOT
BRANCH   1  16
ATOM     13  C   UNL     1       8.214   0.530  20.671  0.00  0.00    +0.000 C 
ATOM     14  C   UNL     1       7.331   0.964  21.686  0.00  0.00    +0.000 C 
ATOM     15  C   UNL     1       8.556  -1.479  22.406  0.00  0.00    +0.000 C 
ATOM     16  C   UNL     1       8.792  -0.633  22.425  0.00  0.00    +0.000 C 
ATOM     17  O   UNL     1       8.729  -0.625  20.926  0.00  0.00    +0.000 OA
BRANCH  13  20
ATOM     18  C   UNL     1       5.185   0.775  18.550  0.00  0.00    +0.000 C 
ATOM     19  N   UNL     1       6.321   1.288  19.287  0.00  0.00    +0.000 NA
ATOM     20  C   UNL     1       7.461   0.548  19.364  0.00  0.00    +0.000 C 
ATOM     21  O   UNL     1       7.806  -0.062  18.363  0.00  0.00    +0.000 OA
ENDBRANCH  13  20
ENDBRANCH   1  16
BRANCH   7  22
ATOM     22  N   UNL     1       7.704  -4.621  23.472  0.00  0.00    +0.000 NA
BRANCH  22  23
ATOM     23  C   UNL     1       6.757  -5.641  23.163  0.00  0.00    +0.000 C 
BRANCH  23  24
ATOM     24  S   UNL     1       5.551  -5.202  21.968  0.00  0.00    +0.000 S 
ATOM     25  O   UNL     1       5.792  -5.902  20.738  0.00  0.00    +0.000 OA
ATOM     26  O   UNL     1       4.245  -5.442  22.556  0.00  0.00    +0.000 OA
ATOM     27  N   UNL     1       5.639  -3.577  21.646  0.00  0.00    +0.000 NA
ENDBRANCH  23  24
ENDBRANCH  22  23
ENDBRANCH   7  22
TORSDOF 5
ENDMDL
MODEL 4
REMARK VINA RESULT:      -7.2      4.283      7.013
REMARK  Name = 
REMARK  5 active torsions:
REMARK  status: ('A' for Active; 'I' for Inactive)
REMARK    1  A    between atoms: C_3  and  C_5
REMARK    2  A    between atoms: C_9  and  N_12
REMARK    3  A    between atoms: C_18  and  N_24
REMARK    4  A    between atoms: N_24  and  C_25
REMARK    5  A    between atoms: C_25  and  S_26
REMARK                            x       y       z     vdW  Elec       q    Type
REMARK                         _______ _______ _______ _____ _____    ______ ____
ROOT
ATOM      1  N   UNL     1       7.774  -3.050  25.031  0.00  0.00    +0.000 NA
ATOM      2  C   UNL     1       8.674  -3.790  23.775  0.00  0.00    +0.000 C 
ATOM      3  C   UNL     1       7.575  -3.161  23.024  0.00  0.00    +0.000 C 
ATOM      4  C   UNL     1       7.623  -1.688  22.859  0.00  0.00    +0.000 C 
ATOM      5  N   UNL     1       8.406  -1.026  23.863  0.00  0.00    +0.000 N 
ATOM      6  C   UNL     1       9.454  -1.698  24.463  0.00  0.00    +0.000 C 
ATOM      7  C   UNL     1       8.556   0.371  23.714  0.00  0.00    +0.000 C 
ATOM      8  C   UNL     1       8.734   0.892  22.459  0.00  0.00    +0.000 C 
ATOM      9  C   UNL     1       8.395   0.031  21.214  0.00  0.00    +0.000 C 
ATOM     10  C   UNL     1       8.136  -1.358  21.491  0.00  0.00    +0.000 C 
ATOM     11  C   UNL     1       7.456   0.734  20.307  0.00  0.00    +0.000 C 
ATOM     12  C   UNL     1       9.981   1.786  21.989  0.00  0.00    +0.000 C 
ENDROOT
BRANCH   1  16
ATOM     13  C   UNL     1       7.741  -5.022  26.808  0.00  0.00    +0.000 C 
ATOM     14  C   UNL     1       7.618  -5.120  25.403  0.00  0.00    +0.000 C 
ATOM     15  C   UNL     1       8.175  -2.458  26.174  0.00  0.00    +0.000 C 
ATOM     16  C   UNL     1       8.651  -3.186  26.056  0.00  0.00    +0.000 C 
ATOM     17  O   UNL     1       7.912  -3.807  27.205  0.00  0.00    +0.000 OA
BRANCH  13  20
ATOM     18  C   UNL     1       5.682  -6.299  29.612  0.00  0.00    +0.000 C 
ATOM     19  N   UNL     1       6.173  -5.296  28.688  0.00  0.00    +0.000 NA
ATOM     20  C   UNL     1       6.523  -5.663  27.425  0.00  0.00    +0.000 C 
ATOM     21  O   UNL     1       5.825  -6.494  26.865  0.00  0.00    +0.000 OA
ENDBRANCH  13  20
ENDBRANCH   1  16
BRANCH   7  22
ATOM     22  N   UNL     1       7.962   0.854  24.879  0.00  0.00    +0.000 NA
BRANCH  22  23
ATOM     23  C   UNL     1       6.618   1.321  24.794  0.00  0.00    +0.000 C 
BRANCH  23  24
ATOM     24  S   UNL     1       5.456   0.429  25.759  0.00  0.00    +0.000 S 
ATOM     25  O   UNL     1       5.132  -0.816  25.121  0.00  0.00    +0.000 OA
ATOM     26  O   UNL     1       6.008   0.298  27.096  0.00  0.00    +0.000 OA
ATOM     27  N   UNL     1       4.052   1.300  25.903  0.00  0.00    +0.000 NA
ENDBRANCH  23  24
ENDBRANCH  22  23
ENDBRANCH   7  22
TORSDOF 5
ENDMDL
MODEL 5
REMARK VINA RESULT:      -6.8      3.055      3.555
REMARK  Name = 
REMARK  5 active torsions:
REMARK  status: ('A' for Active; 'I' for Inactive)
REMARK    1  A    between atoms: C_3  and  C_5
REMARK    2  A    between atoms: C_9  and  N_12
REMARK    3  A    between atoms: C_18  and  N_24
REMARK    4  A    between atoms: N_24  and  C_25
REMARK    5  A    between atoms: C_25  and  S_26
REMARK                            x       y       z     vdW  Elec       q    Type
REMARK                         _______ _______ _______ _____ _____    ______ ____
ROOT
ATOM      1  N   UNL     1       8.472   0.094  23.094  0.00  0.00    +0.000 NA
ATOM      2  C   UNL     1      10.077  -0.490  22.966  0.00  0.00    +0.000 C 
ATOM      3  C   UNL     1       9.674  -1.013  24.282  0.00  0.00    +0.000 C 
ATOM      4  C   UNL     1       8.734  -2.160  24.296  0.00  0.00    +0.000 C 
ATOM      5  N   UNL     1       7.947  -2.269  23.101  0.00  0.00    +0.000 N 
ATOM      6  C   UNL     1       8.454  -1.793  21.906  0.00  0.00    +0.000 C 
ATOM      7  C   UNL     1       7.090  -3.390  23.020  0.00  0.00    +0.000 C 
ATOM      8  C   UNL     1       7.529  -4.599  23.490  0.00  0.00    +0.000 C 
ATOM      9  C   UNL     1       8.763  -4.659  24.427  0.00  0.00    +0.000 C 
ATOM     10  C   UNL     1       9.499  -3.426  24.538  0.00  0.00    +0.000 C 
ATOM     11  C   UNL     1       8.458  -5.387  25.683  0.00  0.00    +0.000 C 
ATOM     12  C   UNL     1       7.623  -5.954  22.634  0.00  0.00    +0.000 C 
ENDROOT
BRANCH   1  16
ATOM     13  C   UNL     1       8.572   2.629  22.312  0.00  0.00    +0.000 C 
ATOM     14  C   UNL     1       9.481   1.944  23.150  0.00  0.00    +0.000 C 
ATOM     15  C   UNL     1       7.535   0.168  22.127  0.00  0.00    +0.000 C 
ATOM     16  C   UNL     1       8.279   0.522  21.823  0.00  0.00    +0.000 C 
ATOM     17  O   UNL     1       7.619   1.867  21.893  0.00  0.00    +0.000 OA
BRANCH  13  20
ATOM     18  C   UNL     1       6.040   5.163  23.261  0.00  0.00    +0.000 C 
ATOM     19  N   UNL     1       6.730   3.892  23.351  0.00  0.00    +0.000 NA
ATOM     20  C   UNL     1       8.060   3.829  23.068  0.00  0.00    +0.000 C 
ATOM     21  O   UNL     1       8.761   4.755  23.446  0.00  0.00    +0.000 OA
ENDBRANCH  13  20
ENDBRANCH   1  16
BRANCH   7  22
ATOM     22  N   UNL     1       5.834  -2.791  22.934  0.00  0.00    +0.000 NA
BRANCH  22  23
ATOM     23  C   UNL     1       4.859  -3.154  23.909  0.00  0.00    +0.000 C 
BRANCH  23  24
ATOM     24  S   UNL     1       4.881  -2.196  25.378  0.00  0.00    +0.000 S 
ATOM     25  O   UNL     1       3.557  -2.094  25.925  0.00  0.00    +0.000 OA
ATOM     26  O   UNL     1       5.861  -2.788  26.272  0.00  0.00    +0.000 OA
ATOM     27  N   UNL     1       5.405  -0.658  25.043  0.00  0.00    +0.000 NA
ENDBRANCH  23  24
ENDBRANCH  22  23
ENDBRANCH   7  22
TORSDOF 5
ENDMDL
MODEL 6
REMARK VINA RESULT:      -6.8      3.242      6.698
REMARK  Name = 
REMARK  5 active torsions:
REMARK  status: ('A' for Active; 'I' for Inactive)
REMARK    1  A    between atoms: C_3  and  C_5
REMARK    2  A    between atoms: C_9  and  N_12
REMARK    3  A    between atoms: C_18  and  N_24
REMARK    4  A    between atoms: N_24  and  C_25
REMARK    5  A    between atoms: C_25  and  S_26
REMARK                            x       y       z     vdW  Elec       q    Type
REMARK                         _______ _______ _______ _____ _____    ______ ____
ROOT
ATOM      1  N   UNL     1       6.446  -2.870  24.691  0.00  0.00    +0.000 NA
ATOM      2  C   UNL     1       6.438  -1.989  26.161  0.00  0.00    +0.000 C 
ATOM      3  C   UNL     1       7.879  -2.223  25.961  0.00  0.00    +0.000 C 
ATOM      4  C   UNL     1       8.556  -1.422  24.913  0.00  0.00    +0.000 C 
ATOM      5  N   UNL     1       7.663  -0.932  23.902  0.00  0.00    +0.000 N 
ATOM      6  C   UNL     1       6.339  -0.693  24.220  0.00  0.00    +0.000 C 
ATOM      7  C   UNL     1       8.235  -0.094  22.919  0.00  0.00    +0.000 C 
ATOM      8  C   UNL     1       9.182   0.822  23.294  0.00  0.00    +0.000 C 
ATOM      9  C   UNL     1       9.883   0.685  24.671  0.00  0.00    +0.000 C 
ATOM     10  C   UNL     1       9.295  -0.288  25.555  0.00  0.00    +0.000 C 
ATOM     11  C   UNL     1      11.359   0.676  24.531  0.00  0.00    +0.000 C 
ATOM     12  C   UNL     1       9.090   2.408  23.059  0.00  0.00    +0.000 C 
ENDROOT
BRANCH   1  16
ATOM     13  C   UNL     1       4.454  -4.537  25.238  0.00  0.00    +0.000 C 
ATOM     14  C   UNL     1       5.448  -4.057  26.120  0.00  0.00    +0.000 C 
ATOM     15  C   UNL     1       5.662  -2.802  23.597  0.00  0.00    +0.000 C 
ATOM     16  C   UNL     1       5.159  -2.692  24.307  0.00  0.00    +0.000 C 
ATOM     17  O   UNL     1       4.572  -4.049  24.049  0.00  0.00    +0.000 OA
BRANCH  13  20
ATOM     18  C   UNL     1       3.092  -7.950  24.755  0.00  0.00    +0.000 C 
ATOM     19  N   UNL     1       3.752  -6.725  24.349  0.00  0.00    +0.000 NA
ATOM     20  C   UNL     1       4.513  -6.044  25.249  0.00  0.00    +0.000 C 
ATOM     21  O   UNL     1       5.202  -6.700  26.016  0.00  0.00    +0.000 OA
ENDBRANCH  13  20
ENDBRANCH   1  16
BRANCH   7  22
ATOM     22  N   UNL     1       8.012  -0.820  21.750  0.00  0.00    +0.000 NA
BRANCH  22  23
ATOM     23  C   UNL     1       8.299  -0.182  20.508  0.00  0.00    +0.000 C 
BRANCH  23  24
ATOM     24  S   UNL     1       6.894   0.246  19.548  0.00  0.00    +0.000 S 
ATOM     25  O   UNL     1       6.203   1.353  20.145  0.00  0.00    +0.000 OA
ATOM     26  O   UNL     1       7.349   0.479  18.188  0.00  0.00    +0.000 OA
ATOM     27  N   UNL     1       5.839  -1.032  19.488  0.00  0.00    +0.000 NA
ENDBRANCH  23  24
ENDBRANCH  22  23
ENDBRANCH   7  22
TORSDOF 5
ENDMDL
MODEL 7
REMARK VINA RESULT:      -6.8      3.965      7.374
REMARK  Name = 
REMARK  5 active torsions:
REMARK  status: ('A' for Active; 'I' for Inactive)
REMARK    1  A    between atoms: C_3  and  C_5
REMARK    2  A    between atoms: C_9  and  N_12
REMARK    3  A    between atoms: C_18  and  N_24
REMARK    4  A    between atoms: N_24  and  C_25
REMARK    5  A    between atoms: C_25  and  S_26
REMARK                            x       y       z     vdW  Elec       q    Type
REMARK                         _______ _______ _______ _____ _____    ______ ____
ROOT
ATOM      1  N   UNL     1       6.967  -3.802  24.823  0.00  0.00    +0.000 NA
ATOM      2  C   UNL     1       8.184  -4.513  23.849  0.00  0.00    +0.000 C 
ATOM      3  C   UNL     1       7.693  -3.435  22.973  0.00  0.00    +0.000 C 
ATOM      4  C   UNL     1       8.090  -2.049  23.318  0.00  0.00    +0.000 C 
ATOM      5  N   UNL     1       8.435  -1.880  24.701  0.00  0.00    +0.000 N 
ATOM      6  C   UNL     1       8.943  -2.952  25.411  0.00  0.00    +0.000 C 
ATOM      7  C   UNL     1       8.899  -0.599  25.075  0.00  0.00    +0.000 C 
ATOM      8  C   UNL     1       9.727   0.084  24.223  0.00  0.00    +0.000 C 
ATOM      9  C   UNL     1       9.841  -0.358  22.741  0.00  0.00    +0.000 C 
ATOM     10  C   UNL     1       9.225  -1.624  22.438  0.00  0.00    +0.000 C 
ATOM     11  C   UNL     1       9.575   0.770  21.816  0.00  0.00    +0.000 C 
ATOM     12  C   UNL     1      11.196   0.622  24.584  0.00  0.00    +0.000 C 
ENDROOT
BRANCH   1  16
ATOM     13  C   UNL     1       5.724  -5.962  25.736  0.00  0.00    +0.000 C 
ATOM     14  C   UNL     1       6.236  -5.741  24.437  0.00  0.00    +0.000 C 
ATOM     15  C   UNL     1       6.917  -3.603  26.155  0.00  0.00    +0.000 C 
ATOM     16  C   UNL     1       7.233  -4.408  26.005  0.00  0.00    +0.000 C 
ATOM     17  O   UNL     1       5.942  -4.967  26.528  0.00  0.00    +0.000 OA
BRANCH  13  20
ATOM     18  C   UNL     1       2.749  -7.451  24.105  0.00  0.00    +0.000 C 
ATOM     19  N   UNL     1       3.902  -7.438  24.981  0.00  0.00    +0.000 NA
ATOM     20  C   UNL     1       4.256  -6.283  25.607  0.00  0.00    +0.000 C 
ATOM     21  O   UNL     1       3.357  -5.571  26.027  0.00  0.00    +0.000 OA
ENDBRANCH  13  20
ENDBRANCH   1  16
BRANCH   7  22
ATOM     22  N   UNL     1       7.941  -0.202  26.007  0.00  0.00    +0.000 NA
BRANCH  22  23
ATOM     23  C   UNL     1       7.203   0.986  25.733  0.00  0.00    +0.000 C 
BRANCH  23  24
ATOM     24  S   UNL     1       5.869   0.792  24.611  0.00  0.00    +0.000 S 
ATOM     25  O   UNL     1       6.307   1.051  23.269  0.00  0.00    +0.000 OA
ATOM     26  O   UNL     1       5.309  -0.532  24.821  0.00  0.00    +0.000 OA
ATOM     27  N   UNL     1       4.669   1.881  24.966  0.00  0.00    +0.000 NA
ENDBRANCH  23  24
ENDBRANCH  22  23
ENDBRANCH   7  22
TORSDOF 5
ENDMDL
MODEL 8
REMARK VINA RESULT:      -6.6      3.587      6.995
REMARK  Name = 
REMARK  5 active torsions:
REMARK  status: ('A' for Active; 'I' for Inactive)
REMARK    1  A    between atoms: C_3  and  C_5
REMARK    2  A    between atoms: C_9  and  N_12
REMARK    3  A    between atoms: C_18  and  N_24
REMARK    4  A    between atoms: N_24  and  C_25
REMARK    5  A    between atoms: C_25  and  S_26
REMARK                            x       y       z     vdW  Elec       q    Type
REMARK                         _______ _______ _______ _____ _____    ______ ____
ROOT
ATOM      1  N   UNL     1       7.714  -1.959  23.151  0.00  0.00    +0.000 NA
ATOM      2  C   UNL     1       8.544  -1.660  21.682  0.00  0.00    +0.000 C 
ATOM      3  C   UNL     1       7.404  -0.734  21.574  0.00  0.00    +0.000 C 
ATOM      4  C   UNL     1       7.442   0.486  22.415  0.00  0.00    +0.000 C 
ATOM      5  N   UNL     1       8.278   0.357  23.575  0.00  0.00    +0.000 N 
ATOM      6  C   UNL     1       9.359  -0.505  23.541  0.00  0.00    +0.000 C 
ATOM      7  C   UNL     1       8.419   1.514  24.373  0.00  0.00    +0.000 C 
ATOM      8  C   UNL     1       8.526   2.736  23.762  0.00  0.00    +0.000 C 
ATOM      9  C   UNL     1       8.121   2.890  22.273  0.00  0.00    +0.000 C 
ATOM     10  C   UNL     1       7.878   1.652  21.580  0.00  0.00    +0.000 C 
ATOM     11  C   UNL     1       7.132   3.980  22.090  0.00  0.00    +0.000 C 
ATOM     12  C   UNL     1       9.745   3.764  23.944  0.00  0.00    +0.000 C 
ENDROOT
BRANCH   1  16
ATOM     13  C   UNL     1       7.578  -4.584  23.520  0.00  0.00    +0.000 C 
ATOM     14  C   UNL     1       7.332  -3.863  22.330  0.00  0.00    +0.000 C 
ATOM     15  C   UNL     1       8.275  -2.141  24.363  0.00  0.00    +0.000 C 
ATOM     16  C   UNL     1       8.646  -2.701  23.797  0.00  0.00    +0.000 C 
ATOM     17  O   UNL     1       7.930  -3.818  24.497  0.00  0.00    +0.000 OA
BRANCH  13  20
ATOM     18  C   UNL     1       5.205  -6.341  25.758  0.00  0.00    +0.000 C 
ATOM     19  N   UNL     1       5.744  -5.202  25.044  0.00  0.00    +0.000 NA
ATOM     20  C   UNL     1       6.343  -5.390  23.837  0.00  0.00    +0.000 C 
ATOM     21  O   UNL     1       5.841  -6.206  23.079  0.00  0.00    +0.000 OA
ENDBRANCH  13  20
ENDBRANCH   1  16
BRANCH   7  22
ATOM     22  N   UNL     1       7.890   1.093  25.592  0.00  0.00    +0.000 NA
BRANCH  22  23
ATOM     23  C   UNL     1       6.772   1.809  26.113  0.00  0.00    +0.000 C 
BRANCH  23  24
ATOM     24  S   UNL     1       5.205   1.256  25.552  0.00  0.00    +0.000 S 
ATOM     25  O   UNL     1       5.270  -0.130  25.184  0.00  0.00    +0.000 OA
ATOM     26  O   UNL     1       4.236   1.562  26.590  0.00  0.00    +0.000 OA
ATOM     27  N   UNL     1       4.752   2.112  24.205  0.00  0.00    +0.000 NA
ENDBRANCH  23  24
ENDBRANCH  22  23
ENDBRANCH   7  22
TORSDOF 5
ENDMDL
MODEL 9
REMARK VINA RESULT:      -6.1      3.875      7.637
REMARK  Name = 
REMARK  5 active torsions:
REMARK  status: ('A' for Active; 'I' for Inactive)
REMARK    1  A    between atoms: C_3  and  C_5
REMARK    2  A    between atoms: C_9  and  N_12
REMARK    3  A    between atoms: C_18  and  N_24
REMARK    4  A    between atoms: N_24  and  C_25
REMARK    5  A    between atoms: C_25  and  S_26
REMARK                            x       y       z     vdW  Elec       q    Type
REMARK                         _______ _______ _______ _____ _____    ______ ____
ROOT
ATOM      1  N   UNL     1       8.628  -0.640  23.834  0.00  0.00    +0.000 NA
ATOM      2  C   UNL     1       9.685  -0.104  22.597  0.00  0.00    +0.000 C 
ATOM      3  C   UNL     1       8.417   0.530  22.200  0.00  0.00    +0.000 C 
ATOM      4  C   UNL     1       7.964   1.696  22.996  0.00  0.00    +0.000 C 
ATOM      5  N   UNL     1       8.510   1.729  24.323  0.00  0.00    +0.000 N 
ATOM      6  C   UNL     1       9.740   1.148  24.568  0.00  0.00    +0.000 C 
ATOM      7  C   UNL     1       8.179   2.859  25.104  0.00  0.00    +0.000 C 
ATOM      8  C   UNL     1       8.135   4.091  24.507  0.00  0.00    +0.000 C 
ATOM      9  C   UNL     1       8.067   4.195  22.961  0.00  0.00    +0.000 C 
ATOM     10  C   UNL     1       8.296   2.958  22.260  0.00  0.00    +0.000 C 
ATOM     11  C   UNL     1       6.920   5.026  22.522  0.00  0.00    +0.000 C 
ATOM     12  C   UNL     1       8.997   5.372  24.948  0.00  0.00    +0.000 C 
ENDROOT
BRANCH   1  16
ATOM     13  C   UNL     1       9.079  -3.233  24.180  0.00  0.00    +0.000 C 
ATOM     14  C   UNL     1       8.957  -2.529  22.960  0.00  0.00    +0.000 C 
ATOM     15  C   UNL     1       8.901  -0.745  25.150  0.00  0.00    +0.000 C 
ATOM     16  C   UNL     1       9.530  -1.161  24.701  0.00  0.00    +0.000 C 
ATOM     17  O   UNL     1       8.973  -2.459  25.207  0.00  0.00    +0.000 OA
BRANCH  13  20
ATOM     18  C   UNL     1       6.852  -5.743  22.608  0.00  0.00    +0.000 C 
ATOM     19  N   UNL     1       8.091  -5.255  23.179  0.00  0.00    +0.000 NA
ATOM     20  C   UNL     1       8.051  -4.337  24.182  0.00  0.00    +0.000 C 
ATOM     21  O   UNL     1       7.179  -4.463  25.028  0.00  0.00    +0.000 OA
ENDBRANCH  13  20
ENDBRANCH   1  16
BRANCH   7  22
ATOM     22  N   UNL     1       7.493   2.284  26.173  0.00  0.00    +0.000 NA
BRANCH  22  23
ATOM     23  C   UNL     1       6.410   3.019  26.738  0.00  0.00    +0.000 C 
BRANCH  23  24
ATOM     24  S   UNL     1       6.737   3.745  28.301  0.00  0.00    +0.000 S 
ATOM     25  O   UNL     1       7.449   2.822  29.139  0.00  0.00    +0.000 OA
ATOM     26  O   UNL     1       7.424   5.002  28.064  0.00  0.00    +0.000 OA
ATOM     27  N   UNL     1       5.310   4.115  29.062  0.00  0.00    +0.000 NA
ENDBRANCH  23  24
ENDBRANCH  22  23
ENDBRANCH   7  22
TORSDOF 5
ENDMDL
