MODEL 1
REMARK VINA RESULT:      -6.6      0.000      0.000
REMARK  Name = 
REMARK  8 active torsions:
REMARK  status: ('A' for Active; 'I' for Inactive)
REMARK    1  A    between atoms: C_2  and  C_3
REMARK    2  A    between atoms: C_4  and  C_5
REMARK    3  A    between atoms: C_5  and  C_6
REMARK    4  A    between atoms: C_7  and  C_8
REMARK    5  A    between atoms: C_8  and  N_9
REMARK    6  A    between atoms: C_15  and  N_16
REMARK    7  A    between atoms: N_16  and  C_17
REMARK    8  A    between atoms: C_17  and  S_18
REMARK                            x       y       z     vdW  Elec       q    Type
REMARK                         _______ _______ _______ _____ _____    ______ ____
ROOT
ATOM      1  N   UNL     1       9.765  -0.698  22.456  0.00  0.00    +0.000 NA
ATOM      2  C   UNL     1      10.356   0.486  22.978  0.00  0.00    +0.000 C 
ATOM      3  C   UNL     1      10.059   1.674  22.077  0.00  0.00    +0.000 C 
ATOM      4  C   UNL     1       9.822   0.764  24.381  0.00  0.00    +0.000 C 
ATOM      5  C   UNL     1       8.294   0.793  24.316  0.00  0.00    +0.000 C 
ATOM      6  C   UNL     1       7.863   0.772  22.856  0.00  0.00    +0.000 C 
ATOM      7  C   UNL     1       8.380  -0.475  22.180  0.00  0.00    +0.000 C 
ENDROOT
BRANCH   1   8
ATOM      8  C   UNL     1       9.875  -1.763  23.405  0.00  0.00    +0.000 C 
BRANCH   8  10
ATOM      9  C   UNL     1       7.887  -3.346  24.145  0.00  0.00    +0.000 C 
ATOM     10  C   UNL     1       8.678  -2.705  23.255  0.00  0.00    +0.000 C 
ATOM     11  F   UNL     1       6.535  -2.977  24.038  0.00  0.00    +0.000 F 
BRANCH   9  12
ATOM     12  C   UNL     1       7.875  -4.907  24.354  0.00  0.00    +0.000 C 
BRANCH  12  14
ATOM     13  C   UNL     1       6.648  -5.948  22.363  0.00  0.00    +0.000 C 
ATOM     14  C   UNL     1       6.584  -5.329  23.580  0.00  0.00    +0.000 C 
ATOM     15  F   UNL     1       5.813  -6.079  24.484  0.00  0.00    +0.000 F 
BRANCH  13  17
ATOM     16  O   UNL     1       5.782  -4.280  20.909  0.00  0.00    +0.000 OA
ATOM     17  C   UNL     1       6.224  -5.610  20.942  0.00  0.00    +0.000 C 
ENDBRANCH  13  17
ENDBRANCH  12  14
ENDBRANCH   9  12
ENDBRANCH   8  10
ENDBRANCH   1   8
BRANCH   7  18
ATOM     18  N   UNL     1       8.169  -0.384  20.748  0.00  0.00    +0.000 NA
BRANCH  18  19
ATOM     19  C   UNL     1       6.751  -0.554  20.541  0.00  0.00    +0.000 C 
BRANCH  19  20
ATOM     20  S   UNL     1       6.326  -0.093  18.873  0.00  0.00    +0.000 S 
ATOM     21  O   UNL     1       5.161   0.747  18.946  0.00  0.00    +0.000 OA
ATOM     22  O   UNL     1       7.490   0.500  18.277  0.00  0.00    +0.000 OA
ATOM     23  N   UNL     1       5.937  -1.453  18.030  0.00  0.00    +0.000 NA
ENDBRANCH  19  20
ENDBRANCH  18  19
ENDBRANCH   7  18
TORSDOF 8
ENDMDL
MODEL 2
REMARK VINA RESULT:      -6.5      1.623      2.069
REMARK  Name = 
REMARK  8 active torsions:
REMARK  status: ('A' for Active; 'I' for Inactive)
REMARK    1  A    between atoms: C_2  and  C_3
REMARK    2  A    between atoms: C_4  and  C_5
REMARK    3  A    between atoms: C_5  and  C_6
REMARK    4  A    between atoms: C_7  and  C_8
REMARK    5  A    between atoms: C_8  and  N_9
REMARK    6  A    between atoms: C_15  and  N_16
REMARK    7  A    between atoms: N_16  and  C_17
REMARK    8  A    between atoms: C_17  and  S_18
REMARK                            x       y       z     vdW  Elec       q    Type
REMARK                         _______ _______ _______ _____ _____    ______ ____
ROOT
ATOM      1  N   UNL     1       9.663  -0.068  22.303  0.00  0.00    +0.000 NA
ATOM      2  C   UNL     1      10.427   0.675  23.245  0.00  0.00    +0.000 C 
ATOM      3  C   UNL     1      10.333   2.165  22.955  0.00  0.00    +0.000 C 
ATOM      4  C   UNL     1       9.925   0.399  24.661  0.00  0.00    +0.000 C 
ATOM      5  C   UNL     1       8.421   0.679  24.701  0.00  0.00    +0.000 C 
ATOM      6  C   UNL     1       8.012   1.351  23.398  0.00  0.00    +0.000 C 
ATOM      7  C   UNL     1       8.334   0.454  22.226  0.00  0.00    +0.000 C 
ENDROOT
BRANCH   1   8
ATOM      8  C   UNL     1       9.592  -1.440  22.700  0.00  0.00    +0.000 C 
BRANCH   8  10
ATOM      9  C   UNL     1       7.405  -2.930  22.650  0.00  0.00    +0.000 C 
ATOM     10  C   UNL     1       8.311  -2.067  22.140  0.00  0.00    +0.000 C 
ATOM     11  F   UNL     1       6.109  -2.389  22.707  0.00  0.00    +0.000 F 
BRANCH   9  12
ATOM     12  C   UNL     1       7.213  -4.410  22.148  0.00  0.00    +0.000 C 
BRANCH  12  14
ATOM     13  C   UNL     1       7.863  -4.686  24.609  0.00  0.00    +0.000 C 
ATOM     14  C   UNL     1       7.306  -5.222  23.481  0.00  0.00    +0.000 C 
ATOM     15  F   UNL     1       6.010  -5.698  23.741  0.00  0.00    +0.000 F 
BRANCH  13  17
ATOM     16  O   UNL     1      10.237  -4.708  24.728  0.00  0.00    +0.000 OA
ATOM     17  C   UNL     1       9.080  -4.982  25.472  0.00  0.00    +0.000 C 
ENDBRANCH  13  17
ENDBRANCH  12  14
ENDBRANCH   9  12
ENDBRANCH   8  10
ENDBRANCH   1   8
BRANCH   7  18
ATOM     18  N   UNL     1       8.159   1.182  20.984  0.00  0.00    +0.000 NA
BRANCH  18  19
ATOM     19  C   UNL     1       6.745   1.145  20.695  0.00  0.00    +0.000 C 
BRANCH  19  20
ATOM     20  S   UNL     1       6.463   0.242  19.185  0.00  0.00    +0.000 S 
ATOM     21  O   UNL     1       5.511   0.994  18.410  0.00  0.00    +0.000 OA
ATOM     22  O   UNL     1       7.740   0.020  18.567  0.00  0.00    +0.000 OA
ATOM     23  N   UNL     1       5.796  -1.218  19.557  0.00  0.00    +0.000 NA
ENDBRANCH  19  20
ENDBRANCH  18  19
ENDBRANCH   7  18
TORSDOF 8
ENDMDL
MODEL 3
REMARK VINA RESULT:      -6.5      1.710      2.167
REMARK  Name = 
REMARK  8 active torsions:
REMARK  status: ('A' for Active; 'I' for Inactive)
REMARK    1  A    between atoms: C_2  and  C_3
REMARK    2  A    between atoms: C_4  and  C_5
REMARK    3  A    between atoms: C_5  and  C_6
REMARK    4  A    between atoms: C_7  and  C_8
REMARK    5  A    between atoms: C_8  and  N_9
REMARK    6  A    between atoms: C_15  and  N_16
REMARK    7  A    between atoms: N_16  and  C_17
REMARK    8  A    between atoms: C_17  and  S_18
REMARK                            x       y       z     vdW  Elec       q    Type
REMARK                         _______ _______ _______ _____ _____    ______ ____
ROOT
ATOM      1  N   UNL     1       7.720  -0.554  22.857  0.00  0.00    +0.000 NA
ATOM      2  C   UNL     1       9.085  -0.783  23.186  0.00  0.00    +0.000 C 
ATOM      3  C   UNL     1       9.854  -1.274  21.969  0.00  0.00    +0.000 C 
ATOM      4  C   UNL     1       9.721   0.503  23.706  0.00  0.00    +0.000 C 
ATOM      5  C   UNL     1       9.494   1.605  22.670  0.00  0.00    +0.000 C 
ATOM      6  C   UNL     1       8.932   0.979  21.402  0.00  0.00    +0.000 C 
ATOM      7  C   UNL     1       7.626   0.282  21.700  0.00  0.00    +0.000 C 
ENDROOT
BRANCH   1   8
ATOM      8  C   UNL     1       7.053   0.095  23.944  0.00  0.00    +0.000 C 
BRANCH   8  10
ATOM      9  C   UNL     1       6.094  -2.152  24.960  0.00  0.00    +0.000 C 
ATOM     10  C   UNL     1       6.030  -0.863  24.559  0.00  0.00    +0.000 C 
ATOM     11  F   UNL     1       5.807  -2.313  26.327  0.00  0.00    +0.000 F 
BRANCH   9  12
ATOM     12  C   UNL     1       5.352  -3.341  24.240  0.00  0.00    +0.000 C 
BRANCH  12  14
ATOM     13  C   UNL     1       6.718  -4.552  22.445  0.00  0.00    +0.000 C 
ATOM     14  C   UNL     1       6.548  -4.228  23.762  0.00  0.00    +0.000 C 
ATOM     15  F   UNL     1       7.709  -3.636  24.287  0.00  0.00    +0.000 F 
BRANCH  13  17
ATOM     16  O   UNL     1       5.977  -5.600  20.444  0.00  0.00    +0.000 OA
ATOM     17  C   UNL     1       6.698  -5.833  21.624  0.00  0.00    +0.000 C 
ENDBRANCH  13  17
ENDBRANCH  12  14
ENDBRANCH   9  12
ENDBRANCH   8  10
ENDBRANCH   1   8
BRANCH   7  18
ATOM     18  N   UNL     1       7.212  -0.503  20.554  0.00  0.00    +0.000 NA
BRANCH  18  19
ATOM     19  C   UNL     1       7.624   0.243  19.389  0.00  0.00    +0.000 C 
BRANCH  19  20
ATOM     20  S   UNL     1       6.263   0.376  18.247  0.00  0.00    +0.000 S 
ATOM     21  O   UNL     1       6.621   1.369  17.270  0.00  0.00    +0.000 OA
ATOM     22  O   UNL     1       5.994  -0.939  17.737  0.00  0.00    +0.000 OA
ATOM     23  N   UNL     1       4.934   0.905  19.065  0.00  0.00    +0.000 NA
ENDBRANCH  19  20
ENDBRANCH  18  19
ENDBRANCH   7  18
TORSDOF 8
ENDMDL
MODEL 4
REMARK VINA RESULT:      -6.4      2.766      5.241
REMARK  Name = 
REMARK  8 active torsions:
REMARK  status: ('A' for Active; 'I' for Inactive)
REMARK    1  A    between atoms: C_2  and  C_3
REMARK    2  A    between atoms: C_4  and  C_5
REMARK    3  A    between atoms: C_5  and  C_6
REMARK    4  A    between atoms: C_7  and  C_8
REMARK    5  A    between atoms: C_8  and  N_9
REMARK    6  A    between atoms: C_15  and  N_16
REMARK    7  A    between atoms: N_16  and  C_17
REMARK    8  A    between atoms: C_17  and  S_18
REMARK                            x       y       z     vdW  Elec       q    Type
REMARK                         _______ _______ _______ _____ _____    ______ ____
ROOT
ATOM      1  N   UNL     1       8.486  -1.415  24.122  0.00  0.00    +0.000 NA
ATOM      2  C   UNL     1       7.411  -1.057  24.981  0.00  0.00    +0.000 C 
ATOM      3  C   UNL     1       6.089  -1.561  24.422  0.00  0.00    +0.000 C 
ATOM      4  C   UNL     1       7.633  -1.643  26.373  0.00  0.00    +0.000 C 
ATOM      5  C   UNL     1       7.856  -3.150  26.230  0.00  0.00    +0.000 C 
ATOM      6  C   UNL     1       7.544  -3.559  24.797  0.00  0.00    +0.000 C 
ATOM      7  C   UNL     1       8.442  -2.816  23.837  0.00  0.00    +0.000 C 
ENDROOT
BRANCH   1   8
ATOM      8  C   UNL     1       9.737  -1.118  24.749  0.00  0.00    +0.000 C 
BRANCH   8  10
ATOM      9  C   UNL     1      10.025   1.167  23.444  0.00  0.00    +0.000 C 
ATOM     10  C   UNL     1      10.445  -0.005  23.972  0.00  0.00    +0.000 C 
ATOM     11  F   UNL     1      10.692   2.279  23.986  0.00  0.00    +0.000 F 
BRANCH   9  12
ATOM     12  C   UNL     1       9.927   1.456  21.899  0.00  0.00    +0.000 C 
BRANCH  12  14
ATOM     13  C   UNL     1       7.798   0.468  20.877  0.00  0.00    +0.000 C 
ATOM     14  C   UNL     1       8.381   1.424  21.660  0.00  0.00    +0.000 C 
ATOM     15  F   UNL     1       7.788   1.460  22.933  0.00  0.00    +0.000 F 
BRANCH  13  17
ATOM     16  O   UNL     1       7.830  -0.141  18.579  0.00  0.00    +0.000 OA
ATOM     17  C   UNL     1       7.028   0.452  19.565  0.00  0.00    +0.000 C 
ENDBRANCH  13  17
ENDBRANCH  12  14
ENDBRANCH   9  12
ENDBRANCH   8  10
ENDBRANCH   1   8
BRANCH   7  18
ATOM     18  N   UNL     1       7.994  -3.030  22.475  0.00  0.00    +0.000 NA
BRANCH  18  19
ATOM     19  C   UNL     1       7.428  -4.357  22.444  0.00  0.00    +0.000 C 
BRANCH  19  20
ATOM     20  S   UNL     1       5.870  -4.328  21.580  0.00  0.00    +0.000 S 
ATOM     21  O   UNL     1       5.955  -5.290  20.513  0.00  0.00    +0.000 OA
ATOM     22  O   UNL     1       4.833  -4.553  22.547  0.00  0.00    +0.000 OA
ATOM     23  N   UNL     1       5.659  -2.834  20.918  0.00  0.00    +0.000 NA
ENDBRANCH  19  20
ENDBRANCH  18  19
ENDBRANCH   7  18
TORSDOF 8
ENDMDL
MODEL 5
REMARK VINA RESULT:      -6.4      1.986      2.466
REMARK  Name = 
REMARK  8 active torsions:
REMARK  status: ('A' for Active; 'I' for Inactive)
REMARK    1  A    between atoms: C_2  and  C_3
REMARK    2  A    between atoms: C_4  and  C_5
REMARK    3  A    between atoms: C_5  and  C_6
REMARK    4  A    between atoms: C_7  and  C_8
REMARK    5  A    between atoms: C_8  and  N_9
REMARK    6  A    between atoms: C_15  and  N_16
REMARK    7  A    between atoms: N_16  and  C_17
REMARK    8  A    between atoms: C_17  and  S_18
REMARK                            x       y       z     vdW  Elec       q    Type
REMARK                         _______ _______ _______ _____ _____    ______ ____
ROOT
ATOM      1  N   UNL     1       8.329  -0.141  22.873  0.00  0.00    +0.000 NA
ATOM      2  C   UNL     1       9.245   0.877  23.259  0.00  0.00    +0.000 C 
ATOM      3  C   UNL     1      10.072   1.333  22.068  0.00  0.00    +0.000 C 
ATOM      4  C   UNL     1       8.489   2.068  23.841  0.00  0.00    +0.000 C 
ATOM      5  C   UNL     1       7.437   2.514  22.824  0.00  0.00    +0.000 C 
ATOM      6  C   UNL     1       7.675   1.774  21.515  0.00  0.00    +0.000 C 
ATOM      7  C   UNL     1       7.574   0.283  21.735  0.00  0.00    +0.000 C 
ENDROOT
BRANCH   1   8
ATOM      8  C   UNL     1       7.422  -0.420  23.944  0.00  0.00    +0.000 C 
BRANCH   8  10
ATOM      9  C   UNL     1       6.186  -2.733  23.587  0.00  0.00    +0.000 C 
ATOM     10  C   UNL     1       6.347  -1.397  23.460  0.00  0.00    +0.000 C 
ATOM     11  F   UNL     1       5.000  -3.077  24.257  0.00  0.00    +0.000 F 
BRANCH   9  12
ATOM     12  C   UNL     1       6.299  -3.755  22.394  0.00  0.00    +0.000 C 
BRANCH  12  14
ATOM     13  C   UNL     1       7.993  -4.602  24.116  0.00  0.00    +0.000 C 
ATOM     14  C   UNL     1       7.505  -4.645  22.841  0.00  0.00    +0.000 C 
ATOM     15  F   UNL     1       7.176  -5.961  22.474  0.00  0.00    +0.000 F 
BRANCH  13  17
ATOM     16  O   UNL     1       9.891  -3.175  24.002  0.00  0.00    +0.000 OA
ATOM     17  C   UNL     1       9.303  -4.190  24.771  0.00  0.00    +0.000 C 
ENDBRANCH  13  17
ENDBRANCH  12  14
ENDBRANCH   9  12
ENDBRANCH   8  10
ENDBRANCH   1   8
BRANCH   7  18
ATOM     18  N   UNL     1       8.024  -0.423  20.551  0.00  0.00    +0.000 NA
BRANCH  18  19
ATOM     19  C   UNL     1       7.567   0.355  19.424  0.00  0.00    +0.000 C 
BRANCH  19  20
ATOM     20  S   UNL     1       5.986  -0.253  18.874  0.00  0.00    +0.000 S 
ATOM     21  O   UNL     1       6.093  -0.502  17.461  0.00  0.00    +0.000 OA
ATOM     22  O   UNL     1       5.650  -1.388  19.687  0.00  0.00    +0.000 OA
ATOM     23  N   UNL     1       4.854   0.920  19.113  0.00  0.00    +0.000 NA
ENDBRANCH  19  20
ENDBRANCH  18  19
ENDBRANCH   7  18
TORSDOF 8
ENDMDL
MODEL 6
REMARK VINA RESULT:      -6.2      1.810      2.091
REMARK  Name = 
REMARK  8 active torsions:
REMARK  status: ('A' for Active; 'I' for Inactive)
REMARK    1  A    between atoms: C_2  and  C_3
REMARK    2  A    between atoms: C_4  and  C_5
REMARK    3  A    between atoms: C_5  and  C_6
REMARK    4  A    between atoms: C_7  and  C_8
REMARK    5  A    between atoms: C_8  and  N_9
REMARK    6  A    between atoms: C_15  and  N_16
REMARK    7  A    between atoms: N_16  and  C_17
REMARK    8  A    between atoms: C_17  and  S_18
REMARK                            x       y       z     vdW  Elec       q    Type
REMARK                         _______ _______ _______ _____ _____    ______ ____
ROOT
ATOM      1  N   UNL     1       8.450   0.441  22.993  0.00  0.00    +0.000 NA
ATOM      2  C   UNL     1       9.753   0.961  23.228  0.00  0.00    +0.000 C 
ATOM      3  C   UNL     1      10.182   1.868  22.085  0.00  0.00    +0.000 C 
ATOM      4  C   UNL     1       9.776   1.746  24.537  0.00  0.00    +0.000 C 
ATOM      5  C   UNL     1       8.671   2.803  24.484  0.00  0.00    +0.000 C 
ATOM      6  C   UNL     1       8.107   2.853  23.071  0.00  0.00    +0.000 C 
ATOM      7  C   UNL     1       7.544   1.505  22.688  0.00  0.00    +0.000 C 
ENDROOT
BRANCH   1   8
ATOM      8  C   UNL     1       7.975  -0.242  24.157  0.00  0.00    +0.000 C 
BRANCH   8  10
ATOM      9  C   UNL     1       9.149  -2.601  23.906  0.00  0.00    +0.000 C 
ATOM     10  C   UNL     1       8.917  -1.402  24.487  0.00  0.00    +0.000 C 
ATOM     11  F   UNL     1      10.479  -2.752  23.480  0.00  0.00    +0.000 F 
BRANCH   9  12
ATOM     12  C   UNL     1       8.761  -3.985  24.549  0.00  0.00    +0.000 C 
BRANCH  12  14
ATOM     13  C   UNL     1       7.180  -3.723  22.553  0.00  0.00    +0.000 C 
ATOM     14  C   UNL     1       7.658  -4.502  23.568  0.00  0.00    +0.000 C 
ATOM     15  F   UNL     1       8.119  -5.737  23.079  0.00  0.00    +0.000 F 
BRANCH  13  17
ATOM     16  O   UNL     1       4.862  -4.103  22.185  0.00  0.00    +0.000 OA
ATOM     17  C   UNL     1       5.840  -3.098  22.195  0.00  0.00    +0.000 C 
ENDBRANCH  13  17
ENDBRANCH  12  14
ENDBRANCH   9  12
ENDBRANCH   8  10
ENDBRANCH   1   8
BRANCH   7  18
ATOM     18  N   UNL     1       7.219   1.488  21.275  0.00  0.00    +0.000 NA
BRANCH  18  19
ATOM     19  C   UNL     1       7.060   0.099  20.918  0.00  0.00    +0.000 C 
BRANCH  19  20
ATOM     20  S   UNL     1       6.468  -0.028  19.242  0.00  0.00    +0.000 S 
ATOM     21  O   UNL     1       7.608   0.100  18.375  0.00  0.00    +0.000 OA
ATOM     22  O   UNL     1       5.732  -1.256  19.134  0.00  0.00    +0.000 OA
ATOM     23  N   UNL     1       5.444   1.228  18.946  0.00  0.00    +0.000 NA
ENDBRANCH  19  20
ENDBRANCH  18  19
ENDBRANCH   7  18
TORSDOF 8
ENDMDL
MODEL 7
REMARK VINA RESULT:      -6.2      3.091      5.334
REMARK  Name = 
REMARK  8 active torsions:
REMARK  status: ('A' for Active; 'I' for Inactive)
REMARK    1  A    between atoms: C_2  and  C_3
REMARK    2  A    between atoms: C_4  and  C_5
REMARK    3  A    between atoms: C_5  and  C_6
REMARK    4  A    between atoms: C_7  and  C_8
REMARK    5  A    between atoms: C_8  and  N_9
REMARK    6  A    between atoms: C_15  and  N_16
REMARK    7  A    between atoms: N_16  and  C_17
REMARK    8  A    between atoms: C_17  and  S_18
REMARK                            x       y       z     vdW  Elec       q    Type
REMARK                         _______ _______ _______ _____ _____    ______ ____
ROOT
ATOM      1  N   UNL     1       7.950  -0.977  24.265  0.00  0.00    +0.000 NA
ATOM      2  C   UNL     1       7.330  -0.813  25.534  0.00  0.00    +0.000 C 
ATOM      3  C   UNL     1       5.980  -1.513  25.564  0.00  0.00    +0.000 C 
ATOM      4  C   UNL     1       8.224  -1.383  26.632  0.00  0.00    +0.000 C 
ATOM      5  C   UNL     1       8.562  -2.831  26.273  0.00  0.00    +0.000 C 
ATOM      6  C   UNL     1       7.706  -3.257  25.089  0.00  0.00    +0.000 C 
ATOM      7  C   UNL     1       7.974  -2.361  23.904  0.00  0.00    +0.000 C 
ENDROOT
BRANCH   1   8
ATOM      8  C   UNL     1       9.296  -0.494  24.308  0.00  0.00    +0.000 C 
BRANCH   8  10
ATOM      9  C   UNL     1       9.207   0.467  21.844  0.00  0.00    +0.000 C 
ATOM     10  C   UNL     1       9.771  -0.181  22.887  0.00  0.00    +0.000 C 
ATOM     11  F   UNL     1       9.949   1.588  21.432  0.00  0.00    +0.000 F 
BRANCH   9  12
ATOM     12  C   UNL     1       8.744  -0.234  20.512  0.00  0.00    +0.000 C 
BRANCH  12  14
ATOM     13  C   UNL     1       6.411   0.048  19.495  0.00  0.00    +0.000 C 
ATOM     14  C   UNL     1       7.489   0.612  20.117  0.00  0.00    +0.000 C 
ATOM     15  F   UNL     1       7.096   1.295  21.281  0.00  0.00    +0.000 F 
BRANCH  13  17
ATOM     16  O   UNL     1       6.391   1.193  17.412  0.00  0.00    +0.000 OA
ATOM     17  C   UNL     1       5.734   0.190  18.141  0.00  0.00    +0.000 C 
ENDBRANCH  13  17
ENDBRANCH  12  14
ENDBRANCH   9  12
ENDBRANCH   8  10
ENDBRANCH   1   8
BRANCH   7  18
ATOM     18  N   UNL     1       7.001  -2.617  22.860  0.00  0.00    +0.000 NA
BRANCH  18  19
ATOM     19  C   UNL     1       7.354  -3.895  22.289  0.00  0.00    +0.000 C 
BRANCH  19  20
ATOM     20  S   UNL     1       5.882  -4.861  22.019  0.00  0.00    +0.000 S 
ATOM     21  O   UNL     1       4.756  -4.006  22.281  0.00  0.00    +0.000 OA
ATOM     22  O   UNL     1       5.960  -5.409  20.694  0.00  0.00    +0.000 OA
ATOM     23  N   UNL     1       5.857  -6.103  23.102  0.00  0.00    +0.000 NA
ENDBRANCH  19  20
ENDBRANCH  18  19
ENDBRANCH   7  18
TORSDOF 8
ENDMDL
MODEL 8
REMARK VINA RESULT:      -6.1      4.384      7.068
REMARK  Name = 
REMARK  8 active torsions:
REMARK  status: ('A' for Active; 'I' for Inactive)
REMARK    1  A    between atoms: C_2  and  C_3
REMARK    2  A    between atoms: C_4  and  C_5
REMARK    3  A    between atoms: C_5  and  C_6
REMARK    4  A    between atoms: C_7  and  C_8
REMARK    5  A    between atoms: C_8  and  N_9
REMARK    6  A    between atoms: C_15  and  N_16
REMARK    7  A    between atoms: N_16  and  C_17
REMARK    8  A    between atoms: C_17  and  S_18
REMARK                            x       y       z     vdW  Elec       q    Type
REMARK                         _______ _______ _______ _____ _____    ______ ____
ROOT
ATOM      1  N   UNL     1       7.615  -3.794  23.897  0.00  0.00    +0.000 NA
ATOM      2  C   UNL     1       7.320  -4.112  22.543  0.00  0.00    +0.000 C 
ATOM      3  C   UNL     1       7.117  -5.609  22.375  0.00  0.00    +0.000 C 
ATOM      4  C   UNL     1       6.062  -3.373  22.093  0.00  0.00    +0.000 C 
ATOM      5  C   UNL     1       4.938  -3.694  23.079  0.00  0.00    +0.000 C 
ATOM      6  C   UNL     1       5.402  -4.808  24.007  0.00  0.00    +0.000 C 
ATOM      7  C   UNL     1       6.635  -4.375  24.763  0.00  0.00    +0.000 C 
ENDROOT
BRANCH   1   8
ATOM      8  C   UNL     1       7.605  -2.376  24.085  0.00  0.00    +0.000 C 
BRANCH   8  10
ATOM      9  C   UNL     1       9.326  -0.597  23.150  0.00  0.00    +0.000 C 
ATOM     10  C   UNL     1       8.953  -1.795  23.652  0.00  0.00    +0.000 C 
ATOM     11  F   UNL     1      10.255   0.072  23.966  0.00  0.00    +0.000 F 
BRANCH   9  12
ATOM     12  C   UNL     1       9.836  -0.375  21.676  0.00  0.00    +0.000 C 
BRANCH  12  14
ATOM     13  C   UNL     1       7.497  -0.038  20.690  0.00  0.00    +0.000 C 
ATOM     14  C   UNL     1       8.695   0.503  21.066  0.00  0.00    +0.000 C 
ATOM     15  F   UNL     1       8.504   1.572  21.958  0.00  0.00    +0.000 F 
BRANCH  13  17
ATOM     16  O   UNL     1       7.540   0.263  18.332  0.00  0.00    +0.000 OA
ATOM     17  C   UNL     1       6.742  -0.215  19.382  0.00  0.00    +0.000 C 
ENDBRANCH  13  17
ENDBRANCH  12  14
ENDBRANCH   9  12
ENDBRANCH   8  10
ENDBRANCH   1   8
BRANCH   7  18
ATOM     18  N   UNL     1       7.206  -5.507  25.467  0.00  0.00    +0.000 NA
BRANCH  18  19
ATOM     19  C   UNL     1       7.385  -5.078  26.834  0.00  0.00    +0.000 C 
BRANCH  19  20
ATOM     20  S   UNL     1       6.061  -5.713  27.842  0.00  0.00    +0.000 S 
ATOM     21  O   UNL     1       5.546  -6.883  27.184  0.00  0.00    +0.000 OA
ATOM     22  O   UNL     1       6.582  -5.915  29.165  0.00  0.00    +0.000 OA
ATOM     23  N   UNL     1       4.862  -4.585  27.915  0.00  0.00    +0.000 NA
ENDBRANCH  19  20
ENDBRANCH  18  19
ENDBRANCH   7  18
TORSDOF 8
ENDMDL
MODEL 9
REMARK VINA RESULT:      -6.1      3.367      5.690
REMARK  Name = 
REMARK  8 active torsions:
REMARK  status: ('A' for Active; 'I' for Inactive)
REMARK    1  A    between atoms: C_2  and  C_3
REMARK    2  A    between atoms: C_4  and  C_5
REMARK    3  A    between atoms: C_5  and  C_6
REMARK    4  A    between atoms: C_7  and  C_8
REMARK    5  A    between atoms: C_8  and  N_9
REMARK    6  A    between atoms: C_15  and  N_16
REMARK    7  A    between atoms: N_16  and  C_17
REMARK    8  A    between atoms: C_17  and  S_18
REMARK                            x       y       z     vdW  Elec       q    Type
REMARK                         _______ _______ _______ _____ _____    ______ ____
ROOT
ATOM      1  N   UNL     1       7.708  -0.032  23.325  0.00  0.00    +0.000 NA
ATOM      2  C   UNL     1       8.114   0.712  24.467  0.00  0.00    +0.000 C 
ATOM      3  C   UNL     1       8.062  -0.154  25.716  0.00  0.00    +0.000 C 
ATOM      4  C   UNL     1       9.533   1.241  24.272  0.00  0.00    +0.000 C 
ATOM      5  C   UNL     1      10.442   0.060  23.927  0.00  0.00    +0.000 C 
ATOM      6  C   UNL     1       9.667  -1.234  24.134  0.00  0.00    +0.000 C 
ATOM      7  C   UNL     1       8.445  -1.255  23.247  0.00  0.00    +0.000 C 
ENDROOT
BRANCH   1   8
ATOM      8  C   UNL     1       7.951   0.723  22.134  0.00  0.00    +0.000 C 
BRANCH   8  10
ATOM      9  C   UNL     1       7.305   0.044  19.659  0.00  0.00    +0.000 C 
ATOM     10  C   UNL     1       7.761  -0.179  20.911  0.00  0.00    +0.000 C 
ATOM     11  F   UNL     1       8.261  -0.245  18.670  0.00  0.00    +0.000 F 
BRANCH   9  12
ATOM     12  C   UNL     1       5.947  -0.523  19.098  0.00  0.00    +0.000 C 
BRANCH  12  14
ATOM     13  C   UNL     1       4.708   1.703  19.359  0.00  0.00    +0.000 C 
ATOM     14  C   UNL     1       5.264   0.766  18.534  0.00  0.00    +0.000 C 
ATOM     15  F   UNL     1       6.199   1.356  17.665  0.00  0.00    +0.000 F 
BRANCH  13  17
ATOM     16  O   UNL     1       3.322   2.990  20.799  0.00  0.00    +0.000 OA
ATOM     17  C   UNL     1       3.308   2.240  19.614  0.00  0.00    +0.000 C 
ENDBRANCH  13  17
ENDBRANCH  12  14
ENDBRANCH   9  12
ENDBRANCH   8  10
ENDBRANCH   1   8
BRANCH   7  18
ATOM     18  N   UNL     1       7.592  -2.371  23.608  0.00  0.00    +0.000 NA
BRANCH  18  19
ATOM     19  C   UNL     1       8.011  -3.477  22.782  0.00  0.00    +0.000 C 
BRANCH  19  20
ATOM     20  S   UNL     1       6.590  -4.433  22.291  0.00  0.00    +0.000 S 
ATOM     21  O   UNL     1       7.073  -5.562  21.540  0.00  0.00    +0.000 OA
ATOM     22  O   UNL     1       5.842  -4.742  23.477  0.00  0.00    +0.000 OA
ATOM     23  N   UNL     1       5.649  -3.513  21.300  0.00  0.00    +0.000 NA
ENDBRANCH  19  20
ENDBRANCH  18  19
ENDBRANCH   7  18
TORSDOF 8
ENDMDL
