MODEL 1
REMARK VINA RESULT:      -6.7      0.000      0.000
REMARK  Name = 
REMARK  6 active torsions:
REMARK  status: ('A' for Active; 'I' for Inactive)
REMARK    1  A    between atoms: C_2  and  N_3
REMARK    2  A    between atoms: C_9  and  C_10
REMARK    3  A    between atoms: N_12  and  C_13
REMARK    4  A    between atoms: C_13  and  C_14
REMARK    5  A    between atoms: C_13  and  C_23
REMARK    6  A    between atoms: N_20  and  C_21
REMARK                            x       y       z     vdW  Elec       q    Type
REMARK                         _______ _______ _______ _____ _____    ______ ____
ROOT
ATOM      1  C   UNL     1       7.678  -0.170  21.963  0.00  0.00    +0.000 C 
ATOM      2  C   UNL     1       6.587  -0.117  23.070  0.00  0.00    +0.000 C 
ENDROOT
BRANCH   1   3
ATOM      3  C   UNL     1       9.016  -0.050  22.585  0.00  0.00    +0.000 C 
ATOM      4  C   UNL     1       9.990  -1.071  22.026  0.00  0.00    +0.000 C 
ATOM      5  C   UNL     1      10.445  -1.997  23.116  0.00  0.00    +0.000 C 
ATOM      6  C   UNL     1       9.760  -1.983  24.367  0.00  0.00    +0.000 C 
ATOM      7  N   UNL     1       9.334  -0.861  24.796  0.00  0.00    +0.000 NA
ATOM      8  C   UNL     1       9.101   0.084  24.023  0.00  0.00    +0.000 C 
ATOM      9  N   UNL     1       9.461   1.279  24.580  0.00  0.00    +0.000 NA
BRANCH   9  10
ATOM     10  C   UNL     1      10.430   2.141  23.965  0.00  0.00    +0.000 C 
ATOM     11  C   UNL     1       9.843   3.503  23.656  0.00  0.00    +0.000 C 
ENDBRANCH   9  10
ENDBRANCH   1   3
BRANCH   1  14
ATOM     12  C   UNL     1       6.484  -2.254  21.496  0.00  0.00    +0.000 C 
ATOM     13  O   UNL     1       5.543  -2.319  20.710  0.00  0.00    +0.000 OA
ATOM     14  N   UNL     1       7.492  -1.406  21.240  0.00  0.00    +0.000 NA
BRANCH  12  21
ATOM     15  N   UNL     1       4.466  -3.523  24.239  0.00  0.00    +0.000 NA
ATOM     16  C   UNL     1       5.027  -3.663  22.926  0.00  0.00    +0.000 C 
ATOM     17  N   UNL     1       4.791  -4.668  22.426  0.00  0.00    +0.000 NA
ATOM     18  C   UNL     1       5.711  -5.879  22.136  0.00  0.00    +0.000 C 
ATOM     19  C   UNL     1       7.033  -4.981  21.979  0.00  0.00    +0.000 C 
ATOM     20  C   UNL     1       7.311  -3.972  23.038  0.00  0.00    +0.000 C 
ATOM     21  C   UNL     1       6.303  -2.728  22.913  0.00  0.00    +0.000 C 
BRANCH  15  23
ATOM     22  C   UNL     1       5.544  -3.869  26.397  0.00  0.00    +0.000 C 
ATOM     23  C   UNL     1       4.948  -4.552  25.174  0.00  0.00    +0.000 C 
ENDBRANCH  15  23
ENDBRANCH  12  21
ENDBRANCH   1  14
BRANCH   1  24
ATOM     24  C   UNL     1       7.380   1.004  21.058  0.00  0.00    +0.000 C 
ATOM     25  O   UNL     1       6.432   1.738  21.242  0.00  0.00    +0.000 OA
ATOM     26  O   UNL     1       7.661   0.576  19.804  0.00  0.00    +0.000 OA
ENDBRANCH   1  24
TORSDOF 6
ENDMDL
MODEL 2
REMARK VINA RESULT:      -6.5      2.776      6.452
REMARK  Name = 
REMARK  6 active torsions:
REMARK  status: ('A' for Active; 'I' for Inactive)
REMARK    1  A    between atoms: C_2  and  N_3
REMARK    2  A    between atoms: C_9  and  C_10
REMARK    3  A    between atoms: N_12  and  C_13
REMARK    4  A    between atoms: C_13  and  C_14
REMARK    5  A    between atoms: C_13  and  C_23
REMARK    6  A    between atoms: N_20  and  C_21
REMARK                            x       y       z     vdW  Elec       q    Type
REMARK                         _______ _______ _______ _____ _____    ______ ____
ROOT
ATOM      1  C   UNL     1       8.204  -4.008  24.661  0.00  0.00    +0.000 C 
ATOM      2  C   UNL     1       7.682  -2.873  25.587  0.00  0.00    +0.000 C 
ENDROOT
BRANCH   1   3
ATOM      3  C   UNL     1       7.060  -4.804  24.165  0.00  0.00    +0.000 C 
ATOM      4  C   UNL     1       7.273  -5.265  22.735  0.00  0.00    +0.000 C 
ATOM      5  C   UNL     1       6.219  -4.673  21.844  0.00  0.00    +0.000 C 
ATOM      6  C   UNL     1       5.392  -3.629  22.349  0.00  0.00    +0.000 C 
ATOM      7  N   UNL     1       5.048  -3.685  23.576  0.00  0.00    +0.000 NA
ATOM      8  C   UNL     1       5.720  -4.317  24.409  0.00  0.00    +0.000 C 
ATOM      9  N   UNL     1       4.917  -4.946  25.318  0.00  0.00    +0.000 NA
BRANCH   9  10
ATOM     10  C   UNL     1       4.943  -6.370  25.496  0.00  0.00    +0.000 C 
ATOM     11  C   UNL     1       4.107  -7.075  24.446  0.00  0.00    +0.000 C 
ENDBRANCH   9  10
ENDBRANCH   1   3
BRANCH   1  14
ATOM     12  C   UNL     1       9.224  -2.064  23.580  0.00  0.00    +0.000 C 
ATOM     13  O   UNL     1      10.356  -1.672  23.847  0.00  0.00    +0.000 OA
ATOM     14  N   UNL     1       8.965  -3.380  23.606  0.00  0.00    +0.000 NA
BRANCH  12  21
ATOM     15  N   UNL     1       7.733   1.105  24.547  0.00  0.00    +0.000 NA
ATOM     16  C   UNL     1       8.668   0.346  23.768  0.00  0.00    +0.000 C 
ATOM     17  N   UNL     1       9.277   0.978  23.029  0.00  0.00    +0.000 NA
ATOM     18  C   UNL     1       9.198   1.061  21.485  0.00  0.00    +0.000 C 
ATOM     19  C   UNL     1       8.703  -0.458  21.317  0.00  0.00    +0.000 C 
ATOM     20  C   UNL     1       7.575  -0.915  22.174  0.00  0.00    +0.000 C 
ATOM     21  C   UNL     1       8.062  -1.113  23.692  0.00  0.00    +0.000 C 
BRANCH  15  23
ATOM     22  C   UNL     1       5.386   1.748  24.408  0.00  0.00    +0.000 C 
ATOM     23  C   UNL     1       6.741   1.807  23.717  0.00  0.00    +0.000 C 
ENDBRANCH  15  23
ENDBRANCH  12  21
ENDBRANCH   1  14
BRANCH   1  24
ATOM     24  C   UNL     1       9.123  -4.836  25.531  0.00  0.00    +0.000 C 
ATOM     25  O   UNL     1      10.234  -5.161  25.172  0.00  0.00    +0.000 OA
ATOM     26  O   UNL     1       8.325  -5.743  26.142  0.00  0.00    +0.000 OA
ENDBRANCH   1  24
TORSDOF 6
ENDMDL
MODEL 3
REMARK VINA RESULT:      -6.4      2.846      6.429
REMARK  Name = 
REMARK  6 active torsions:
REMARK  status: ('A' for Active; 'I' for Inactive)
REMARK    1  A    between atoms: C_2  and  N_3
REMARK    2  A    between atoms: C_9  and  C_10
REMARK    3  A    between atoms: N_12  and  C_13
REMARK    4  A    between atoms: C_13  and  C_14
REMARK    5  A    between atoms: C_13  and  C_23
REMARK    6  A    between atoms: N_20  and  C_21
REMARK                            x       y       z     vdW  Elec       q    Type
REMARK                         _______ _______ _______ _____ _____    ______ ____
ROOT
ATOM      1  C   UNL     1       8.280  -3.496  25.019  0.00  0.00    +0.000 C 
ATOM      2  C   UNL     1       8.572  -2.242  25.891  0.00  0.00    +0.000 C 
ENDROOT
BRANCH   1   3
ATOM      3  C   UNL     1       6.831  -3.793  25.055  0.00  0.00    +0.000 C 
ATOM      4  C   UNL     1       6.127  -3.032  26.163  0.00  0.00    +0.000 C 
ATOM      5  C   UNL     1       5.537  -3.995  27.152  0.00  0.00    +0.000 C 
ATOM      6  C   UNL     1       5.911  -5.369  27.088  0.00  0.00    +0.000 C 
ATOM      7  N   UNL     1       6.105  -5.877  25.934  0.00  0.00    +0.000 NA
ATOM      8  C   UNL     1       6.404  -5.172  24.956  0.00  0.00    +0.000 C 
ATOM      9  N   UNL     1       5.800  -5.622  23.817  0.00  0.00    +0.000 NA
BRANCH   9  10
ATOM     10  C   UNL     1       4.910  -4.796  23.052  0.00  0.00    +0.000 C 
ATOM     11  C   UNL     1       3.465  -5.015  23.455  0.00  0.00    +0.000 C 
ENDBRANCH   9  10
ENDBRANCH   1   3
BRANCH   1  14
ATOM     12  C   UNL     1       9.211  -2.002  23.319  0.00  0.00    +0.000 C 
ATOM     13  O   UNL     1      10.418  -1.816  23.185  0.00  0.00    +0.000 OA
ATOM     14  N   UNL     1       8.774  -3.215  23.691  0.00  0.00    +0.000 NA
BRANCH  12  21
ATOM     15  N   UNL     1       8.496   1.560  23.360  0.00  0.00    +0.000 NA
ATOM     16  C   UNL     1       8.867   0.364  22.660  0.00  0.00    +0.000 C 
ATOM     17  N   UNL     1       8.998   0.510  21.529  0.00  0.00    +0.000 NA
ATOM     18  C   UNL     1       8.114   0.034  20.352  0.00  0.00    +0.000 C 
ATOM     19  C   UNL     1       7.587  -1.270  21.128  0.00  0.00    +0.000 C 
ATOM     20  C   UNL     1       7.081  -1.090  22.516  0.00  0.00    +0.000 C 
ATOM     21  C   UNL     1       8.297  -0.826  23.532  0.00  0.00    +0.000 C 
BRANCH  15  23
ATOM     22  C   UNL     1       7.455   3.558  22.430  0.00  0.00    +0.000 C 
ATOM     23  C   UNL     1       7.223   2.124  22.885  0.00  0.00    +0.000 C 
ENDBRANCH  15  23
ENDBRANCH  12  21
ENDBRANCH   1  14
BRANCH   1  24
ATOM     24  C   UNL     1       9.092  -4.608  25.643  0.00  0.00    +0.000 C 
ATOM     25  O   UNL     1       9.339  -4.641  26.830  0.00  0.00    +0.000 OA
ATOM     26  O   UNL     1      10.067  -4.892  24.748  0.00  0.00    +0.000 OA
ENDBRANCH   1  24
TORSDOF 6
ENDMDL
MODEL 4
REMARK VINA RESULT:      -6.4      2.598      3.993
REMARK  Name = 
REMARK  6 active torsions:
REMARK  status: ('A' for Active; 'I' for Inactive)
REMARK    1  A    between atoms: C_2  and  N_3
REMARK    2  A    between atoms: C_9  and  C_10
REMARK    3  A    between atoms: N_12  and  C_13
REMARK    4  A    between atoms: C_13  and  C_14
REMARK    5  A    between atoms: C_13  and  C_23
REMARK    6  A    between atoms: N_20  and  C_21
REMARK                            x       y       z     vdW  Elec       q    Type
REMARK                         _______ _______ _______ _____ _____    ______ ____
ROOT
ATOM      1  C   UNL     1       9.182  -0.125  23.055  0.00  0.00    +0.000 C 
ATOM      2  C   UNL     1       9.540  -0.851  21.727  0.00  0.00    +0.000 C 
ENDROOT
BRANCH   1   3
ATOM      3  C   UNL     1       7.740   0.207  23.060  0.00  0.00    +0.000 C 
ATOM      4  C   UNL     1       7.109  -0.005  21.697  0.00  0.00    +0.000 C 
ATOM      5  C   UNL     1       6.591   1.300  21.163  0.00  0.00    +0.000 C 
ATOM      6  C   UNL     1       6.967   2.512  21.813  0.00  0.00    +0.000 C 
ATOM      7  N   UNL     1       7.084   2.491  23.082  0.00  0.00    +0.000 NA
ATOM      8  C   UNL     1       7.314   1.435  23.696  0.00  0.00    +0.000 C 
ATOM      9  N   UNL     1       6.637   1.394  24.881  0.00  0.00    +0.000 NA
BRANCH   9  10
ATOM     10  C   UNL     1       5.694   0.355  25.181  0.00  0.00    +0.000 C 
ATOM     11  C   UNL     1       5.604   0.099  26.672  0.00  0.00    +0.000 C 
ENDBRANCH   9  10
ENDBRANCH   1   3
BRANCH   1  14
ATOM     12  C   UNL     1       9.388  -2.327  24.101  0.00  0.00    +0.000 C 
ATOM     13  O   UNL     1      10.356  -3.061  23.922  0.00  0.00    +0.000 OA
ATOM     14  N   UNL     1       9.572  -0.999  24.137  0.00  0.00    +0.000 NA
BRANCH  12  21
ATOM     15  N   UNL     1       7.074  -4.849  22.878  0.00  0.00    +0.000 NA
ATOM     16  C   UNL     1       8.092  -4.420  23.794  0.00  0.00    +0.000 C 
ATOM     17  N   UNL     1       8.348  -5.196  24.600  0.00  0.00    +0.000 NA
ATOM     18  C   UNL     1       8.034  -5.202  26.115  0.00  0.00    +0.000 C 
ATOM     19  C   UNL     1       8.055  -3.601  26.240  0.00  0.00    +0.000 C 
ATOM     20  C   UNL     1       7.273  -2.821  25.241  0.00  0.00    +0.000 C 
ATOM     21  C   UNL     1       8.003  -2.841  23.811  0.00  0.00    +0.000 C 
BRANCH  15  23
ATOM     22  C   UNL     1       4.703  -4.291  22.946  0.00  0.00    +0.000 C 
ATOM     23  C   UNL     1       5.801  -5.155  23.549  0.00  0.00    +0.000 C 
ENDBRANCH  15  23
ENDBRANCH  12  21
ENDBRANCH   1  14
BRANCH   1  24
ATOM     24  C   UNL     1      10.039   1.120  23.068  0.00  0.00    +0.000 C 
ATOM     25  O   UNL     1      10.360   1.696  22.050  0.00  0.00    +0.000 OA
ATOM     26  O   UNL     1      10.960   0.917  24.040  0.00  0.00    +0.000 OA
ENDBRANCH   1  24
TORSDOF 6
ENDMDL
MODEL 5
REMARK VINA RESULT:      -6.4      2.816      6.714
REMARK  Name = 
REMARK  6 active torsions:
REMARK  status: ('A' for Active; 'I' for Inactive)
REMARK    1  A    between atoms: C_2  and  N_3
REMARK    2  A    between atoms: C_9  and  C_10
REMARK    3  A    between atoms: N_12  and  C_13
REMARK    4  A    between atoms: C_13  and  C_14
REMARK    5  A    between atoms: C_13  and  C_23
REMARK    6  A    between atoms: N_20  and  C_21
REMARK                            x       y       z     vdW  Elec       q    Type
REMARK                         _______ _______ _______ _____ _____    ______ ____
ROOT
ATOM      1  C   UNL     1       7.951  -4.317  24.724  0.00  0.00    +0.000 C 
ATOM      2  C   UNL     1       7.617  -3.115  25.653  0.00  0.00    +0.000 C 
ENDROOT
BRANCH   1   3
ATOM      3  C   UNL     1       6.703  -5.032  24.377  0.00  0.00    +0.000 C 
ATOM      4  C   UNL     1       6.717  -5.526  22.943  0.00  0.00    +0.000 C 
ATOM      5  C   UNL     1       5.614  -4.869  22.163  0.00  0.00    +0.000 C 
ATOM      6  C   UNL     1       4.928  -3.759  22.736  0.00  0.00    +0.000 C 
ATOM      7  N   UNL     1       4.723  -3.774  23.995  0.00  0.00    +0.000 NA
ATOM      8  C   UNL     1       5.438  -4.443  24.760  0.00  0.00    +0.000 C 
ATOM      9  N   UNL     1       4.700  -4.998  25.767  0.00  0.00    +0.000 NA
BRANCH   9  10
ATOM     10  C   UNL     1       4.643  -6.418  25.971  0.00  0.00    +0.000 C 
ATOM     11  C   UNL     1       4.875  -6.779  27.425  0.00  0.00    +0.000 C 
ENDBRANCH   9  10
ENDBRANCH   1   3
BRANCH   1  14
ATOM     12  C   UNL     1       9.309  -2.621  23.598  0.00  0.00    +0.000 C 
ATOM     13  O   UNL     1      10.537  -2.633  23.615  0.00  0.00    +0.000 OA
ATOM     14  N   UNL     1       8.645  -3.786  23.573  0.00  0.00    +0.000 NA
BRANCH  12  21
ATOM     15  N   UNL     1       9.189   0.769  24.902  0.00  0.00    +0.000 NA
ATOM     16  C   UNL     1       9.548  -0.167  23.876  0.00  0.00    +0.000 C 
ATOM     17  N   UNL     1      10.017   0.318  22.948  0.00  0.00    +0.000 NA
ATOM     18  C   UNL     1       9.439   0.516  21.526  0.00  0.00    +0.000 C 
ATOM     19  C   UNL     1       8.514  -0.794  21.597  0.00  0.00    +0.000 C 
ATOM     20  C   UNL     1       7.669  -0.977  22.810  0.00  0.00    +0.000 C 
ATOM     21  C   UNL     1       8.571  -1.397  24.070  0.00  0.00    +0.000 C 
BRANCH  15  23
ATOM     22  C   UNL     1       8.778   3.160  24.669  0.00  0.00    +0.000 C 
ATOM     23  C   UNL     1       8.210   1.766  24.441  0.00  0.00    +0.000 C 
ENDBRANCH  15  23
ENDBRANCH  12  21
ENDBRANCH   1  14
BRANCH   1  24
ATOM     24  C   UNL     1       8.887  -5.190  25.528  0.00  0.00    +0.000 C 
ATOM     25  O   UNL     1       9.795  -5.808  25.015  0.00  0.00    +0.000 OA
ATOM     26  O   UNL     1       8.112  -5.791  26.461  0.00  0.00    +0.000 OA
ENDBRANCH   1  24
TORSDOF 6
ENDMDL
MODEL 6
REMARK VINA RESULT:      -6.3      2.874      6.594
REMARK  Name = 
REMARK  6 active torsions:
REMARK  status: ('A' for Active; 'I' for Inactive)
REMARK    1  A    between atoms: C_2  and  N_3
REMARK    2  A    between atoms: C_9  and  C_10
REMARK    3  A    between atoms: N_12  and  C_13
REMARK    4  A    between atoms: C_13  and  C_14
REMARK    5  A    between atoms: C_13  and  C_23
REMARK    6  A    between atoms: N_20  and  C_21
REMARK                            x       y       z     vdW  Elec       q    Type
REMARK                         _______ _______ _______ _____ _____    ______ ____
ROOT
ATOM      1  C   UNL     1       7.323  -3.220  25.718  0.00  0.00    +0.000 C 
ATOM      2  C   UNL     1       6.523  -2.153  26.518  0.00  0.00    +0.000 C 
ENDROOT
BRANCH   1   3
ATOM      3  C   UNL     1       6.500  -3.707  24.589  0.00  0.00    +0.000 C 
ATOM      4  C   UNL     1       5.129  -3.056  24.569  0.00  0.00    +0.000 C 
ATOM      5  C   UNL     1       4.064  -4.097  24.753  0.00  0.00    +0.000 C 
ATOM      6  C   UNL     1       4.441  -5.409  25.164  0.00  0.00    +0.000 C 
ATOM      7  N   UNL     1       5.539  -5.877  24.716  0.00  0.00    +0.000 NA
ATOM      8  C   UNL     1       6.454  -5.130  24.328  0.00  0.00    +0.000 C 
ATOM      9  N   UNL     1       7.085  -5.646  23.233  0.00  0.00    +0.000 NA
BRANCH   9  10
ATOM     10  C   UNL     1       7.142  -4.938  21.986  0.00  0.00    +0.000 C 
ATOM     11  C   UNL     1       6.193  -5.534  20.965  0.00  0.00    +0.000 C 
ENDBRANCH   9  10
ENDBRANCH   1   3
BRANCH   1  14
ATOM     12  C   UNL     1       8.685  -1.278  25.119  0.00  0.00    +0.000 C 
ATOM     13  O   UNL     1       9.302  -0.616  25.949  0.00  0.00    +0.000 OA
ATOM     14  N   UNL     1       8.559  -2.601  25.300  0.00  0.00    +0.000 NA
BRANCH  12  21
ATOM     15  N   UNL     1       7.092   1.678  23.729  0.00  0.00    +0.000 NA
ATOM     16  C   UNL     1       8.256   0.867  23.950  0.00  0.00    +0.000 C 
ATOM     17  N   UNL     1       9.203   1.268  23.442  0.00  0.00    +0.000 NA
ATOM     18  C   UNL     1       9.980   0.733  22.215  0.00  0.00    +0.000 C 
ATOM     19  C   UNL     1       9.569  -0.797  22.481  0.00  0.00    +0.000 C 
ATOM     20  C   UNL     1       8.132  -1.092  22.737  0.00  0.00    +0.000 C 
ATOM     21  C   UNL     1       7.705  -0.594  24.203  0.00  0.00    +0.000 C 
BRANCH  15  23
ATOM     22  C   UNL     1       6.583   3.279  21.964  0.00  0.00    +0.000 C 
ATOM     23  C   UNL     1       6.752   1.805  22.303  0.00  0.00    +0.000 C 
ENDBRANCH  15  23
ENDBRANCH  12  21
ENDBRANCH   1  14
BRANCH   1  24
ATOM     24  C   UNL     1       7.612  -4.323  26.711  0.00  0.00    +0.000 C 
ATOM     25  O   UNL     1       6.900  -4.533  27.670  0.00  0.00    +0.000 OA
ATOM     26  O   UNL     1       8.957  -4.332  26.863  0.00  0.00    +0.000 OA
ENDBRANCH   1  24
TORSDOF 6
ENDMDL
MODEL 7
REMARK VINA RESULT:      -6.3      2.880      6.798
REMARK  Name = 
REMARK  6 active torsions:
REMARK  status: ('A' for Active; 'I' for Inactive)
REMARK    1  A    between atoms: C_2  and  N_3
REMARK    2  A    between atoms: C_9  and  C_10
REMARK    3  A    between atoms: N_12  and  C_13
REMARK    4  A    between atoms: C_13  and  C_14
REMARK    5  A    between atoms: C_13  and  C_23
REMARK    6  A    between atoms: N_20  and  C_21
REMARK                            x       y       z     vdW  Elec       q    Type
REMARK                         _______ _______ _______ _____ _____    ______ ____
ROOT
ATOM      1  C   UNL     1       6.413  -4.733  24.952  0.00  0.00    +0.000 C 
ATOM      2  C   UNL     1       5.669  -3.417  25.319  0.00  0.00    +0.000 C 
ENDROOT
BRANCH   1   3
ATOM      3  C   UNL     1       5.777  -5.341  23.762  0.00  0.00    +0.000 C 
ATOM      4  C   UNL     1       6.793  -6.033  22.873  0.00  0.00    +0.000 C 
ATOM      5  C   UNL     1       6.830  -5.371  21.525  0.00  0.00    +0.000 C 
ATOM      6  C   UNL     1       6.172  -4.119  21.351  0.00  0.00    +0.000 C 
ATOM      7  N   UNL     1       5.080  -3.930  21.981  0.00  0.00    +0.000 NA
ATOM      8  C   UNL     1       4.812  -4.561  23.018  0.00  0.00    +0.000 C 
ATOM      9  N   UNL     1       3.484  -4.878  23.075  0.00  0.00    +0.000 NA
BRANCH   9  10
ATOM     10  C   UNL     1       3.032  -6.238  23.157  0.00  0.00    +0.000 C 
ATOM     11  C   UNL     1       2.100  -6.442  24.335  0.00  0.00    +0.000 C 
ENDBRANCH   9  10
ENDBRANCH   1   3
BRANCH   1  14
ATOM     12  C   UNL     1       8.262  -3.136  24.817  0.00  0.00    +0.000 C 
ATOM     13  O   UNL     1       8.916  -2.792  25.798  0.00  0.00    +0.000 OA
ATOM     14  N   UNL     1       7.802  -4.395  24.748  0.00  0.00    +0.000 NA
BRANCH  12  21
ATOM     15  N   UNL     1       7.090   0.245  24.190  0.00  0.00    +0.000 NA
ATOM     16  C   UNL     1       8.152  -0.688  24.435  0.00  0.00    +0.000 C 
ATOM     17  N   UNL     1       9.197  -0.218  24.410  0.00  0.00    +0.000 NA
ATOM     18  C   UNL     1      10.327  -0.350  23.360  0.00  0.00    +0.000 C 
ATOM     19  C   UNL     1       9.898  -1.833  22.920  0.00  0.00    +0.000 C 
ATOM     20  C   UNL     1       8.460  -2.074  22.616  0.00  0.00    +0.000 C 
ATOM     21  C   UNL     1       7.591  -2.092  23.966  0.00  0.00    +0.000 C 
BRANCH  15  23
ATOM     22  C   UNL     1       6.996   2.395  23.046  0.00  0.00    +0.000 C 
ATOM     23  C   UNL     1       7.199   0.896  22.875  0.00  0.00    +0.000 C 
ENDBRANCH  15  23
ENDBRANCH  12  21
ENDBRANCH   1  14
BRANCH   1  24
ATOM     24  C   UNL     1       6.274  -5.618  26.169  0.00  0.00    +0.000 C 
ATOM     25  O   UNL     1       7.235  -5.995  26.807  0.00  0.00    +0.000 OA
ATOM     26  O   UNL     1       5.283  -6.492  25.874  0.00  0.00    +0.000 OA
ENDBRANCH   1  24
TORSDOF 6
ENDMDL
MODEL 8
REMARK VINA RESULT:      -6.2      2.765      6.295
REMARK  Name = 
REMARK  6 active torsions:
REMARK  status: ('A' for Active; 'I' for Inactive)
REMARK    1  A    between atoms: C_2  and  N_3
REMARK    2  A    between atoms: C_9  and  C_10
REMARK    3  A    between atoms: N_12  and  C_13
REMARK    4  A    between atoms: C_13  and  C_14
REMARK    5  A    between atoms: C_13  and  C_23
REMARK    6  A    between atoms: N_20  and  C_21
REMARK                            x       y       z     vdW  Elec       q    Type
REMARK                         _______ _______ _______ _____ _____    ______ ____
ROOT
ATOM      1  C   UNL     1       8.135  -3.797  25.127  0.00  0.00    +0.000 C 
ATOM      2  C   UNL     1       8.650  -2.662  26.057  0.00  0.00    +0.000 C 
ENDROOT
BRANCH   1   3
ATOM      3  C   UNL     1       6.683  -3.985  25.339  0.00  0.00    +0.000 C 
ATOM      4  C   UNL     1       6.361  -5.389  25.818  0.00  0.00    +0.000 C 
ATOM      5  C   UNL     1       5.494  -6.087  24.810  0.00  0.00    +0.000 C 
ATOM      6  C   UNL     1       5.323  -5.504  23.521  0.00  0.00    +0.000 C 
ATOM      7  N   UNL     1       5.265  -4.233  23.449  0.00  0.00    +0.000 NA
ATOM      8  C   UNL     1       5.767  -3.509  24.326  0.00  0.00    +0.000 C 
ATOM      9  N   UNL     1       4.992  -2.410  24.564  0.00  0.00    +0.000 NA
BRANCH   9  10
ATOM     10  C   UNL     1       4.446  -2.133  25.862  0.00  0.00    +0.000 C 
ATOM     11  C   UNL     1       5.024  -0.860  26.447  0.00  0.00    +0.000 C 
ENDBRANCH   9  10
ENDBRANCH   1   3
BRANCH   1  14
ATOM     12  C   UNL     1       9.295  -2.405  23.483  0.00  0.00    +0.000 C 
ATOM     13  O   UNL     1      10.433  -2.649  23.088  0.00  0.00    +0.000 OA
ATOM     14  N   UNL     1       8.472  -3.423  23.773  0.00  0.00    +0.000 NA
BRANCH  12  21
ATOM     15  N   UNL     1      10.173   1.014  24.347  0.00  0.00    +0.000 NA
ATOM     16  C   UNL     1       9.946  -0.014  23.372  0.00  0.00    +0.000 C 
ATOM     17  N   UNL     1      10.044   0.347  22.287  0.00  0.00    +0.000 NA
ATOM     18  C   UNL     1       8.957   0.573  21.208  0.00  0.00    +0.000 C 
ATOM     19  C   UNL     1       7.984  -0.564  21.790  0.00  0.00    +0.000 C 
ATOM     20  C   UNL     1       7.705  -0.552  23.253  0.00  0.00    +0.000 C 
ATOM     21  C   UNL     1       8.988  -1.057  24.077  0.00  0.00    +0.000 C 
BRANCH  15  23
ATOM     22  C   UNL     1      10.003   3.389  23.830  0.00  0.00    +0.000 C 
ATOM     23  C   UNL     1       9.231   2.136  24.217  0.00  0.00    +0.000 C 
ENDBRANCH  15  23
ENDBRANCH  12  21
ENDBRANCH   1  14
BRANCH   1  24
ATOM     24  C   UNL     1       8.920  -5.025  25.530  0.00  0.00    +0.000 C 
ATOM     25  O   UNL     1       9.706  -5.016  26.454  0.00  0.00    +0.000 OA
ATOM     26  O   UNL     1       9.258  -5.637  24.370  0.00  0.00    +0.000 OA
ENDBRANCH   1  24
TORSDOF 6
ENDMDL
MODEL 9
REMARK VINA RESULT:      -6.2      2.065      6.048
REMARK  Name = 
REMARK  6 active torsions:
REMARK  status: ('A' for Active; 'I' for Inactive)
REMARK    1  A    between atoms: C_2  and  N_3
REMARK    2  A    between atoms: C_9  and  C_10
REMARK    3  A    between atoms: N_12  and  C_13
REMARK    4  A    between atoms: C_13  and  C_14
REMARK    5  A    between atoms: C_13  and  C_23
REMARK    6  A    between atoms: N_20  and  C_21
REMARK                            x       y       z     vdW  Elec       q    Type
REMARK                         _______ _______ _______ _____ _____    ______ ____
ROOT
ATOM      1  C   UNL     1       6.626  -3.537  23.215  0.00  0.00    +0.000 C 
ATOM      2  C   UNL     1       8.177  -3.429  23.178  0.00  0.00    +0.000 C 
ENDROOT
BRANCH   1   3
ATOM      3  C   UNL     1       6.181  -3.749  24.610  0.00  0.00    +0.000 C 
ATOM      4  C   UNL     1       5.424  -2.549  25.148  0.00  0.00    +0.000 C 
ATOM      5  C   UNL     1       6.161  -1.961  26.317  0.00  0.00    +0.000 C 
ATOM      6  C   UNL     1       7.495  -2.388  26.580  0.00  0.00    +0.000 C 
ATOM      7  N   UNL     1       7.779  -3.611  26.363  0.00  0.00    +0.000 NA
ATOM      8  C   UNL     1       7.122  -4.298  25.562  0.00  0.00    +0.000 C 
ATOM      9  N   UNL     1       6.973  -5.578  26.013  0.00  0.00    +0.000 NA
BRANCH   9  10
ATOM     10  C   UNL     1       5.679  -6.156  26.241  0.00  0.00    +0.000 C 
ATOM     11  C   UNL     1       5.143  -5.795  27.612  0.00  0.00    +0.000 C 
ENDBRANCH   9  10
ENDBRANCH   1   3
BRANCH   1  14
ATOM     12  C   UNL     1       6.884  -1.386  22.076  0.00  0.00    +0.000 C 
ATOM     13  O   UNL     1       6.927  -1.282  20.853  0.00  0.00    +0.000 OA
ATOM     14  N   UNL     1       6.101  -2.327  22.625  0.00  0.00    +0.000 NA
BRANCH  12  21
ATOM     15  N   UNL     1      10.139   0.181  22.466  0.00  0.00    +0.000 NA
ATOM     16  C   UNL     1       8.782   0.209  22.000  0.00  0.00    +0.000 C 
ATOM     17  N   UNL     1       8.478   1.203  21.516  0.00  0.00    +0.000 NA
ATOM     18  C   UNL     1       7.537   2.318  22.032  0.00  0.00    +0.000 C 
ATOM     19  C   UNL     1       6.620   1.308  22.879  0.00  0.00    +0.000 C 
ATOM     20  C   UNL     1       7.309   0.335  23.771  0.00  0.00    +0.000 C 
ATOM     21  C   UNL     1       8.006  -0.828  22.909  0.00  0.00    +0.000 C 
BRANCH  15  23
ATOM     22  C   UNL     1      10.890   0.540  24.757  0.00  0.00    +0.000 C 
ATOM     23  C   UNL     1      10.411   1.214  23.479  0.00  0.00    +0.000 C 
ENDBRANCH  15  23
ENDBRANCH  12  21
ENDBRANCH   1  14
BRANCH   1  24
ATOM     24  C   UNL     1       6.292  -4.722  22.338  0.00  0.00    +0.000 C 
ATOM     25  O   UNL     1       7.102  -5.216  21.582  0.00  0.00    +0.000 OA
ATOM     26  O   UNL     1       5.023  -4.514  21.915  0.00  0.00    +0.000 OA
ENDBRANCH   1  24
TORSDOF 6
ENDMDL
