MODEL 1
REMARK VINA RESULT:      -7.0      0.000      0.000
REMARK  Name = 
REMARK  7 active torsions:
REMARK  status: ('A' for Active; 'I' for Inactive)
REMARK    1  A    between atoms: C_2  and  N_3
REMARK    2  A    between atoms: C_4  and  C_6
REMARK    3  A    between atoms: C_11  and  N_12
REMARK    4  A    between atoms: N_12  and  C_13
REMARK    5  A    between atoms: C_13  and  N_14
REMARK    6  A    between atoms: C_19  and  C_20
REMARK    7  A    between atoms: C_20  and  C_21
REMARK                            x       y       z     vdW  Elec       q    Type
REMARK                         _______ _______ _______ _____ _____    ______ ____
ROOT
ATOM      1  N   UNL     1       6.775   0.229  23.911  0.00  0.00    +0.000 NA
ENDROOT
BRANCH   1   7
ATOM      2  C   UNL     1       8.326   0.701  22.111  0.00  0.00    +0.000 C 
ATOM      3  C   UNL     1       9.137   1.944  21.901  0.00  0.00    +0.000 C 
ATOM      4  C   UNL     1      10.166   2.145  22.919  0.00  0.00    +0.000 C 
ATOM      5  C   UNL     1       9.909   1.993  24.310  0.00  0.00    +0.000 C 
ATOM      6  C   UNL     1       9.157   0.696  24.549  0.00  0.00    +0.000 C 
ATOM      7  C   UNL     1       8.179   0.386  23.618  0.00  0.00    +0.000 C 
ATOM      8  O   UNL     1      10.017  -0.148  25.330  0.00  0.00    +0.000 OA
ATOM      9  F   UNL     1      11.206   2.935  22.733  0.00  0.00    +0.000 F 
BRANCH   2  11
ATOM     10  N   UNL     1       6.702  -0.061  20.486  0.00  0.00    +0.000 NA
ATOM     11  C   UNL     1       7.013   0.868  21.430  0.00  0.00    +0.000 C 
ATOM     12  O   UNL     1       6.339   1.871  21.540  0.00  0.00    +0.000 OA
BRANCH  10  14
ATOM     13  C   UNL     1       6.376   0.609  18.176  0.00  0.00    +0.000 C 
ATOM     14  C   UNL     1       7.349   0.020  19.189  0.00  0.00    +0.000 C 
ENDBRANCH  10  14
ENDBRANCH   2  11
ENDBRANCH   1   7
BRANCH   1  15
ATOM     15  C   UNL     1       6.325  -1.135  24.109  0.00  0.00    +0.000 C 
BRANCH  15  16
ATOM     16  N   UNL     1       7.224  -1.923  24.775  0.00  0.00    +0.000 N 
ATOM     17  C   UNL     1       6.834  -2.257  26.185  0.00  0.00    +0.000 C 
ATOM     18  C   UNL     1       6.713  -3.506  26.757  0.00  0.00    +0.000 C 
ATOM     19  C   UNL     1       7.473  -4.832  26.419  0.00  0.00    +0.000 C 
ATOM     20  C   UNL     1       8.200  -4.265  25.047  0.00  0.00    +0.000 C 
ATOM     21  C   UNL     1       7.692  -3.243  24.275  0.00  0.00    +0.000 C 
ATOM     22  C   UNL     1       9.706  -4.621  25.330  0.00  0.00    +0.000 C 
ATOM     23  C   UNL     1       6.949  -0.994  26.998  0.00  0.00    +0.000 C 
BRANCH  21  24
ATOM     24  C   UNL     1       7.073  -3.417  22.842  0.00  0.00    +0.000 C 
ATOM     25  O   UNL     1       7.965  -3.006  21.892  0.00  0.00    +0.000 OA
BRANCH  24  26
ATOM     26  C   UNL     1       6.641  -4.815  22.708  0.00  0.00    +0.000 C 
ATOM     27  C   UNL     1       7.093  -5.677  21.698  0.00  0.00    +0.000 C 
ATOM     28  F   UNL     1       6.685  -6.942  21.955  0.00  0.00    +0.000 F 
ENDBRANCH  24  26
ENDBRANCH  21  24
ENDBRANCH  15  16
ENDBRANCH   1  15
TORSDOF 7
ENDMDL
MODEL 2
REMARK VINA RESULT:      -7.0      2.308      3.493
REMARK  Name = 
REMARK  7 active torsions:
REMARK  status: ('A' for Active; 'I' for Inactive)
REMARK    1  A    between atoms: C_2  and  N_3
REMARK    2  A    between atoms: C_4  and  C_6
REMARK    3  A    between atoms: C_11  and  N_12
REMARK    4  A    between atoms: N_12  and  C_13
REMARK    5  A    between atoms: C_13  and  N_14
REMARK    6  A    between atoms: C_19  and  C_20
REMARK    7  A    between atoms: C_20  and  C_21
REMARK                            x       y       z     vdW  Elec       q    Type
REMARK                         _______ _______ _______ _____ _____    ______ ____
ROOT
ATOM      1  N   UNL     1       7.469  -1.984  22.204  0.00  0.00    +0.000 NA
ENDROOT
BRANCH   1   7
ATOM      2  C   UNL     1       8.598   0.005  21.406  0.00  0.00    +0.000 C 
ATOM      3  C   UNL     1       9.098   1.163  22.216  0.00  0.00    +0.000 C 
ATOM      4  C   UNL     1      10.208   0.818  23.101  0.00  0.00    +0.000 C 
ATOM      5  C   UNL     1      10.202  -0.348  23.919  0.00  0.00    +0.000 C 
ATOM      6  C   UNL     1       9.775  -1.546  23.091  0.00  0.00    +0.000 C 
ATOM      7  C   UNL     1       8.750  -1.320  22.187  0.00  0.00    +0.000 C 
ATOM      8  O   UNL     1      10.897  -2.441  23.040  0.00  0.00    +0.000 OA
ATOM      9  F   UNL     1      11.025   1.722  23.605  0.00  0.00    +0.000 F 
BRANCH   2  11
ATOM     10  N   UNL     1       6.774  -0.293  19.843  0.00  0.00    +0.000 NA
ATOM     11  C   UNL     1       7.191   0.276  21.006  0.00  0.00    +0.000 C 
ATOM     12  O   UNL     1       6.502   1.113  21.552  0.00  0.00    +0.000 OA
BRANCH  10  14
ATOM     13  C   UNL     1       6.046   1.034  17.945  0.00  0.00    +0.000 C 
ATOM     14  C   UNL     1       7.210   0.289  18.587  0.00  0.00    +0.000 C 
ENDBRANCH  10  14
ENDBRANCH   2  11
ENDBRANCH   1   7
BRANCH   1  15
ATOM     15  C   UNL     1       7.446  -3.286  22.843  0.00  0.00    +0.000 C 
BRANCH  15  16
ATOM     16  N   UNL     1       6.192  -3.824  22.955  0.00  0.00    +0.000 N 
ATOM     17  C   UNL     1       6.081  -5.246  22.490  0.00  0.00    +0.000 C 
ATOM     18  C   UNL     1       5.608  -6.332  23.195  0.00  0.00    +0.000 C 
ATOM     19  C   UNL     1       4.536  -6.389  24.334  0.00  0.00    +0.000 C 
ATOM     20  C   UNL     1       4.416  -4.752  24.533  0.00  0.00    +0.000 C 
ATOM     21  C   UNL     1       5.425  -3.866  24.228  0.00  0.00    +0.000 C 
ATOM     22  C   UNL     1       2.861  -4.544  24.415  0.00  0.00    +0.000 C 
ATOM     23  C   UNL     1       6.225  -5.245  20.991  0.00  0.00    +0.000 C 
BRANCH  21  24
ATOM     24  C   UNL     1       6.273  -3.066  25.281  0.00  0.00    +0.000 C 
ATOM     25  O   UNL     1       5.582  -1.965  25.702  0.00  0.00    +0.000 OA
BRANCH  24  26
ATOM     26  C   UNL     1       6.647  -3.998  26.355  0.00  0.00    +0.000 C 
ATOM     27  C   UNL     1       7.639  -4.981  26.223  0.00  0.00    +0.000 C 
ATOM     28  F   UNL     1       7.898  -5.538  27.430  0.00  0.00    +0.000 F 
ENDBRANCH  24  26
ENDBRANCH  21  24
ENDBRANCH  15  16
ENDBRANCH   1  15
TORSDOF 7
ENDMDL
MODEL 3
REMARK VINA RESULT:      -6.9      2.444      6.038
REMARK  Name = 
REMARK  7 active torsions:
REMARK  status: ('A' for Active; 'I' for Inactive)
REMARK    1  A    between atoms: C_2  and  N_3
REMARK    2  A    between atoms: C_4  and  C_6
REMARK    3  A    between atoms: C_11  and  N_12
REMARK    4  A    between atoms: N_12  and  C_13
REMARK    5  A    between atoms: C_13  and  N_14
REMARK    6  A    between atoms: C_19  and  C_20
REMARK    7  A    between atoms: C_20  and  C_21
REMARK                            x       y       z     vdW  Elec       q    Type
REMARK                         _______ _______ _______ _____ _____    ______ ____
ROOT
ATOM      1  N   UNL     1       6.444  -2.009  23.829  0.00  0.00    +0.000 NA
ENDROOT
BRANCH   1   7
ATOM      2  C   UNL     1       6.414  -4.360  24.413  0.00  0.00    +0.000 C 
ATOM      3  C   UNL     1       6.746  -4.981  25.735  0.00  0.00    +0.000 C 
ATOM      4  C   UNL     1       5.792  -4.647  26.791  0.00  0.00    +0.000 C 
ATOM      5  C   UNL     1       5.324  -3.321  27.009  0.00  0.00    +0.000 C 
ATOM      6  C   UNL     1       4.907  -2.705  25.686  0.00  0.00    +0.000 C 
ATOM      7  C   UNL     1       5.724  -2.990  24.604  0.00  0.00    +0.000 C 
ATOM      8  O   UNL     1       3.493  -2.468  25.763  0.00  0.00    +0.000 OA
ATOM      9  F   UNL     1       5.674  -5.359  27.895  0.00  0.00    +0.000 F 
BRANCH   2  11
ATOM     10  N   UNL     1       7.523  -4.441  22.262  0.00  0.00    +0.000 NA
ATOM     11  C   UNL     1       7.660  -4.266  23.604  0.00  0.00    +0.000 C 
ATOM     12  O   UNL     1       8.766  -4.241  24.103  0.00  0.00    +0.000 OA
BRANCH  10  14
ATOM     13  C   UNL     1       5.989  -5.869  21.037  0.00  0.00    +0.000 C 
ATOM     14  C   UNL     1       7.332  -5.787  21.752  0.00  0.00    +0.000 C 
ENDBRANCH  10  14
ENDBRANCH   2  11
ENDBRANCH   1   7
BRANCH   1  15
ATOM     15  C   UNL     1       6.284  -0.632  24.256  0.00  0.00    +0.000 C 
BRANCH  15  16
ATOM     16  N   UNL     1       7.466   0.047  24.386  0.00  0.00    +0.000 N 
ATOM     17  C   UNL     1       8.613  -0.789  24.872  0.00  0.00    +0.000 C 
ATOM     18  C   UNL     1       9.844  -0.966  24.277  0.00  0.00    +0.000 C 
ATOM     19  C   UNL     1      10.655   0.011  23.361  0.00  0.00    +0.000 C 
ATOM     20  C   UNL     1       9.441   1.117  23.177  0.00  0.00    +0.000 C 
ATOM     21  C   UNL     1       8.102   0.812  23.281  0.00  0.00    +0.000 C 
ATOM     22  C   UNL     1      10.175   2.447  23.585  0.00  0.00    +0.000 C 
ATOM     23  C   UNL     1       8.351  -1.122  26.318  0.00  0.00    +0.000 C 
BRANCH  21  24
ATOM     24  C   UNL     1       7.088   0.780  22.082  0.00  0.00    +0.000 C 
ATOM     25  O   UNL     1       6.584   2.031  21.861  0.00  0.00    +0.000 OA
BRANCH  24  26
ATOM     26  C   UNL     1       7.779   0.189  20.927  0.00  0.00    +0.000 C 
ATOM     27  C   UNL     1       7.314   0.285  19.607  0.00  0.00    +0.000 C 
ATOM     28  F   UNL     1       8.258  -0.172  18.752  0.00  0.00    +0.000 F 
ENDBRANCH  24  26
ENDBRANCH  21  24
ENDBRANCH  15  16
ENDBRANCH   1  15
TORSDOF 7
ENDMDL
MODEL 4
REMARK VINA RESULT:      -6.7      2.447      6.208
REMARK  Name = 
REMARK  7 active torsions:
REMARK  status: ('A' for Active; 'I' for Inactive)
REMARK    1  A    between atoms: C_2  and  N_3
REMARK    2  A    between atoms: C_4  and  C_6
REMARK    3  A    between atoms: C_11  and  N_12
REMARK    4  A    between atoms: N_12  and  C_13
REMARK    5  A    between atoms: C_13  and  N_14
REMARK    6  A    between atoms: C_19  and  C_20
REMARK    7  A    between atoms: C_20  and  C_21
REMARK                            x       y       z     vdW  Elec       q    Type
REMARK                         _______ _______ _______ _____ _____    ______ ____
ROOT
ATOM      1  N   UNL     1       8.393  -2.920  23.197  0.00  0.00    +0.000 NA
ENDROOT
BRANCH   1   7
ATOM      2  C   UNL     1       6.743  -4.225  24.398  0.00  0.00    +0.000 C 
ATOM      3  C   UNL     1       6.981  -5.393  25.307  0.00  0.00    +0.000 C 
ATOM      4  C   UNL     1       7.683  -5.038  26.539  0.00  0.00    +0.000 C 
ATOM      5  C   UNL     1       8.835  -4.202  26.551  0.00  0.00    +0.000 C 
ATOM      6  C   UNL     1       8.579  -2.972  25.699  0.00  0.00    +0.000 C 
ATOM      7  C   UNL     1       7.885  -3.189  24.520  0.00  0.00    +0.000 C 
ATOM      8  O   UNL     1       8.610  -1.839  26.579  0.00  0.00    +0.000 OA
ATOM      9  F   UNL     1       7.663  -5.801  27.614  0.00  0.00    +0.000 F 
BRANCH   2  11
ATOM     10  N   UNL     1       5.339  -4.574  22.457  0.00  0.00    +0.000 NA
ATOM     11  C   UNL     1       6.573  -4.730  23.008  0.00  0.00    +0.000 C 
ATOM     12  O   UNL     1       7.401  -5.424  22.456  0.00  0.00    +0.000 OA
BRANCH  10  14
ATOM     13  C   UNL     1       3.307  -4.703  23.778  0.00  0.00    +0.000 C 
ATOM     14  C   UNL     1       4.272  -5.463  22.877  0.00  0.00    +0.000 C 
ENDBRANCH  10  14
ENDBRANCH   2  11
ENDBRANCH   1   7
BRANCH   1  15
ATOM     15  C   UNL     1       9.358  -1.841  23.103  0.00  0.00    +0.000 C 
BRANCH  15  16
ATOM     16  N   UNL     1       8.826  -0.603  23.342  0.00  0.00    +0.000 N 
ATOM     17  C   UNL     1       9.841   0.465  23.626  0.00  0.00    +0.000 C 
ATOM     18  C   UNL     1      10.002   1.673  22.982  0.00  0.00    +0.000 C 
ATOM     19  C   UNL     1       8.936   2.567  22.265  0.00  0.00    +0.000 C 
ATOM     20  C   UNL     1       7.713   1.458  22.333  0.00  0.00    +0.000 C 
ATOM     21  C   UNL     1       7.913   0.097  22.401  0.00  0.00    +0.000 C 
ATOM     22  C   UNL     1       6.563   2.311  22.985  0.00  0.00    +0.000 C 
ATOM     23  C   UNL     1      10.435   0.177  24.981  0.00  0.00    +0.000 C 
BRANCH  21  24
ATOM     24  C   UNL     1       7.611  -0.919  21.241  0.00  0.00    +0.000 C 
ATOM     25  O   UNL     1       6.338  -1.400  21.359  0.00  0.00    +0.000 OA
BRANCH  24  26
ATOM     26  C   UNL     1       7.891  -0.240  19.968  0.00  0.00    +0.000 C 
ATOM     27  C   UNL     1       6.913   0.038  19.001  0.00  0.00    +0.000 C 
ATOM     28  F   UNL     1       7.427   0.845  18.044  0.00  0.00    +0.000 F 
ENDBRANCH  24  26
ENDBRANCH  21  24
ENDBRANCH  15  16
ENDBRANCH   1  15
TORSDOF 7
ENDMDL
MODEL 5
REMARK VINA RESULT:      -6.7      1.986      2.741
REMARK  Name = 
REMARK  7 active torsions:
REMARK  status: ('A' for Active; 'I' for Inactive)
REMARK    1  A    between atoms: C_2  and  N_3
REMARK    2  A    between atoms: C_4  and  C_6
REMARK    3  A    between atoms: C_11  and  N_12
REMARK    4  A    between atoms: N_12  and  C_13
REMARK    5  A    between atoms: C_13  and  N_14
REMARK    6  A    between atoms: C_19  and  C_20
REMARK    7  A    between atoms: C_20  and  C_21
REMARK                            x       y       z     vdW  Elec       q    Type
REMARK                         _______ _______ _______ _____ _____    ______ ____
ROOT
ATOM      1  N   UNL     1       7.324  -0.010  23.425  0.00  0.00    +0.000 NA
ENDROOT
BRANCH   1   7
ATOM      2  C   UNL     1       8.056   1.804  21.997  0.00  0.00    +0.000 C 
ATOM      3  C   UNL     1       7.999   3.275  22.279  0.00  0.00    +0.000 C 
ATOM      4  C   UNL     1       8.886   3.693  23.363  0.00  0.00    +0.000 C 
ATOM      5  C   UNL     1       8.973   2.989  24.597  0.00  0.00    +0.000 C 
ATOM      6  C   UNL     1       9.112   1.502  24.326  0.00  0.00    +0.000 C 
ATOM      7  C   UNL     1       8.341   1.004  23.288  0.00  0.00    +0.000 C 
ATOM      8  O   UNL     1      10.403   1.106  24.815  0.00  0.00    +0.000 OA
ATOM      9  F   UNL     1       9.272   4.943  23.525  0.00  0.00    +0.000 F 
BRANCH   2  11
ATOM     10  N   UNL     1       6.833   0.270  20.577  0.00  0.00    +0.000 NA
ATOM     11  C   UNL     1       6.784   1.396  21.339  0.00  0.00    +0.000 C 
ATOM     12  O   UNL     1       5.807   2.114  21.298  0.00  0.00    +0.000 OA
BRANCH  10  14
ATOM     13  C   UNL     1       6.376   0.589  18.215  0.00  0.00    +0.000 C 
ATOM     14  C   UNL     1       7.451   0.342  19.266  0.00  0.00    +0.000 C 
ENDBRANCH  10  14
ENDBRANCH   2  11
ENDBRANCH   1   7
BRANCH   1  15
ATOM     15  C   UNL     1       7.619  -1.072  24.368  0.00  0.00    +0.000 C 
BRANCH  15  16
ATOM     16  N   UNL     1       7.883  -2.278  23.778  0.00  0.00    +0.000 N 
ATOM     17  C   UNL     1       9.229  -2.852  24.110  0.00  0.00    +0.000 C 
ATOM     18  C   UNL     1       9.513  -4.092  24.641  0.00  0.00    +0.000 C 
ATOM     19  C   UNL     1       8.728  -5.439  24.498  0.00  0.00    +0.000 C 
ATOM     20  C   UNL     1       7.401  -4.783  23.763  0.00  0.00    +0.000 C 
ATOM     21  C   UNL     1       7.008  -3.472  23.916  0.00  0.00    +0.000 C 
ATOM     22  C   UNL     1       7.271  -5.701  22.492  0.00  0.00    +0.000 C 
ATOM     23  C   UNL     1      10.266  -2.001  23.425  0.00  0.00    +0.000 C 
BRANCH  21  24
ATOM     24  C   UNL     1       5.736  -2.997  24.708  0.00  0.00    +0.000 C 
ATOM     25  O   UNL     1       4.627  -3.092  23.914  0.00  0.00    +0.000 OA
BRANCH  24  26
ATOM     26  C   UNL     1       5.665  -3.779  25.950  0.00  0.00    +0.000 C 
ATOM     27  C   UNL     1       6.534  -3.597  27.036  0.00  0.00    +0.000 C 
ATOM     28  F   UNL     1       6.096  -4.309  28.101  0.00  0.00    +0.000 F 
ENDBRANCH  24  26
ENDBRANCH  21  24
ENDBRANCH  15  16
ENDBRANCH   1  15
TORSDOF 7
ENDMDL
MODEL 6
REMARK VINA RESULT:      -6.5      2.311      6.531
REMARK  Name = 
REMARK  7 active torsions:
REMARK  status: ('A' for Active; 'I' for Inactive)
REMARK    1  A    between atoms: C_2  and  N_3
REMARK    2  A    between atoms: C_4  and  C_6
REMARK    3  A    between atoms: C_11  and  N_12
REMARK    4  A    between atoms: N_12  and  C_13
REMARK    5  A    between atoms: C_13  and  N_14
REMARK    6  A    between atoms: C_19  and  C_20
REMARK    7  A    between atoms: C_20  and  C_21
REMARK                            x       y       z     vdW  Elec       q    Type
REMARK                         _______ _______ _______ _____ _____    ______ ____
ROOT
ATOM      1  N   UNL     1       8.227  -2.765  25.669  0.00  0.00    +0.000 NA
ENDROOT
BRANCH   1   7
ATOM      2  C   UNL     1       6.825  -4.578  24.886  0.00  0.00    +0.000 C 
ATOM      3  C   UNL     1       6.555  -5.888  25.563  0.00  0.00    +0.000 C 
ATOM      4  C   UNL     1       5.792  -5.755  26.803  0.00  0.00    +0.000 C 
ATOM      5  C   UNL     1       6.101  -4.779  27.792  0.00  0.00    +0.000 C 
ATOM      6  C   UNL     1       6.298  -3.428  27.129  0.00  0.00    +0.000 C 
ATOM      7  C   UNL     1       6.979  -3.442  25.923  0.00  0.00    +0.000 C 
ATOM      8  O   UNL     1       5.253  -2.569  27.612  0.00  0.00    +0.000 OA
ATOM      9  F   UNL     1       5.137  -6.762  27.346  0.00  0.00    +0.000 F 
BRANCH   2  11
ATOM     10  N   UNL     1       7.808  -4.684  22.676  0.00  0.00    +0.000 NA
ATOM     11  C   UNL     1       8.025  -4.729  24.018  0.00  0.00    +0.000 C 
ATOM     12  O   UNL     1       9.105  -5.077  24.447  0.00  0.00    +0.000 OA
BRANCH  10  14
ATOM     13  C   UNL     1       6.134  -5.394  21.069  0.00  0.00    +0.000 C 
ATOM     14  C   UNL     1       7.231  -5.845  22.025  0.00  0.00    +0.000 C 
ENDBRANCH  10  14
ENDBRANCH   2  11
ENDBRANCH   1   7
BRANCH   1  15
ATOM     15  C   UNL     1       8.132  -1.335  25.448  0.00  0.00    +0.000 C 
BRANCH  15  16
ATOM     16  N   UNL     1       7.530  -0.997  24.265  0.00  0.00    +0.000 N 
ATOM     17  C   UNL     1       6.613   0.187  24.350  0.00  0.00    +0.000 C 
ATOM     18  C   UNL     1       6.650   1.342  23.598  0.00  0.00    +0.000 C 
ATOM     19  C   UNL     1       7.155   1.558  22.132  0.00  0.00    +0.000 C 
ATOM     20  C   UNL     1       7.825   0.057  21.961  0.00  0.00    +0.000 C 
ATOM     21  C   UNL     1       8.279  -0.705  23.014  0.00  0.00    +0.000 C 
ATOM     22  C   UNL     1       7.156  -0.425  20.622  0.00  0.00    +0.000 C 
ATOM     23  C   UNL     1       5.402  -0.233  25.141  0.00  0.00    +0.000 C 
BRANCH  21  24
ATOM     24  C   UNL     1       9.789  -1.011  23.323  0.00  0.00    +0.000 C 
ATOM     25  O   UNL     1      10.249  -1.991  22.489  0.00  0.00    +0.000 OA
BRANCH  24  26
ATOM     26  C   UNL     1      10.528   0.257  23.239  0.00  0.00    +0.000 C 
ATOM     27  C   UNL     1      10.499   1.244  24.235  0.00  0.00    +0.000 C 
ATOM     28  F   UNL     1      11.430   2.191  23.973  0.00  0.00    +0.000 F 
ENDBRANCH  24  26
ENDBRANCH  21  24
ENDBRANCH  15  16
ENDBRANCH   1  15
TORSDOF 7
ENDMDL
MODEL 7
REMARK VINA RESULT:      -6.5      2.280      6.597
REMARK  Name = 
REMARK  7 active torsions:
REMARK  status: ('A' for Active; 'I' for Inactive)
REMARK    1  A    between atoms: C_2  and  N_3
REMARK    2  A    between atoms: C_4  and  C_6
REMARK    3  A    between atoms: C_11  and  N_12
REMARK    4  A    between atoms: N_12  and  C_13
REMARK    5  A    between atoms: C_13  and  N_14
REMARK    6  A    between atoms: C_19  and  C_20
REMARK    7  A    between atoms: C_20  and  C_21
REMARK                            x       y       z     vdW  Elec       q    Type
REMARK                         _______ _______ _______ _____ _____    ______ ____
ROOT
ATOM      1  N   UNL     1       7.892  -2.363  24.930  0.00  0.00    +0.000 NA
ENDROOT
BRANCH   1   7
ATOM      2  C   UNL     1       6.057  -3.927  25.167  0.00  0.00    +0.000 C 
ATOM      3  C   UNL     1       5.310  -4.637  24.079  0.00  0.00    +0.000 C 
ATOM      4  C   UNL     1       6.124  -5.613  23.356  0.00  0.00    +0.000 C 
ATOM      5  C   UNL     1       7.441  -5.323  22.899  0.00  0.00    +0.000 C 
ATOM      6  C   UNL     1       8.236  -4.675  24.018  0.00  0.00    +0.000 C 
ATOM      7  C   UNL     1       7.547  -3.758  24.794  0.00  0.00    +0.000 C 
ATOM      8  O   UNL     1       9.304  -5.577  24.349  0.00  0.00    +0.000 OA
ATOM      9  F   UNL     1       5.599  -6.588  22.641  0.00  0.00    +0.000 F 
BRANCH   2  11
ATOM     10  N   UNL     1       5.076  -2.365  26.736  0.00  0.00    +0.000 NA
ATOM     11  C   UNL     1       5.383  -2.627  25.437  0.00  0.00    +0.000 C 
ATOM     12  O   UNL     1       4.937  -1.923  24.555  0.00  0.00    +0.000 OA
BRANCH  10  14
ATOM     13  C   UNL     1       4.330  -3.561  28.712  0.00  0.00    +0.000 C 
ATOM     14  C   UNL     1       3.940  -3.042  27.334  0.00  0.00    +0.000 C 
ENDBRANCH  10  14
ENDBRANCH   2  11
ENDBRANCH   1   7
BRANCH   1  15
ATOM     15  C   UNL     1       8.691  -1.808  23.855  0.00  0.00    +0.000 C 
BRANCH  15  16
ATOM     16  N   UNL     1       8.602  -0.446  23.747  0.00  0.00    +0.000 N 
ATOM     17  C   UNL     1       9.845   0.293  24.144  0.00  0.00    +0.000 C 
ATOM     18  C   UNL     1      10.563   1.204  23.398  0.00  0.00    +0.000 C 
ATOM     19  C   UNL     1      10.070   2.186  22.284  0.00  0.00    +0.000 C 
ATOM     20  C   UNL     1       8.546   1.557  22.168  0.00  0.00    +0.000 C 
ATOM     21  C   UNL     1       8.225   0.257  22.492  0.00  0.00    +0.000 C 
ATOM     22  C   UNL     1       7.668   2.851  22.333  0.00  0.00    +0.000 C 
ATOM     23  C   UNL     1       9.991   0.166  25.638  0.00  0.00    +0.000 C 
BRANCH  21  24
ATOM     24  C   UNL     1       7.836  -0.861  21.459  0.00  0.00    +0.000 C 
ATOM     25  O   UNL     1       6.564  -1.300  21.700  0.00  0.00    +0.000 OA
BRANCH  24  26
ATOM     26  C   UNL     1       8.046  -0.317  20.110  0.00  0.00    +0.000 C 
ATOM     27  C   UNL     1       7.004   0.062  19.251  0.00  0.00    +0.000 C 
ATOM     28  F   UNL     1       7.507   0.712  18.175  0.00  0.00    +0.000 F 
ENDBRANCH  24  26
ENDBRANCH  21  24
ENDBRANCH  15  16
ENDBRANCH   1  15
TORSDOF 7
ENDMDL
MODEL 8
REMARK VINA RESULT:      -6.4      2.463      7.206
REMARK  Name = 
REMARK  7 active torsions:
REMARK  status: ('A' for Active; 'I' for Inactive)
REMARK    1  A    between atoms: C_2  and  N_3
REMARK    2  A    between atoms: C_4  and  C_6
REMARK    3  A    between atoms: C_11  and  N_12
REMARK    4  A    between atoms: N_12  and  C_13
REMARK    5  A    between atoms: C_13  and  N_14
REMARK    6  A    between atoms: C_19  and  C_20
REMARK    7  A    between atoms: C_20  and  C_21
REMARK                            x       y       z     vdW  Elec       q    Type
REMARK                         _______ _______ _______ _____ _____    ______ ____
ROOT
ATOM      1  N   UNL     1       6.109  -2.161  24.595  0.00  0.00    +0.000 NA
ENDROOT
BRANCH   1   7
ATOM      2  C   UNL     1       6.437  -4.527  24.998  0.00  0.00    +0.000 C 
ATOM      3  C   UNL     1       5.389  -5.569  25.247  0.00  0.00    +0.000 C 
ATOM      4  C   UNL     1       4.537  -5.826  24.088  0.00  0.00    +0.000 C 
ATOM      5  C   UNL     1       3.971  -4.779  23.307  0.00  0.00    +0.000 C 
ATOM      6  C   UNL     1       5.041  -3.754  22.977  0.00  0.00    +0.000 C 
ATOM      7  C   UNL     1       5.931  -3.462  23.998  0.00  0.00    +0.000 C 
ATOM      8  O   UNL     1       5.215  -3.774  21.552  0.00  0.00    +0.000 OA
ATOM      9  F   UNL     1       3.824  -6.927  23.958  0.00  0.00    +0.000 F 
BRANCH   2  11
ATOM     10  N   UNL     1       8.162  -3.632  26.443  0.00  0.00    +0.000 NA
ATOM     11  C   UNL     1       6.844  -3.939  26.304  0.00  0.00    +0.000 C 
ATOM     12  O   UNL     1       6.110  -3.916  27.270  0.00  0.00    +0.000 OA
BRANCH  10  14
ATOM     13  C   UNL     1       9.892  -4.970  25.391  0.00  0.00    +0.000 C 
ATOM     14  C   UNL     1       9.107  -4.710  26.670  0.00  0.00    +0.000 C 
ENDBRANCH  10  14
ENDBRANCH   2  11
ENDBRANCH   1   7
BRANCH   1  15
ATOM     15  C   UNL     1       6.428  -1.087  23.673  0.00  0.00    +0.000 C 
BRANCH  15  16
ATOM     16  N   UNL     1       7.758  -0.765  23.640  0.00  0.00    +0.000 N 
ATOM     17  C   UNL     1       8.407  -0.939  22.298  0.00  0.00    +0.000 C 
ATOM     18  C   UNL     1       9.106  -0.001  21.568  0.00  0.00    +0.000 C 
ATOM     19  C   UNL     1       9.953   1.217  22.066  0.00  0.00    +0.000 C 
ATOM     20  C   UNL     1       9.487   1.111  23.648  0.00  0.00    +0.000 C 
ATOM     21  C   UNL     1       8.297   0.555  24.062  0.00  0.00    +0.000 C 
ATOM     22  C   UNL     1      10.881   1.093  24.376  0.00  0.00    +0.000 C 
ATOM     23  C   UNL     1       8.496  -2.418  22.026  0.00  0.00    +0.000 C 
BRANCH  21  24
ATOM     24  C   UNL     1       7.082   1.358  24.654  0.00  0.00    +0.000 C 
ATOM     25  O   UNL     1       7.297   1.625  25.977  0.00  0.00    +0.000 OA
BRANCH  24  26
ATOM     26  C   UNL     1       6.883   2.549  23.816  0.00  0.00    +0.000 C 
ATOM     27  C   UNL     1       6.348   2.510  22.520  0.00  0.00    +0.000 C 
ATOM     28  F   UNL     1       6.096   3.767  22.087  0.00  0.00    +0.000 F 
ENDBRANCH  24  26
ENDBRANCH  21  24
ENDBRANCH  15  16
ENDBRANCH   1  15
TORSDOF 7
ENDMDL
MODEL 9
REMARK VINA RESULT:      -6.3      2.404      6.977
REMARK  Name = 
REMARK  7 active torsions:
REMARK  status: ('A' for Active; 'I' for Inactive)
REMARK    1  A    between atoms: C_2  and  N_3
REMARK    2  A    between atoms: C_4  and  C_6
REMARK    3  A    between atoms: C_11  and  N_12
REMARK    4  A    between atoms: N_12  and  C_13
REMARK    5  A    between atoms: C_13  and  N_14
REMARK    6  A    between atoms: C_19  and  C_20
REMARK    7  A    between atoms: C_20  and  C_21
REMARK                            x       y       z     vdW  Elec       q    Type
REMARK                         _______ _______ _______ _____ _____    ______ ____
ROOT
ATOM      1  N   UNL     1       8.206  -3.022  23.270  0.00  0.00    +0.000 NA
ENDROOT
BRANCH   1   7
ATOM      2  C   UNL     1       7.555  -5.192  24.125  0.00  0.00    +0.000 C 
ATOM      3  C   UNL     1       6.295  -5.552  24.851  0.00  0.00    +0.000 C 
ATOM      4  C   UNL     1       5.097  -5.456  24.019  0.00  0.00    +0.000 C 
ATOM      5  C   UNL     1       4.839  -4.342  23.172  0.00  0.00    +0.000 C 
ATOM      6  C   UNL     1       6.085  -4.015  22.369  0.00  0.00    +0.000 C 
ATOM      7  C   UNL     1       7.286  -4.112  23.053  0.00  0.00    +0.000 C 
ATOM      8  O   UNL     1       5.765  -4.246  20.989  0.00  0.00    +0.000 OA
ATOM      9  F   UNL     1       3.968  -6.067  24.323  0.00  0.00    +0.000 F 
BRANCH   2  11
ATOM     10  N   UNL     1       8.101  -4.227  26.277  0.00  0.00    +0.000 NA
ATOM     11  C   UNL     1       8.575  -4.768  25.123  0.00  0.00    +0.000 C 
ATOM     12  O   UNL     1       9.759  -4.707  24.866  0.00  0.00    +0.000 OA
BRANCH  10  14
ATOM     13  C   UNL     1       6.213  -2.823  26.873  0.00  0.00    +0.000 C 
ATOM     14  C   UNL     1       7.604  -2.863  26.254  0.00  0.00    +0.000 C 
ENDBRANCH  10  14
ENDBRANCH   2  11
ENDBRANCH   1   7
BRANCH   1  15
ATOM     15  C   UNL     1       8.388  -2.122  22.146  0.00  0.00    +0.000 C 
BRANCH  15  16
ATOM     16  N   UNL     1       8.193  -0.804  22.457  0.00  0.00    +0.000 N 
ATOM     17  C   UNL     1       9.430  -0.079  22.898  0.00  0.00    +0.000 C 
ATOM     18  C   UNL     1       9.966   1.078  22.373  0.00  0.00    +0.000 C 
ATOM     19  C   UNL     1       9.248   2.277  21.669  0.00  0.00    +0.000 C 
ATOM     20  C   UNL     1       7.769   1.547  21.561  0.00  0.00    +0.000 C 
ATOM     21  C   UNL     1       7.587   0.182  21.523  0.00  0.00    +0.000 C 
ATOM     22  C   UNL     1       6.841   2.639  22.209  0.00  0.00    +0.000 C 
ATOM     23  C   UNL     1       9.806  -0.608  24.258  0.00  0.00    +0.000 C 
BRANCH  21  24
ATOM     24  C   UNL     1       7.123  -0.633  20.263  0.00  0.00    +0.000 C 
ATOM     25  O   UNL     1       5.876  -1.153  20.473  0.00  0.00    +0.000 OA
BRANCH  24  26
ATOM     26  C   UNL     1       7.224   0.254  19.095  0.00  0.00    +0.000 C 
ATOM     27  C   UNL     1       6.143   0.565  18.256  0.00  0.00    +0.000 C 
ATOM     28  F   UNL     1       6.492   1.556  17.403  0.00  0.00    +0.000 F 
ENDBRANCH  24  26
ENDBRANCH  21  24
ENDBRANCH  15  16
ENDBRANCH   1  15
TORSDOF 7
ENDMDL
