MODEL 1
REMARK VINA RESULT:      -6.4      0.000      0.000
REMARK  Name = 
REMARK  7 active torsions:
REMARK  status: ('A' for Active; 'I' for Inactive)
REMARK    1  A    between atoms: C_3  and  N_4
REMARK    2  A    between atoms: N_4  and  C_5
REMARK    3  A    between atoms: C_5  and  S_6
REMARK    4  A    between atoms: N_10  and  C_15
REMARK    5  A    between atoms: C_15  and  O_16
REMARK    6  A    between atoms: O_16  and  C_17
REMARK    7  A    between atoms: C_17  and  S_18
REMARK                            x       y       z     vdW  Elec       q    Type
REMARK                         _______ _______ _______ _____ _____    ______ ____
ROOT
ATOM      1  C   UNL     1       7.653   2.805  21.976  0.00  0.00    +0.000 C 
ATOM      2  C   UNL     1       8.598   1.567  21.625  0.00  0.00    +0.000 C 
ATOM      3  C   UNL     1       8.157   0.313  21.382  0.00  0.00    +0.000 C 
ATOM      4  N   UNL     1       8.217  -0.873  22.370  0.00  0.00    +0.000 N 
ATOM      5  C   UNL     1       9.538  -0.545  23.078  0.00  0.00    +0.000 C 
ATOM      6  C   UNL     1      10.066   0.780  23.248  0.00  0.00    +0.000 C 
ATOM      7  C   UNL     1       9.963   1.956  22.332  0.00  0.00    +0.000 C 
ATOM      8  C   UNL     1      10.555  -1.527  22.522  0.00  0.00    +0.000 C 
ENDROOT
BRANCH   3   9
ATOM      9  N   UNL     1       8.133  -0.404  20.181  0.00  0.00    +0.000 NA
BRANCH   9  10
ATOM     10  C   UNL     1       7.627   0.266  19.000  0.00  0.00    +0.000 C 
BRANCH  10  11
ATOM     11  S   UNL     1       5.920  -0.196  18.745  0.00  0.00    +0.000 S 
ATOM     12  O   UNL     1       5.766  -0.490  17.347  0.00  0.00    +0.000 OA
ATOM     13  O   UNL     1       5.634  -1.272  19.652  0.00  0.00    +0.000 OA
ATOM     14  N   UNL     1       4.957   1.083  19.121  0.00  0.00    +0.000 NA
ENDBRANCH  10  11
ENDBRANCH   9  10
ENDBRANCH   3   9
BRANCH   4  15
ATOM     15  C   UNL     1       7.047  -0.785  23.226  0.00  0.00    +0.000 C 
BRANCH  15  16
ATOM     16  O   UNL     1       6.630  -2.032  23.665  0.00  0.00    +0.000 OA
BRANCH  16  17
ATOM     17  C   UNL     1       6.879  -2.976  22.665  0.00  0.00    +0.000 C 
BRANCH  17  18
ATOM     18  S   UNL     1       7.499  -4.481  23.401  0.00  0.00    +0.000 S 
ATOM     19  O   UNL     1       7.439  -5.501  22.389  0.00  0.00    +0.000 OA
ATOM     20  O   UNL     1       8.806  -4.196  23.928  0.00  0.00    +0.000 OA
ATOM     21  N   UNL     1       6.513  -4.913  24.645  0.00  0.00    +0.000 NA
ENDBRANCH  17  18
ENDBRANCH  16  17
ENDBRANCH  15  16
ENDBRANCH   4  15
TORSDOF 7
ENDMDL
MODEL 2
REMARK VINA RESULT:      -6.2      1.729      5.031
REMARK  Name = 
REMARK  7 active torsions:
REMARK  status: ('A' for Active; 'I' for Inactive)
REMARK    1  A    between atoms: C_3  and  N_4
REMARK    2  A    between atoms: N_4  and  C_5
REMARK    3  A    between atoms: C_5  and  S_6
REMARK    4  A    between atoms: N_10  and  C_15
REMARK    5  A    between atoms: C_15  and  O_16
REMARK    6  A    between atoms: O_16  and  C_17
REMARK    7  A    between atoms: C_17  and  S_18
REMARK                            x       y       z     vdW  Elec       q    Type
REMARK                         _______ _______ _______ _____ _____    ______ ____
ROOT
ATOM      1  C   UNL     1      10.223  -1.600  22.551  0.00  0.00    +0.000 C 
ATOM      2  C   UNL     1       9.243  -0.810  23.534  0.00  0.00    +0.000 C 
ATOM      3  C   UNL     1       8.035  -0.321  23.179  0.00  0.00    +0.000 C 
ATOM      4  N   UNL     1       7.715   1.159  22.871  0.00  0.00    +0.000 N 
ATOM      5  C   UNL     1       8.660   1.836  23.872  0.00  0.00    +0.000 C 
ATOM      6  C   UNL     1       9.898   1.272  24.336  0.00  0.00    +0.000 C 
ATOM      7  C   UNL     1      10.244  -0.161  24.580  0.00  0.00    +0.000 C 
ATOM      8  C   UNL     1       7.772   2.335  24.999  0.00  0.00    +0.000 C 
ENDROOT
BRANCH   3   9
ATOM      9  N   UNL     1       6.757  -0.746  23.557  0.00  0.00    +0.000 NA
BRANCH   9  10
ATOM     10  C   UNL     1       6.567  -2.154  23.846  0.00  0.00    +0.000 C 
BRANCH  10  11
ATOM     11  S   UNL     1       6.257  -3.032  22.321  0.00  0.00    +0.000 S 
ATOM     12  O   UNL     1       5.999  -2.045  21.309  0.00  0.00    +0.000 OA
ATOM     13  O   UNL     1       7.385  -3.891  22.092  0.00  0.00    +0.000 OA
ATOM     14  N   UNL     1       4.912  -3.962  22.502  0.00  0.00    +0.000 NA
ENDBRANCH  10  11
ENDBRANCH   9  10
ENDBRANCH   3   9
BRANCH   4  15
ATOM     15  C   UNL     1       8.057   1.396  21.479  0.00  0.00    +0.000 C 
BRANCH  15  16
ATOM     16  O   UNL     1       6.996   1.122  20.630  0.00  0.00    +0.000 OA
BRANCH  16  17
ATOM     17  C   UNL     1       7.478   0.474  19.489  0.00  0.00    +0.000 C 
BRANCH  17  18
ATOM     18  S   UNL     1       6.210   0.448  18.232  0.00  0.00    +0.000 S 
ATOM     19  O   UNL     1       6.624   1.356  17.196  0.00  0.00    +0.000 OA
ATOM     20  O   UNL     1       6.029  -0.920  17.831  0.00  0.00    +0.000 OA
ATOM     21  N   UNL     1       4.802   0.996  18.883  0.00  0.00    +0.000 NA
ENDBRANCH  17  18
ENDBRANCH  16  17
ENDBRANCH  15  16
ENDBRANCH   4  15
TORSDOF 7
ENDMDL
MODEL 3
REMARK VINA RESULT:      -6.0      2.037      2.291
REMARK  Name = 
REMARK  7 active torsions:
REMARK  status: ('A' for Active; 'I' for Inactive)
REMARK    1  A    between atoms: C_3  and  N_4
REMARK    2  A    between atoms: N_4  and  C_5
REMARK    3  A    between atoms: C_5  and  S_6
REMARK    4  A    between atoms: N_10  and  C_15
REMARK    5  A    between atoms: C_15  and  O_16
REMARK    6  A    between atoms: O_16  and  C_17
REMARK    7  A    between atoms: C_17  and  S_18
REMARK                            x       y       z     vdW  Elec       q    Type
REMARK                         _______ _______ _______ _____ _____    ______ ____
ROOT
ATOM      1  C   UNL     1       8.144   2.388  25.119  0.00  0.00    +0.000 C 
ATOM      2  C   UNL     1       8.634   1.457  23.918  0.00  0.00    +0.000 C 
ATOM      3  C   UNL     1       7.988   0.347  23.499  0.00  0.00    +0.000 C 
ATOM      4  N   UNL     1       8.396  -1.110  23.814  0.00  0.00    +0.000 N 
ATOM      5  C   UNL     1       9.921  -0.949  23.818  0.00  0.00    +0.000 C 
ATOM      6  C   UNL     1      10.614   0.262  24.163  0.00  0.00    +0.000 C 
ATOM      7  C   UNL     1      10.205   1.678  23.921  0.00  0.00    +0.000 C 
ATOM      8  C   UNL     1      10.401  -1.561  22.513  0.00  0.00    +0.000 C 
ENDROOT
BRANCH   3   9
ATOM      9  N   UNL     1       7.283   0.124  22.312  0.00  0.00    +0.000 NA
BRANCH   9  10
ATOM     10  C   UNL     1       7.757   0.777  21.107  0.00  0.00    +0.000 C 
BRANCH  10  11
ATOM     11  S   UNL     1       6.812   0.193  19.708  0.00  0.00    +0.000 S 
ATOM     12  O   UNL     1       7.712   0.123  18.589  0.00  0.00    +0.000 OA
ATOM     13  O   UNL     1       6.196  -1.043  20.102  0.00  0.00    +0.000 OA
ATOM     14  N   UNL     1       5.633   1.287  19.364  0.00  0.00    +0.000 NA
ENDBRANCH  10  11
ENDBRANCH   9  10
ENDBRANCH   3   9
BRANCH   4  15
ATOM     15  C   UNL     1       7.831  -1.448  25.109  0.00  0.00    +0.000 C 
BRANCH  15  16
ATOM     16  O   UNL     1       8.646  -2.315  25.820  0.00  0.00    +0.000 OA
BRANCH  16  17
ATOM     17  C   UNL     1       7.856  -3.302  26.416  0.00  0.00    +0.000 C 
BRANCH  17  18
ATOM     18  S   UNL     1       8.066  -4.846  25.545  0.00  0.00    +0.000 S 
ATOM     19  O   UNL     1       7.923  -5.900  26.513  0.00  0.00    +0.000 OA
ATOM     20  O   UNL     1       7.123  -4.860  24.460  0.00  0.00    +0.000 OA
ATOM     21  N   UNL     1       9.587  -4.906  24.921  0.00  0.00    +0.000 NA
ENDBRANCH  17  18
ENDBRANCH  16  17
ENDBRANCH  15  16
ENDBRANCH   4  15
TORSDOF 7
ENDMDL
MODEL 4
REMARK VINA RESULT:      -5.9      1.881      5.526
REMARK  Name = 
REMARK  7 active torsions:
REMARK  status: ('A' for Active; 'I' for Inactive)
REMARK    1  A    between atoms: C_3  and  N_4
REMARK    2  A    between atoms: N_4  and  C_5
REMARK    3  A    between atoms: C_5  and  S_6
REMARK    4  A    between atoms: N_10  and  C_15
REMARK    5  A    between atoms: C_15  and  O_16
REMARK    6  A    between atoms: O_16  and  C_17
REMARK    7  A    between atoms: C_17  and  S_18
REMARK                            x       y       z     vdW  Elec       q    Type
REMARK                         _______ _______ _______ _____ _____    ______ ____
ROOT
ATOM      1  C   UNL     1      10.369   2.824  23.489  0.00  0.00    +0.000 C 
ATOM      2  C   UNL     1       9.466   1.671  24.127  0.00  0.00    +0.000 C 
ATOM      3  C   UNL     1       9.401   0.405  23.660  0.00  0.00    +0.000 C 
ATOM      4  N   UNL     1       8.254  -0.187  22.812  0.00  0.00    +0.000 N 
ATOM      5  C   UNL     1       7.069   0.566  23.429  0.00  0.00    +0.000 C 
ATOM      6  C   UNL     1       7.152   1.872  24.023  0.00  0.00    +0.000 C 
ATOM      7  C   UNL     1       8.278   2.483  24.792  0.00  0.00    +0.000 C 
ATOM      8  C   UNL     1       6.353  -0.446  24.308  0.00  0.00    +0.000 C 
ENDROOT
BRANCH   3   9
ATOM      9  N   UNL     1       9.887  -0.778  24.227  0.00  0.00    +0.000 NA
BRANCH   9  10
ATOM     10  C   UNL     1       9.805  -1.992  23.439  0.00  0.00    +0.000 C 
BRANCH  10  11
ATOM     11  S   UNL     1       9.110  -3.299  24.440  0.00  0.00    +0.000 S 
ATOM     12  O   UNL     1      10.103  -4.334  24.534  0.00  0.00    +0.000 OA
ATOM     13  O   UNL     1       8.696  -2.705  25.680  0.00  0.00    +0.000 OA
ATOM     14  N   UNL     1       7.785  -3.910  23.678  0.00  0.00    +0.000 NA
ENDBRANCH  10  11
ENDBRANCH   9  10
ENDBRANCH   3   9
BRANCH   4  15
ATOM     15  C   UNL     1       8.517   0.155  21.425  0.00  0.00    +0.000 C 
BRANCH  15  16
ATOM     16  O   UNL     1       7.605  -0.434  20.563  0.00  0.00    +0.000 OA
BRANCH  16  17
ATOM     17  C   UNL     1       7.787   0.086  19.278  0.00  0.00    +0.000 C 
BRANCH  17  18
ATOM     18  S   UNL     1       6.217   0.152  18.430  0.00  0.00    +0.000 S 
ATOM     19  O   UNL     1       6.041  -1.114  17.769  0.00  0.00    +0.000 OA
ATOM     20  O   UNL     1       5.215   0.497  19.401  0.00  0.00    +0.000 OA
ATOM     21  N   UNL     1       6.274   1.338  17.291  0.00  0.00    +0.000 NA
ENDBRANCH  17  18
ENDBRANCH  16  17
ENDBRANCH  15  16
ENDBRANCH   4  15
TORSDOF 7
ENDMDL
MODEL 5
REMARK VINA RESULT:      -5.9      3.019      4.462
REMARK  Name = 
REMARK  7 active torsions:
REMARK  status: ('A' for Active; 'I' for Inactive)
REMARK    1  A    between atoms: C_3  and  N_4
REMARK    2  A    between atoms: N_4  and  C_5
REMARK    3  A    between atoms: C_5  and  S_6
REMARK    4  A    between atoms: N_10  and  C_15
REMARK    5  A    between atoms: C_15  and  O_16
REMARK    6  A    between atoms: O_16  and  C_17
REMARK    7  A    between atoms: C_17  and  S_18
REMARK                            x       y       z     vdW  Elec       q    Type
REMARK                         _______ _______ _______ _____ _____    ______ ____
ROOT
ATOM      1  C   UNL     1      10.117   1.386  22.145  0.00  0.00    +0.000 C 
ATOM      2  C   UNL     1       9.298   0.065  21.777  0.00  0.00    +0.000 C 
ATOM      3  C   UNL     1       7.951  -0.036  21.814  0.00  0.00    +0.000 C 
ATOM      4  N   UNL     1       7.127  -0.727  22.924  0.00  0.00    +0.000 N 
ATOM      5  C   UNL     1       8.087  -1.870  23.277  0.00  0.00    +0.000 C 
ATOM      6  C   UNL     1       9.517  -1.807  23.140  0.00  0.00    +0.000 C 
ATOM      7  C   UNL     1      10.331  -1.092  22.111  0.00  0.00    +0.000 C 
ATOM      8  C   UNL     1       7.483  -3.118  22.658  0.00  0.00    +0.000 C 
ENDROOT
BRANCH   3   9
ATOM      9  N   UNL     1       7.039  -0.151  20.761  0.00  0.00    +0.000 NA
BRANCH   9  10
ATOM     10  C   UNL     1       7.484   0.223  19.433  0.00  0.00    +0.000 C 
BRANCH  10  11
ATOM     11  S   UNL     1       6.081   0.257  18.327  0.00  0.00    +0.000 S 
ATOM     12  O   UNL     1       6.011  -1.031  17.693  0.00  0.00    +0.000 OA
ATOM     13  O   UNL     1       4.938   0.640  19.109  0.00  0.00    +0.000 OA
ATOM     14  N   UNL     1       6.337   1.399  17.171  0.00  0.00    +0.000 NA
ENDBRANCH  10  11
ENDBRANCH   9  10
ENDBRANCH   3   9
BRANCH   4  15
ATOM     15  C   UNL     1       6.938   0.241  23.991  0.00  0.00    +0.000 C 
BRANCH  15  16
ATOM     16  O   UNL     1       5.929   1.145  23.698  0.00  0.00    +0.000 OA
BRANCH  16  17
ATOM     17  C   UNL     1       6.373   2.438  23.991  0.00  0.00    +0.000 C 
BRANCH  17  18
ATOM     18  S   UNL     1       6.229   3.466  22.538  0.00  0.00    +0.000 S 
ATOM     19  O   UNL     1       7.562   3.855  22.163  0.00  0.00    +0.000 OA
ATOM     20  O   UNL     1       5.493   2.721  21.554  0.00  0.00    +0.000 OA
ATOM     21  N   UNL     1       5.374   4.818  22.923  0.00  0.00    +0.000 NA
ENDBRANCH  17  18
ENDBRANCH  16  17
ENDBRANCH  15  16
ENDBRANCH   4  15
TORSDOF 7
ENDMDL
MODEL 6
REMARK VINA RESULT:      -5.8      3.104      6.044
REMARK  Name = 
REMARK  7 active torsions:
REMARK  status: ('A' for Active; 'I' for Inactive)
REMARK    1  A    between atoms: C_3  and  N_4
REMARK    2  A    between atoms: N_4  and  C_5
REMARK    3  A    between atoms: C_5  and  S_6
REMARK    4  A    between atoms: N_10  and  C_15
REMARK    5  A    between atoms: C_15  and  O_16
REMARK    6  A    between atoms: O_16  and  C_17
REMARK    7  A    between atoms: C_17  and  S_18
REMARK                            x       y       z     vdW  Elec       q    Type
REMARK                         _______ _______ _______ _____ _____    ______ ____
ROOT
ATOM      1  C   UNL     1       5.819  -2.912  25.696  0.00  0.00    +0.000 C 
ATOM      2  C   UNL     1       6.629  -3.902  24.740  0.00  0.00    +0.000 C 
ATOM      3  C   UNL     1       7.314  -3.514  23.642  0.00  0.00    +0.000 C 
ATOM      4  N   UNL     1       6.843  -3.678  22.179  0.00  0.00    +0.000 N 
ATOM      5  C   UNL     1       6.093  -5.010  22.303  0.00  0.00    +0.000 C 
ATOM      6  C   UNL     1       5.451  -5.477  23.500  0.00  0.00    +0.000 C 
ATOM      7  C   UNL     1       5.857  -5.276  24.923  0.00  0.00    +0.000 C 
ATOM      8  C   UNL     1       6.998  -6.050  21.666  0.00  0.00    +0.000 C 
ENDROOT
BRANCH   3   9
ATOM      9  N   UNL     1       8.695  -3.475  23.424  0.00  0.00    +0.000 NA
BRANCH   9  10
ATOM     10  C   UNL     1       9.466  -2.474  24.135  0.00  0.00    +0.000 C 
BRANCH  10  11
ATOM     11  S   UNL     1       9.513  -0.970  23.171  0.00  0.00    +0.000 S 
ATOM     12  O   UNL     1       9.753  -1.350  21.806  0.00  0.00    +0.000 OA
ATOM     13  O   UNL     1       8.286  -0.268  23.425  0.00  0.00    +0.000 OA
ATOM     14  N   UNL     1      10.769  -0.042  23.687  0.00  0.00    +0.000 NA
ENDBRANCH  10  11
ENDBRANCH   9  10
ENDBRANCH   3   9
BRANCH   4  15
ATOM     15  C   UNL     1       5.992  -2.543  21.868  0.00  0.00    +0.000 C 
BRANCH  15  16
ATOM     16  O   UNL     1       6.552  -1.723  20.901  0.00  0.00    +0.000 OA
BRANCH  16  17
ATOM     17  C   UNL     1       5.628  -1.535  19.869  0.00  0.00    +0.000 C 
BRANCH  17  18
ATOM     18  S   UNL     1       6.110  -0.127  18.881  0.00  0.00    +0.000 S 
ATOM     19  O   UNL     1       5.965  -0.509  17.502  0.00  0.00    +0.000 OA
ATOM     20  O   UNL     1       5.316   0.992  19.308  0.00  0.00    +0.000 OA
ATOM     21  N   UNL     1       7.694   0.212  19.171  0.00  0.00    +0.000 NA
ENDBRANCH  17  18
ENDBRANCH  16  17
ENDBRANCH  15  16
ENDBRANCH   4  15
TORSDOF 7
ENDMDL
MODEL 7
REMARK VINA RESULT:      -5.8      2.917      4.778
REMARK  Name = 
REMARK  7 active torsions:
REMARK  status: ('A' for Active; 'I' for Inactive)
REMARK    1  A    between atoms: C_3  and  N_4
REMARK    2  A    between atoms: N_4  and  C_5
REMARK    3  A    between atoms: C_5  and  S_6
REMARK    4  A    between atoms: N_10  and  C_15
REMARK    5  A    between atoms: C_15  and  O_16
REMARK    6  A    between atoms: O_16  and  C_17
REMARK    7  A    between atoms: C_17  and  S_18
REMARK                            x       y       z     vdW  Elec       q    Type
REMARK                         _______ _______ _______ _____ _____    ______ ____
ROOT
ATOM      1  C   UNL     1       6.778  -5.058  21.634  0.00  0.00    +0.000 C 
ATOM      2  C   UNL     1       6.264  -3.613  22.081  0.00  0.00    +0.000 C 
ATOM      3  C   UNL     1       7.018  -2.493  22.061  0.00  0.00    +0.000 C 
ATOM      4  N   UNL     1       7.674  -1.823  23.289  0.00  0.00    +0.000 N 
ATOM      5  C   UNL     1       6.600  -2.121  24.343  0.00  0.00    +0.000 C 
ATOM      6  C   UNL     1       5.722  -3.257  24.315  0.00  0.00    +0.000 C 
ATOM      7  C   UNL     1       5.128  -3.956  23.135  0.00  0.00    +0.000 C 
ATOM      8  C   UNL     1       5.871  -0.807  24.567  0.00  0.00    +0.000 C 
ENDROOT
BRANCH   3   9
ATOM      9  N   UNL     1       6.927  -1.375  21.225  0.00  0.00    +0.000 NA
BRANCH   9  10
ATOM     10  C   UNL     1       5.949  -1.404  20.156  0.00  0.00    +0.000 C 
BRANCH  10  11
ATOM     11  S   UNL     1       6.358  -0.153  18.947  0.00  0.00    +0.000 S 
ATOM     12  O   UNL     1       7.743   0.179  19.134  0.00  0.00    +0.000 OA
ATOM     13  O   UNL     1       6.002  -0.680  17.659  0.00  0.00    +0.000 OA
ATOM     14  N   UNL     1       5.452   1.189  19.238  0.00  0.00    +0.000 NA
ENDBRANCH  10  11
ENDBRANCH   9  10
ENDBRANCH   3   9
BRANCH   4  15
ATOM     15  C   UNL     1       8.940  -2.495  23.525  0.00  0.00    +0.000 C 
BRANCH  15  16
ATOM     16  O   UNL     1      10.020  -1.641  23.361  0.00  0.00    +0.000 OA
BRANCH  16  17
ATOM     17  C   UNL     1       9.972  -0.649  24.345  0.00  0.00    +0.000 C 
BRANCH  17  18
ATOM     18  S   UNL     1       9.851   0.957  23.573  0.00  0.00    +0.000 S 
ATOM     19  O   UNL     1       8.560   1.492  23.913  0.00  0.00    +0.000 OA
ATOM     20  O   UNL     1      10.983   1.730  24.006  0.00  0.00    +0.000 OA
ATOM     21  N   UNL     1       9.933   0.773  21.941  0.00  0.00    +0.000 NA
ENDBRANCH  17  18
ENDBRANCH  16  17
ENDBRANCH  15  16
ENDBRANCH   4  15
TORSDOF 7
ENDMDL
MODEL 8
REMARK VINA RESULT:      -5.7      1.961      5.679
REMARK  Name = 
REMARK  7 active torsions:
REMARK  status: ('A' for Active; 'I' for Inactive)
REMARK    1  A    between atoms: C_3  and  N_4
REMARK    2  A    between atoms: N_4  and  C_5
REMARK    3  A    between atoms: C_5  and  S_6
REMARK    4  A    between atoms: N_10  and  C_15
REMARK    5  A    between atoms: C_15  and  O_16
REMARK    6  A    between atoms: O_16  and  C_17
REMARK    7  A    between atoms: C_17  and  S_18
REMARK                            x       y       z     vdW  Elec       q    Type
REMARK                         _______ _______ _______ _____ _____    ______ ____
ROOT
ATOM      1  C   UNL     1      10.622  -1.067  22.441  0.00  0.00    +0.000 C 
ATOM      2  C   UNL     1       9.533  -0.987  23.606  0.00  0.00    +0.000 C 
ATOM      3  C   UNL     1       8.218  -1.253  23.443  0.00  0.00    +0.000 C 
ATOM      4  N   UNL     1       7.091  -0.202  23.330  0.00  0.00    +0.000 N 
ATOM      5  C   UNL     1       7.644   0.865  24.283  0.00  0.00    +0.000 C 
ATOM      6  C   UNL     1       9.041   1.084  24.541  0.00  0.00    +0.000 C 
ATOM      7  C   UNL     1      10.153   0.088  24.593  0.00  0.00    +0.000 C 
ATOM      8  C   UNL     1       6.813   0.753  25.549  0.00  0.00    +0.000 C 
ENDROOT
BRANCH   3   9
ATOM      9  N   UNL     1       7.464  -2.331  23.917  0.00  0.00    +0.000 NA
BRANCH   9  10
ATOM     10  C   UNL     1       7.834  -3.663  23.481  0.00  0.00    +0.000 C 
BRANCH  10  11
ATOM     11  S   UNL     1       8.227  -4.664  24.909  0.00  0.00    +0.000 S 
ATOM     12  O   UNL     1       7.038  -5.394  25.254  0.00  0.00    +0.000 OA
ATOM     13  O   UNL     1       9.376  -5.454  24.567  0.00  0.00    +0.000 OA
ATOM     14  N   UNL     1       8.619  -3.675  26.164  0.00  0.00    +0.000 NA
ENDBRANCH  10  11
ENDBRANCH   9  10
ENDBRANCH   3   9
BRANCH   4  15
ATOM     15  C   UNL     1       7.028   0.218  21.941  0.00  0.00    +0.000 C 
BRANCH  15  16
ATOM     16  O   UNL     1       7.313  -0.822  21.070  0.00  0.00    +0.000 OA
BRANCH  16  17
ATOM     17  C   UNL     1       6.196  -1.067  20.267  0.00  0.00    +0.000 C 
BRANCH  17  18
ATOM     18  S   UNL     1       6.376  -0.212  18.710  0.00  0.00    +0.000 S 
ATOM     19  O   UNL     1       7.745   0.222  18.623  0.00  0.00    +0.000 OA
ATOM     20  O   UNL     1       5.936  -1.106  17.674  0.00  0.00    +0.000 OA
ATOM     21  N   UNL     1       5.401   1.113  18.711  0.00  0.00    +0.000 NA
ENDBRANCH  17  18
ENDBRANCH  16  17
ENDBRANCH  15  16
ENDBRANCH   4  15
TORSDOF 7
ENDMDL
MODEL 9
REMARK VINA RESULT:      -5.5      2.125      5.356
REMARK  Name = 
REMARK  7 active torsions:
REMARK  status: ('A' for Active; 'I' for Inactive)
REMARK    1  A    between atoms: C_3  and  N_4
REMARK    2  A    between atoms: N_4  and  C_5
REMARK    3  A    between atoms: C_5  and  S_6
REMARK    4  A    between atoms: N_10  and  C_15
REMARK    5  A    between atoms: C_15  and  O_16
REMARK    6  A    between atoms: O_16  and  C_17
REMARK    7  A    between atoms: C_17  and  S_18
REMARK                            x       y       z     vdW  Elec       q    Type
REMARK                         _______ _______ _______ _____ _____    ______ ____
ROOT
ATOM      1  C   UNL     1       9.546  -3.120  24.252  0.00  0.00    +0.000 C 
ATOM      2  C   UNL     1       8.481  -1.956  24.496  0.00  0.00    +0.000 C 
ATOM      3  C   UNL     1       7.692  -1.428  23.534  0.00  0.00    +0.000 C 
ATOM      4  N   UNL     1       7.910  -0.070  22.832  0.00  0.00    +0.000 N 
ATOM      5  C   UNL     1       8.494   0.730  24.004  0.00  0.00    +0.000 C 
ATOM      6  C   UNL     1       9.246   0.159  25.087  0.00  0.00    +0.000 C 
ATOM      7  C   UNL     1       9.089  -1.177  25.737  0.00  0.00    +0.000 C 
ATOM      8  C   UNL     1       7.377   1.647  24.470  0.00  0.00    +0.000 C 
ENDROOT
BRANCH   3   9
ATOM      9  N   UNL     1       6.310  -1.549  23.352  0.00  0.00    +0.000 NA
BRANCH   9  10
ATOM     10  C   UNL     1       5.821  -2.692  22.607  0.00  0.00    +0.000 C 
BRANCH  10  11
ATOM     11  S   UNL     1       4.955  -3.793  23.717  0.00  0.00    +0.000 S 
ATOM     12  O   UNL     1       5.949  -4.579  24.394  0.00  0.00    +0.000 OA
ATOM     13  O   UNL     1       4.118  -2.977  24.552  0.00  0.00    +0.000 OA
ATOM     14  N   UNL     1       3.999  -4.800  22.835  0.00  0.00    +0.000 NA
ENDBRANCH  10  11
ENDBRANCH   9  10
ENDBRANCH   3   9
BRANCH   4  15
ATOM     15  C   UNL     1       8.843  -0.290  21.740  0.00  0.00    +0.000 C 
BRANCH  15  16
ATOM     16  O   UNL     1       8.573   0.528  20.654  0.00  0.00    +0.000 OA
BRANCH  16  17
ATOM     17  C   UNL     1       7.222   0.886  20.675  0.00  0.00    +0.000 C 
BRANCH  17  18
ATOM     18  S   UNL     1       6.424   0.309  19.185  0.00  0.00    +0.000 S 
ATOM     19  O   UNL     1       7.390   0.407  18.124  0.00  0.00    +0.000 OA
ATOM     20  O   UNL     1       5.917  -1.009  19.451  0.00  0.00    +0.000 OA
ATOM     21  N   UNL     1       5.158   1.300  18.839  0.00  0.00    +0.000 NA
ENDBRANCH  17  18
ENDBRANCH  16  17
ENDBRANCH  15  16
ENDBRANCH   4  15
TORSDOF 7
ENDMDL
