MODEL 1
REMARK VINA RESULT:      -6.5      0.000      0.000
REMARK  Name = 
REMARK  7 active torsions:
REMARK  status: ('A' for Active; 'I' for Inactive)
REMARK    1  A    between atoms: O_2  and  C_3
REMARK    2  A    between atoms: C_7  and  N_16
REMARK    3  A    between atoms: N_8  and  C_9
REMARK    4  A    between atoms: C_10  and  C_11
REMARK    5  A    between atoms: C_11  and  C_12
REMARK    6  A    between atoms: N_16  and  C_17
REMARK    7  A    between atoms: C_17  and  S_18
REMARK                            x       y       z     vdW  Elec       q    Type
REMARK                         _______ _______ _______ _____ _____    ______ ____
ROOT
ATOM      1  C   UNL     1       8.241  -2.548  22.496  0.00  0.00    +0.000 C 
ATOM      2  C   UNL     1       9.513  -2.056  23.194  0.00  0.00    +0.000 C 
ATOM      3  C   UNL     1      10.304  -1.232  22.190  0.00  0.00    +0.000 C 
ATOM      4  C   UNL     1       9.303  -0.153  21.619  0.00  0.00    +0.000 C 
ATOM      5  C   UNL     1       7.974  -0.391  21.485  0.00  0.00    +0.000 C 
ATOM      6  N   UNL     1       7.354  -1.395  22.330  0.00  0.00    +0.000 N 
ATOM      7  C   UNL     1       9.997   1.235  21.931  0.00  0.00    +0.000 C 
ENDROOT
BRANCH   1   9
ATOM      8  C   UNL     1       7.073  -4.446  22.273  0.00  0.00    +0.000 C 
ATOM      9  O   UNL     1       7.680  -3.561  23.207  0.00  0.00    +0.000 OA
ENDBRANCH   1   9
BRANCH   6  10
ATOM     10  C   UNL     1       6.797  -0.862  23.472  0.00  0.00    +0.000 C 
ATOM     11  C   UNL     1       6.549   0.498  23.671  0.00  0.00    +0.000 C 
BRANCH  11  12
ATOM     12  C   UNL     1       6.946   1.189  24.979  0.00  0.00    +0.000 C 
BRANCH  12  13
ATOM     13  C   UNL     1       8.461   1.445  24.835  0.00  0.00    +0.000 C 
ATOM     14  O   UNL     1       9.228   0.624  25.331  0.00  0.00    +0.000 OA
ATOM     15  N   UNL     1       8.780   2.767  24.942  0.00  0.00    +0.000 NA
ATOM     16  C   UNL     1       7.808   3.758  24.523  0.00  0.00    +0.000 C 
ENDBRANCH  12  13
ENDBRANCH  11  12
ENDBRANCH   6  10
BRANCH   5  17
ATOM     17  N   UNL     1       7.158  -0.505  20.331  0.00  0.00    +0.000 NA
BRANCH  17  18
ATOM     18  C   UNL     1       7.519   0.274  19.176  0.00  0.00    +0.000 C 
BRANCH  18  19
ATOM     19  S   UNL     1       6.094   0.495  18.121  0.00  0.00    +0.000 S 
ATOM     20  O   UNL     1       5.771  -0.789  17.564  0.00  0.00    +0.000 OA
ATOM     21  O   UNL     1       6.423   1.526  17.177  0.00  0.00    +0.000 OA
ATOM     22  N   UNL     1       4.828   1.006  19.041  0.00  0.00    +0.000 NA
ENDBRANCH  18  19
ENDBRANCH  17  18
ENDBRANCH   5  17
TORSDOF 7
ENDMDL
MODEL 2
REMARK VINA RESULT:      -6.4      1.814      4.346
REMARK  Name = 
REMARK  7 active torsions:
REMARK  status: ('A' for Active; 'I' for Inactive)
REMARK    1  A    between atoms: O_2  and  C_3
REMARK    2  A    between atoms: C_7  and  N_16
REMARK    3  A    between atoms: N_8  and  C_9
REMARK    4  A    between atoms: C_10  and  C_11
REMARK    5  A    between atoms: C_11  and  C_12
REMARK    6  A    between atoms: N_16  and  C_17
REMARK    7  A    between atoms: C_17  and  S_18
REMARK                            x       y       z     vdW  Elec       q    Type
REMARK                         _______ _______ _______ _____ _____    ______ ____
ROOT
ATOM      1  C   UNL     1       9.894   0.571  22.755  0.00  0.00    +0.000 C 
ATOM      2  C   UNL     1       9.315   1.744  23.551  0.00  0.00    +0.000 C 
ATOM      3  C   UNL     1       8.590   2.655  22.574  0.00  0.00    +0.000 C 
ATOM      4  C   UNL     1       7.589   1.734  21.772  0.00  0.00    +0.000 C 
ATOM      5  C   UNL     1       7.858   0.433  21.498  0.00  0.00    +0.000 C 
ATOM      6  N   UNL     1       8.777  -0.288  22.359  0.00  0.00    +0.000 N 
ATOM      7  C   UNL     1       6.167   2.382  22.021  0.00  0.00    +0.000 C 
ENDROOT
BRANCH   1   9
ATOM      8  C   UNL     1      11.071   0.706  24.657  0.00  0.00    +0.000 C 
ATOM      9  O   UNL     1      10.836  -0.076  23.492  0.00  0.00    +0.000 OA
ENDBRANCH   1   9
BRANCH   6  10
ATOM     10  C   UNL     1       8.136  -0.985  23.360  0.00  0.00    +0.000 C 
ATOM     11  C   UNL     1       8.316  -2.346  23.618  0.00  0.00    +0.000 C 
BRANCH  11  12
ATOM     12  C   UNL     1       7.117  -3.272  23.844  0.00  0.00    +0.000 C 
BRANCH  12  13
ATOM     13  C   UNL     1       7.682  -4.692  23.629  0.00  0.00    +0.000 C 
ATOM     14  O   UNL     1       8.795  -4.939  24.085  0.00  0.00    +0.000 OA
ATOM     15  N   UNL     1       7.362  -5.202  22.406  0.00  0.00    +0.000 NA
ATOM     16  C   UNL     1       6.127  -4.781  21.773  0.00  0.00    +0.000 C 
ENDBRANCH  12  13
ENDBRANCH  11  12
ENDBRANCH   6  10
BRANCH   5  17
ATOM     17  N   UNL     1       8.103  -0.231  20.270  0.00  0.00    +0.000 NA
BRANCH  17  18
ATOM     18  C   UNL     1       7.586   0.371  19.069  0.00  0.00    +0.000 C 
BRANCH  18  19
ATOM     19  S   UNL     1       5.930  -0.223  18.754  0.00  0.00    +0.000 S 
ATOM     20  O   UNL     1       5.679  -1.296  19.675  0.00  0.00    +0.000 OA
ATOM     21  O   UNL     1       5.860  -0.561  17.360  0.00  0.00    +0.000 OA
ATOM     22  N   UNL     1       4.864   0.994  19.057  0.00  0.00    +0.000 NA
ENDBRANCH  18  19
ENDBRANCH  17  18
ENDBRANCH   5  17
TORSDOF 7
ENDMDL
MODEL 3
REMARK VINA RESULT:      -6.1      1.498      1.701
REMARK  Name = 
REMARK  7 active torsions:
REMARK  status: ('A' for Active; 'I' for Inactive)
REMARK    1  A    between atoms: O_2  and  C_3
REMARK    2  A    between atoms: C_7  and  N_16
REMARK    3  A    between atoms: N_8  and  C_9
REMARK    4  A    between atoms: C_10  and  C_11
REMARK    5  A    between atoms: C_11  and  C_12
REMARK    6  A    between atoms: N_16  and  C_17
REMARK    7  A    between atoms: C_17  and  S_18
REMARK                            x       y       z     vdW  Elec       q    Type
REMARK                         _______ _______ _______ _____ _____    ______ ____
ROOT
ATOM      1  C   UNL     1       8.484  -2.403  22.837  0.00  0.00    +0.000 C 
ATOM      2  C   UNL     1       9.756  -1.827  23.465  0.00  0.00    +0.000 C 
ATOM      3  C   UNL     1      10.487  -1.038  22.390  0.00  0.00    +0.000 C 
ATOM      4  C   UNL     1       9.431  -0.029  21.790  0.00  0.00    +0.000 C 
ATOM      5  C   UNL     1       8.108  -0.321  21.711  0.00  0.00    +0.000 C 
ATOM      6  N   UNL     1       7.551  -1.294  22.633  0.00  0.00    +0.000 N 
ATOM      7  C   UNL     1      10.083   1.398  21.998  0.00  0.00    +0.000 C 
ENDROOT
BRANCH   1   9
ATOM      8  C   UNL     1       9.039  -3.849  24.456  0.00  0.00    +0.000 C 
ATOM      9  O   UNL     1       7.980  -3.391  23.623  0.00  0.00    +0.000 OA
ENDBRANCH   1   9
BRANCH   6  10
ATOM     10  C   UNL     1       7.008  -0.713  23.759  0.00  0.00    +0.000 C 
ATOM     11  C   UNL     1       6.307   0.494  23.767  0.00  0.00    +0.000 C 
BRANCH  11  12
ATOM     12  C   UNL     1       6.606   1.573  24.813  0.00  0.00    +0.000 C 
BRANCH  12  13
ATOM     13  C   UNL     1       6.405   2.906  24.060  0.00  0.00    +0.000 C 
ATOM     14  O   UNL     1       5.558   2.937  23.172  0.00  0.00    +0.000 OA
ATOM     15  N   UNL     1       7.578   3.569  23.852  0.00  0.00    +0.000 NA
ATOM     16  C   UNL     1       8.657   3.401  24.805  0.00  0.00    +0.000 C 
ENDBRANCH  12  13
ENDBRANCH  11  12
ENDBRANCH   6  10
BRANCH   5  17
ATOM     17  N   UNL     1       7.263  -0.531  20.593  0.00  0.00    +0.000 NA
BRANCH  17  18
ATOM     18  C   UNL     1       7.557   0.195  19.385  0.00  0.00    +0.000 C 
BRANCH  18  19
ATOM     19  S   UNL     1       6.106   0.262  18.346  0.00  0.00    +0.000 S 
ATOM     20  O   UNL     1       5.004   0.665  19.176  0.00  0.00    +0.000 OA
ATOM     21  O   UNL     1       5.979  -1.021  17.713  0.00  0.00    +0.000 OA
ATOM     22  N   UNL     1       6.338   1.404  17.184  0.00  0.00    +0.000 NA
ENDBRANCH  18  19
ENDBRANCH  17  18
ENDBRANCH   5  17
TORSDOF 7
ENDMDL
MODEL 4
REMARK VINA RESULT:      -6.1      2.849      6.006
REMARK  Name = 
REMARK  7 active torsions:
REMARK  status: ('A' for Active; 'I' for Inactive)
REMARK    1  A    between atoms: O_2  and  C_3
REMARK    2  A    between atoms: C_7  and  N_16
REMARK    3  A    between atoms: N_8  and  C_9
REMARK    4  A    between atoms: C_10  and  C_11
REMARK    5  A    between atoms: C_11  and  C_12
REMARK    6  A    between atoms: N_16  and  C_17
REMARK    7  A    between atoms: C_17  and  S_18
REMARK                            x       y       z     vdW  Elec       q    Type
REMARK                         _______ _______ _______ _____ _____    ______ ____
ROOT
ATOM      1  C   UNL     1       8.017   0.542  25.062  0.00  0.00    +0.000 C 
ATOM      2  C   UNL     1       9.264   1.172  24.436  0.00  0.00    +0.000 C 
ATOM      3  C   UNL     1      10.332   0.093  24.344  0.00  0.00    +0.000 C 
ATOM      4  C   UNL     1       9.662  -1.128  23.601  0.00  0.00    +0.000 C 
ATOM      5  C   UNL     1       8.340  -1.414  23.716  0.00  0.00    +0.000 C 
ATOM      6  N   UNL     1       7.421  -0.346  24.063  0.00  0.00    +0.000 N 
ATOM      7  C   UNL     1      10.587  -1.383  22.342  0.00  0.00    +0.000 C 
ENDROOT
BRANCH   1   9
ATOM      8  C   UNL     1       7.906   2.729  25.537  0.00  0.00    +0.000 C 
ATOM      9  O   UNL     1       7.169   1.513  25.493  0.00  0.00    +0.000 OA
ENDBRANCH   1   9
BRANCH   6  10
ATOM     10  C   UNL     1       6.848   0.245  22.958  0.00  0.00    +0.000 C 
ATOM     11  C   UNL     1       7.100  -0.133  21.638  0.00  0.00    +0.000 C 
BRANCH  11  12
ATOM     12  C   UNL     1       7.396   0.915  20.560  0.00  0.00    +0.000 C 
BRANCH  12  13
ATOM     13  C   UNL     1       7.111   0.188  19.228  0.00  0.00    +0.000 C 
ATOM     14  O   UNL     1       8.069  -0.271  18.613  0.00  0.00    +0.000 OA
ATOM     15  N   UNL     1       6.113   0.781  18.513  0.00  0.00    +0.000 NA
ATOM     16  C   UNL     1       5.063   1.483  19.225  0.00  0.00    +0.000 C 
ENDBRANCH  12  13
ENDBRANCH  11  12
ENDBRANCH   6  10
BRANCH   5  17
ATOM     17  N   UNL     1       7.672  -2.514  24.309  0.00  0.00    +0.000 NA
BRANCH  17  18
ATOM     18  C   UNL     1       8.293  -3.142  25.446  0.00  0.00    +0.000 C 
BRANCH  18  19
ATOM     19  S   UNL     1       8.782  -4.809  25.030  0.00  0.00    +0.000 S 
ATOM     20  O   UNL     1       8.238  -5.679  26.035  0.00  0.00    +0.000 OA
ATOM     21  O   UNL     1      10.213  -4.811  24.904  0.00  0.00    +0.000 OA
ATOM     22  N   UNL     1       8.124  -5.206  23.574  0.00  0.00    +0.000 NA
ENDBRANCH  18  19
ENDBRANCH  17  18
ENDBRANCH   5  17
TORSDOF 7
ENDMDL
MODEL 5
REMARK VINA RESULT:      -6.0      2.627      5.138
REMARK  Name = 
REMARK  7 active torsions:
REMARK  status: ('A' for Active; 'I' for Inactive)
REMARK    1  A    between atoms: O_2  and  C_3
REMARK    2  A    between atoms: C_7  and  N_16
REMARK    3  A    between atoms: N_8  and  C_9
REMARK    4  A    between atoms: C_10  and  C_11
REMARK    5  A    between atoms: C_11  and  C_12
REMARK    6  A    between atoms: N_16  and  C_17
REMARK    7  A    between atoms: C_17  and  S_18
REMARK                            x       y       z     vdW  Elec       q    Type
REMARK                         _______ _______ _______ _____ _____    ______ ____
ROOT
ATOM      1  C   UNL     1       8.676  -2.717  24.018  0.00  0.00    +0.000 C 
ATOM      2  C   UNL     1       7.427  -2.590  24.894  0.00  0.00    +0.000 C 
ATOM      3  C   UNL     1       7.726  -1.574  25.985  0.00  0.00    +0.000 C 
ATOM      4  C   UNL     1       8.253  -0.281  25.249  0.00  0.00    +0.000 C 
ATOM      5  C   UNL     1       8.955  -0.338  24.089  0.00  0.00    +0.000 C 
ATOM      6  N   UNL     1       8.786  -1.492  23.225  0.00  0.00    +0.000 N 
ATOM      7  C   UNL     1       7.269   0.868  25.713  0.00  0.00    +0.000 C 
ENDROOT
BRANCH   1   9
ATOM      8  C   UNL     1       8.191  -4.902  24.116  0.00  0.00    +0.000 C 
ATOM      9  O   UNL     1       8.604  -3.844  23.260  0.00  0.00    +0.000 OA
ENDBRANCH   1   9
BRANCH   6  10
ATOM     10  C   UNL     1       7.839  -1.291  22.245  0.00  0.00    +0.000 C 
ATOM     11  C   UNL     1       8.066  -0.594  21.056  0.00  0.00    +0.000 C 
BRANCH  11  12
ATOM     12  C   UNL     1       7.072   0.460  20.558  0.00  0.00    +0.000 C 
BRANCH  12  13
ATOM     13  C   UNL     1       6.911   0.157  19.053  0.00  0.00    +0.000 C 
ATOM     14  O   UNL     1       7.919  -0.148  18.422  0.00  0.00    +0.000 OA
ATOM     15  N   UNL     1       5.999   0.971  18.451  0.00  0.00    +0.000 NA
ATOM     16  C   UNL     1       4.893   1.486  19.236  0.00  0.00    +0.000 C 
ENDBRANCH  12  13
ENDBRANCH  11  12
ENDBRANCH   6  10
BRANCH   5  17
ATOM     17  N   UNL     1      10.303  -0.009  23.797  0.00  0.00    +0.000 NA
BRANCH  17  18
ATOM     18  C   UNL     1      10.817   1.232  24.314  0.00  0.00    +0.000 C 
BRANCH  18  19
ATOM     19  S   UNL     1      10.333   2.582  23.248  0.00  0.00    +0.000 S 
ATOM     20  O   UNL     1       9.112   3.126  23.774  0.00  0.00    +0.000 OA
ATOM     21  O   UNL     1      10.264   2.062  21.911  0.00  0.00    +0.000 OA
ATOM     22  N   UNL     1      11.497   3.745  23.304  0.00  0.00    +0.000 NA
ENDBRANCH  18  19
ENDBRANCH  17  18
ENDBRANCH   5  17
TORSDOF 7
ENDMDL
MODEL 6
REMARK VINA RESULT:      -5.9      2.280      4.878
REMARK  Name = 
REMARK  7 active torsions:
REMARK  status: ('A' for Active; 'I' for Inactive)
REMARK    1  A    between atoms: O_2  and  C_3
REMARK    2  A    between atoms: C_7  and  N_16
REMARK    3  A    between atoms: N_8  and  C_9
REMARK    4  A    between atoms: C_10  and  C_11
REMARK    5  A    between atoms: C_11  and  C_12
REMARK    6  A    between atoms: N_16  and  C_17
REMARK    7  A    between atoms: C_17  and  S_18
REMARK                            x       y       z     vdW  Elec       q    Type
REMARK                         _______ _______ _______ _____ _____    ______ ____
ROOT
ATOM      1  C   UNL     1       8.823   0.524  24.193  0.00  0.00    +0.000 C 
ATOM      2  C   UNL     1       7.750   0.214  25.240  0.00  0.00    +0.000 C 
ATOM      3  C   UNL     1       6.442  -0.034  24.505  0.00  0.00    +0.000 C 
ATOM      4  C   UNL     1       6.753  -1.130  23.412  0.00  0.00    +0.000 C 
ATOM      5  C   UNL     1       7.964  -1.233  22.808  0.00  0.00    +0.000 C 
ATOM      6  N   UNL     1       9.135  -0.726  23.498  0.00  0.00    +0.000 N 
ATOM      7  C   UNL     1       5.743  -2.306  23.731  0.00  0.00    +0.000 C 
ENDROOT
BRANCH   1   9
ATOM      8  C   UNL     1      10.428   2.055  23.876  0.00  0.00    +0.000 C 
ATOM      9  O   UNL     1       9.905   1.095  24.786  0.00  0.00    +0.000 OA
ENDBRANCH   1   9
BRANCH   6  10
ATOM     10  C   UNL     1       9.793  -1.699  24.219  0.00  0.00    +0.000 C 
ATOM     11  C   UNL     1       9.642  -3.072  24.017  0.00  0.00    +0.000 C 
BRANCH  11  12
ATOM     12  C   UNL     1       9.433  -4.025  25.198  0.00  0.00    +0.000 C 
BRANCH  12  13
ATOM     13  C   UNL     1       8.441  -5.083  24.669  0.00  0.00    +0.000 C 
ATOM     14  O   UNL     1       8.218  -5.101  23.461  0.00  0.00    +0.000 OA
ATOM     15  N   UNL     1       7.395  -5.288  25.518  0.00  0.00    +0.000 NA
ATOM     16  C   UNL     1       7.599  -5.096  26.941  0.00  0.00    +0.000 C 
ENDBRANCH  12  13
ENDBRANCH  11  12
ENDBRANCH   6  10
BRANCH   5  17
ATOM     17  N   UNL     1       8.358  -1.014  21.464  0.00  0.00    +0.000 NA
BRANCH  17  18
ATOM     18  C   UNL     1       8.146   0.297  20.909  0.00  0.00    +0.000 C 
BRANCH  18  19
ATOM     19  S   UNL     1       6.789   0.255  19.748  0.00  0.00    +0.000 S 
ATOM     20  O   UNL     1       5.968   1.405  20.007  0.00  0.00    +0.000 OA
ATOM     21  O   UNL     1       6.146  -1.022  19.895  0.00  0.00    +0.000 OA
ATOM     22  N   UNL     1       7.393   0.370  18.222  0.00  0.00    +0.000 NA
ENDBRANCH  18  19
ENDBRANCH  17  18
ENDBRANCH   5  17
TORSDOF 7
ENDMDL
MODEL 7
REMARK VINA RESULT:      -5.8      2.975      5.377
REMARK  Name = 
REMARK  7 active torsions:
REMARK  status: ('A' for Active; 'I' for Inactive)
REMARK    1  A    between atoms: O_2  and  C_3
REMARK    2  A    between atoms: C_7  and  N_16
REMARK    3  A    between atoms: N_8  and  C_9
REMARK    4  A    between atoms: C_10  and  C_11
REMARK    5  A    between atoms: C_11  and  C_12
REMARK    6  A    between atoms: N_16  and  C_17
REMARK    7  A    between atoms: C_17  and  S_18
REMARK                            x       y       z     vdW  Elec       q    Type
REMARK                         _______ _______ _______ _____ _____    ______ ____
ROOT
ATOM      1  C   UNL     1       7.639   0.958  21.498  0.00  0.00    +0.000 C 
ATOM      2  C   UNL     1       9.017   0.339  21.248  0.00  0.00    +0.000 C 
ATOM      3  C   UNL     1      10.037   1.142  22.041  0.00  0.00    +0.000 C 
ATOM      4  C   UNL     1       9.501   1.190  23.525  0.00  0.00    +0.000 C 
ATOM      5  C   UNL     1       8.177   1.192  23.821  0.00  0.00    +0.000 C 
ATOM      6  N   UNL     1       7.245   0.620  22.867  0.00  0.00    +0.000 N 
ATOM      7  C   UNL     1      10.671   0.567  24.389  0.00  0.00    +0.000 C 
ENDROOT
BRANCH   1   9
ATOM      8  C   UNL     1       7.499   0.210  19.390  0.00  0.00    +0.000 C 
ATOM      9  O   UNL     1       6.754   0.524  20.561  0.00  0.00    +0.000 OA
ENDBRANCH   1   9
BRANCH   6  10
ATOM     10  C   UNL     1       6.954  -0.701  23.129  0.00  0.00    +0.000 C 
ATOM     11  C   UNL     1       7.688  -1.516  23.993  0.00  0.00    +0.000 C 
BRANCH  11  12
ATOM     12  C   UNL     1       8.103  -2.932  23.581  0.00  0.00    +0.000 C 
BRANCH  12  13
ATOM     13  C   UNL     1       9.595  -3.024  23.966  0.00  0.00    +0.000 C 
ATOM     14  O   UNL     1      10.418  -2.583  23.169  0.00  0.00    +0.000 OA
ATOM     15  N   UNL     1       9.893  -4.181  24.623  0.00  0.00    +0.000 NA
ATOM     16  C   UNL     1       8.868  -4.812  25.432  0.00  0.00    +0.000 C 
ENDBRANCH  12  13
ENDBRANCH  11  12
ENDBRANCH   6  10
BRANCH   5  17
ATOM     17  N   UNL     1       7.352   2.188  24.402  0.00  0.00    +0.000 NA
BRANCH  17  18
ATOM     18  C   UNL     1       7.988   3.203  25.200  0.00  0.00    +0.000 C 
BRANCH  18  19
ATOM     19  S   UNL     1       8.279   4.662  24.210  0.00  0.00    +0.000 S 
ATOM     20  O   UNL     1       7.903   5.799  25.003  0.00  0.00    +0.000 OA
ATOM     21  O   UNL     1       7.560   4.488  22.979  0.00  0.00    +0.000 OA
ATOM     22  N   UNL     1       9.887   4.761  23.873  0.00  0.00    +0.000 NA
ENDBRANCH  18  19
ENDBRANCH  17  18
ENDBRANCH   5  17
TORSDOF 7
ENDMDL
MODEL 8
REMARK VINA RESULT:      -5.8      3.016      5.793
REMARK  Name = 
REMARK  7 active torsions:
REMARK  status: ('A' for Active; 'I' for Inactive)
REMARK    1  A    between atoms: O_2  and  C_3
REMARK    2  A    between atoms: C_7  and  N_16
REMARK    3  A    between atoms: N_8  and  C_9
REMARK    4  A    between atoms: C_10  and  C_11
REMARK    5  A    between atoms: C_11  and  C_12
REMARK    6  A    between atoms: N_16  and  C_17
REMARK    7  A    between atoms: C_17  and  S_18
REMARK                            x       y       z     vdW  Elec       q    Type
REMARK                         _______ _______ _______ _____ _____    ______ ____
ROOT
ATOM      1  C   UNL     1       7.136  -0.387  21.179  0.00  0.00    +0.000 C 
ATOM      2  C   UNL     1       8.564  -0.258  20.640  0.00  0.00    +0.000 C 
ATOM      3  C   UNL     1       9.319   0.698  21.550  0.00  0.00    +0.000 C 
ATOM      4  C   UNL     1       9.125   0.152  23.019  0.00  0.00    +0.000 C 
ATOM      5  C   UNL     1       8.000  -0.498  23.412  0.00  0.00    +0.000 C 
ATOM      6  N   UNL     1       7.199  -1.177  22.410  0.00  0.00    +0.000 N 
ATOM      7  C   UNL     1      10.596  -0.077  23.554  0.00  0.00    +0.000 C 
ENDROOT
BRANCH   1   9
ATOM      8  C   UNL     1       6.517  -0.186  19.035  0.00  0.00    +0.000 C 
ATOM      9  O   UNL     1       6.326  -0.930  20.232  0.00  0.00    +0.000 OA
ENDBRANCH   1   9
BRANCH   6  10
ATOM     10  C   UNL     1       7.518  -2.511  22.285  0.00  0.00    +0.000 C 
ATOM     11  C   UNL     1       7.096  -3.512  23.163  0.00  0.00    +0.000 C 
BRANCH  11  12
ATOM     12  C   UNL     1       8.080  -4.556  23.700  0.00  0.00    +0.000 C 
BRANCH  12  13
ATOM     13  C   UNL     1       9.012  -3.762  24.639  0.00  0.00    +0.000 C 
ATOM     14  O   UNL     1      10.056  -3.320  24.167  0.00  0.00    +0.000 OA
ATOM     15  N   UNL     1       9.046  -4.278  25.901  0.00  0.00    +0.000 NA
ATOM     16  C   UNL     1       7.873  -4.963  26.409  0.00  0.00    +0.000 C 
ENDBRANCH  12  13
ENDBRANCH  11  12
ENDBRANCH   6  10
BRANCH   5  17
ATOM     17  N   UNL     1       6.986  -0.135  24.332  0.00  0.00    +0.000 NA
BRANCH  17  18
ATOM     18  C   UNL     1       7.363   0.675  25.461  0.00  0.00    +0.000 C 
BRANCH  18  19
ATOM     19  S   UNL     1       7.649  -0.363  26.886  0.00  0.00    +0.000 S 
ATOM     20  O   UNL     1       7.374   0.428  28.053  0.00  0.00    +0.000 OA
ATOM     21  O   UNL     1       8.986  -0.876  26.775  0.00  0.00    +0.000 OA
ATOM     22  N   UNL     1       6.594  -1.626  26.842  0.00  0.00    +0.000 NA
ENDBRANCH  18  19
ENDBRANCH  17  18
ENDBRANCH   5  17
TORSDOF 7
ENDMDL
MODEL 9
REMARK VINA RESULT:      -5.8      2.727      5.184
REMARK  Name = 
REMARK  7 active torsions:
REMARK  status: ('A' for Active; 'I' for Inactive)
REMARK    1  A    between atoms: O_2  and  C_3
REMARK    2  A    between atoms: C_7  and  N_16
REMARK    3  A    between atoms: N_8  and  C_9
REMARK    4  A    between atoms: C_10  and  C_11
REMARK    5  A    between atoms: C_11  and  C_12
REMARK    6  A    between atoms: N_16  and  C_17
REMARK    7  A    between atoms: C_17  and  S_18
REMARK                            x       y       z     vdW  Elec       q    Type
REMARK                         _______ _______ _______ _____ _____    ______ ____
ROOT
ATOM      1  C   UNL     1       8.304   0.307  21.093  0.00  0.00    +0.000 C 
ATOM      2  C   UNL     1       9.739  -0.001  21.531  0.00  0.00    +0.000 C 
ATOM      3  C   UNL     1      10.013   0.782  22.806  0.00  0.00    +0.000 C 
ATOM      4  C   UNL     1       8.839   0.428  23.801  0.00  0.00    +0.000 C 
ATOM      5  C   UNL     1       7.583   0.142  23.373  0.00  0.00    +0.000 C 
ATOM      6  N   UNL     1       7.402  -0.369  22.027  0.00  0.00    +0.000 N 
ATOM      7  C   UNL     1       9.565  -0.152  25.082  0.00  0.00    +0.000 C 
ENDROOT
BRANCH   1   9
ATOM      8  C   UNL     1       6.975   0.627  19.318  0.00  0.00    +0.000 C 
ATOM      9  O   UNL     1       8.120  -0.067  19.799  0.00  0.00    +0.000 OA
ENDBRANCH   1   9
BRANCH   6  10
ATOM     10  C   UNL     1       7.366  -1.746  21.978  0.00  0.00    +0.000 C 
ATOM     11  C   UNL     1       6.259  -2.495  21.573  0.00  0.00    +0.000 C 
BRANCH  11  12
ATOM     12  C   UNL     1       5.783  -3.703  22.385  0.00  0.00    +0.000 C 
BRANCH  12  13
ATOM     13  C   UNL     1       6.471  -4.912  21.716  0.00  0.00    +0.000 C 
ATOM     14  O   UNL     1       5.870  -5.480  20.809  0.00  0.00    +0.000 OA
ATOM     15  N   UNL     1       7.161  -5.680  22.608  0.00  0.00    +0.000 NA
ATOM     16  C   UNL     1       7.729  -5.049  23.783  0.00  0.00    +0.000 C 
ENDBRANCH  12  13
ENDBRANCH  11  12
ENDBRANCH   6  10
BRANCH   5  17
ATOM     17  N   UNL     1       6.360   0.839  23.536  0.00  0.00    +0.000 NA
BRANCH  17  18
ATOM     18  C   UNL     1       6.423   2.205  23.988  0.00  0.00    +0.000 C 
BRANCH  18  19
ATOM     19  S   UNL     1       6.331   3.314  22.591  0.00  0.00    +0.000 S 
ATOM     20  O   UNL     1       5.448   2.718  21.628  0.00  0.00    +0.000 OA
ATOM     21  O   UNL     1       7.678   3.548  22.148  0.00  0.00    +0.000 OA
ATOM     22  N   UNL     1       5.684   4.743  23.090  0.00  0.00    +0.000 NA
ENDBRANCH  18  19
ENDBRANCH  17  18
ENDBRANCH   5  17
TORSDOF 7
ENDMDL
