MODEL 1
REMARK VINA RESULT:      -6.7      0.000      0.000
REMARK  Name = 
REMARK  4 active torsions:
REMARK  status: ('A' for Active; 'I' for Inactive)
REMARK    1  A    between atoms: C_5  and  C_11
REMARK    2  A    between atoms: C_5  and  C_14
REMARK    3  A    between atoms: C_6  and  C_8
REMARK    4  A    between atoms: C_14  and  C_16
REMARK                            x       y       z     vdW  Elec       q    Type
REMARK                         _______ _______ _______ _____ _____    ______ ____
ROOT
ATOM      1  O   UNL     1       9.254   3.792  23.301  0.00  0.00    +0.000 OA
ATOM      2  C   UNL     1       9.598   2.457  23.318  0.00  0.00    +0.000 C 
ATOM      3  C   UNL     1      10.104   1.761  22.241  0.00  0.00    +0.000 C 
ATOM      4  C   UNL     1       9.496   0.418  21.582  0.00  0.00    +0.000 C 
ATOM      5  C   UNL     1       8.890  -0.173  22.930  0.00  0.00    +0.000 C 
ATOM      6  C   UNL     1       8.858   0.438  24.203  0.00  0.00    +0.000 C 
ATOM      7  C   UNL     1       9.254   1.820  24.770  0.00  0.00    +0.000 C 
ENDROOT
BRANCH   6   8
ATOM      8  C   UNL     1       7.876  -0.158  25.126  0.00  0.00    +0.000 C 
ATOM      9  O   UNL     1       6.686   0.091  25.124  0.00  0.00    +0.000 OA
ATOM     10  O   UNL     1       8.504  -0.455  26.276  0.00  0.00    +0.000 OA
ENDBRANCH   6   8
BRANCH   5  11
ATOM     11  C   UNL     1       9.592  -1.551  23.033  0.00  0.00    +0.000 C 
ATOM     12  O   UNL     1       9.987  -1.917  24.130  0.00  0.00    +0.000 OA
ATOM     13  O   UNL     1      10.417  -1.633  21.976  0.00  0.00    +0.000 OA
ENDBRANCH   5  11
BRANCH   5  14
ATOM     14  C   UNL     1       7.445  -0.560  22.402  0.00  0.00    +0.000 C 
ATOM     15  C   UNL     1       7.530  -1.961  21.876  0.00  0.00    +0.000 C 
BRANCH  14  16
ATOM     16  C   UNL     1       7.237   0.418  21.245  0.00  0.00    +0.000 C 
ATOM     17  C   UNL     1       6.391   1.551  21.179  0.00  0.00    +0.000 C 
ATOM     18  O   UNL     1       6.656   2.915  21.532  0.00  0.00    +0.000 OA
ATOM     19  C   UNL     1       5.652   1.612  19.727  0.00  0.00    +0.000 C 
ATOM     20  C   UNL     1       6.411   0.491  19.007  0.00  0.00    +0.000 C 
ATOM     21  C   UNL     1       7.222  -0.307  19.878  0.00  0.00    +0.000 C 
ATOM     22  O   UNL     1       6.180   0.247  17.716  0.00  0.00    +0.000 OA
ENDBRANCH  14  16
ENDBRANCH   5  14
TORSDOF 4
ENDMDL
MODEL 2
REMARK VINA RESULT:      -6.5      1.717      3.579
REMARK  Name = 
REMARK  4 active torsions:
REMARK  status: ('A' for Active; 'I' for Inactive)
REMARK    1  A    between atoms: C_5  and  C_11
REMARK    2  A    between atoms: C_5  and  C_14
REMARK    3  A    between atoms: C_6  and  C_8
REMARK    4  A    between atoms: C_14  and  C_16
REMARK                            x       y       z     vdW  Elec       q    Type
REMARK                         _______ _______ _______ _____ _____    ______ ____
ROOT
ATOM      1  O   UNL     1       5.417  -2.079  24.288  0.00  0.00    +0.000 OA
ATOM      2  C   UNL     1       6.535  -1.308  24.522  0.00  0.00    +0.000 C 
ATOM      3  C   UNL     1       6.536   0.068  24.613  0.00  0.00    +0.000 C 
ATOM      4  C   UNL     1       7.416   1.097  23.734  0.00  0.00    +0.000 C 
ATOM      5  C   UNL     1       8.664   0.130  23.539  0.00  0.00    +0.000 C 
ATOM      6  C   UNL     1       8.787  -1.215  23.951  0.00  0.00    +0.000 C 
ATOM      7  C   UNL     1       7.849  -2.255  24.603  0.00  0.00    +0.000 C 
ENDROOT
BRANCH   6   8
ATOM      8  C   UNL     1       9.863  -1.953  23.266  0.00  0.00    +0.000 C 
ATOM      9  O   UNL     1      10.044  -1.953  22.063  0.00  0.00    +0.000 OA
ATOM     10  O   UNL     1      10.158  -3.042  23.995  0.00  0.00    +0.000 OA
ENDBRANCH   6   8
BRANCH   5  11
ATOM     11  C   UNL     1       9.827   0.964  24.135  0.00  0.00    +0.000 C 
ATOM     12  O   UNL     1      10.765   0.367  24.640  0.00  0.00    +0.000 OA
ATOM     13  O   UNL     1       9.257   1.980  24.804  0.00  0.00    +0.000 OA
ENDBRANCH   5  11
BRANCH   5  14
ATOM     14  C   UNL     1       8.875   0.312  21.977  0.00  0.00    +0.000 C 
ATOM     15  C   UNL     1       9.282   1.737  21.751  0.00  0.00    +0.000 C 
BRANCH  14  16
ATOM     16  C   UNL     1       7.471   0.078  21.419  0.00  0.00    +0.000 C 
ATOM     17  C   UNL     1       6.949  -1.070  20.775  0.00  0.00    +0.000 C 
ATOM     18  O   UNL     1       6.299  -2.219  21.334  0.00  0.00    +0.000 OA
ATOM     19  C   UNL     1       6.033  -0.627  19.501  0.00  0.00    +0.000 C 
ATOM     20  C   UNL     1       5.988   0.888  19.733  0.00  0.00    +0.000 C 
ATOM     21  C   UNL     1       6.909   1.346  20.731  0.00  0.00    +0.000 C 
ATOM     22  O   UNL     1       5.244   1.665  18.944  0.00  0.00    +0.000 OA
ENDBRANCH  14  16
ENDBRANCH   5  14
TORSDOF 4
ENDMDL
MODEL 3
REMARK VINA RESULT:      -6.4      1.933      4.643
REMARK  Name = 
REMARK  4 active torsions:
REMARK  status: ('A' for Active; 'I' for Inactive)
REMARK    1  A    between atoms: C_5  and  C_11
REMARK    2  A    between atoms: C_5  and  C_14
REMARK    3  A    between atoms: C_6  and  C_8
REMARK    4  A    between atoms: C_14  and  C_16
REMARK                            x       y       z     vdW  Elec       q    Type
REMARK                         _______ _______ _______ _____ _____    ______ ____
ROOT
ATOM      1  O   UNL     1       6.665  -0.878  20.277  0.00  0.00    +0.000 OA
ATOM      2  C   UNL     1       7.562   0.023  20.808  0.00  0.00    +0.000 C 
ATOM      3  C   UNL     1       8.931  -0.143  20.820  0.00  0.00    +0.000 C 
ATOM      4  C   UNL     1       9.898  -0.124  22.112  0.00  0.00    +0.000 C 
ATOM      5  C   UNL     1       9.033   0.910  22.958  0.00  0.00    +0.000 C 
ATOM      6  C   UNL     1       7.779   1.464  22.620  0.00  0.00    +0.000 C 
ATOM      7  C   UNL     1       6.762   1.268  21.474  0.00  0.00    +0.000 C 
ENDROOT
BRANCH   6   8
ATOM      8  C   UNL     1       7.053   2.038  23.767  0.00  0.00    +0.000 C 
ATOM      9  O   UNL     1       6.295   1.416  24.487  0.00  0.00    +0.000 OA
ATOM     10  O   UNL     1       6.835   3.341  23.520  0.00  0.00    +0.000 OA
ENDBRANCH   6   8
BRANCH   5  11
ATOM     11  C   UNL     1      10.049   2.049  23.230  0.00  0.00    +0.000 C 
ATOM     12  O   UNL     1       9.764   2.885  24.073  0.00  0.00    +0.000 OA
ATOM     13  O   UNL     1      10.494   2.451  22.028  0.00  0.00    +0.000 OA
ENDBRANCH   5  11
BRANCH   5  14
ATOM     14  C   UNL     1       9.005   0.134  24.341  0.00  0.00    +0.000 C 
ATOM     15  C   UNL     1      10.419   0.066  24.835  0.00  0.00    +0.000 C 
BRANCH  14  16
ATOM     16  C   UNL     1       8.528  -1.260  23.936  0.00  0.00    +0.000 C 
ATOM     17  C   UNL     1       7.268  -1.868  24.153  0.00  0.00    +0.000 C 
ATOM     18  O   UNL     1       6.089  -1.851  23.337  0.00  0.00    +0.000 OA
ATOM     19  C   UNL     1       7.468  -3.424  24.598  0.00  0.00    +0.000 C 
ATOM     20  C   UNL     1       8.975  -3.567  24.356  0.00  0.00    +0.000 C 
ATOM     21  C   UNL     1       9.641  -2.321  24.115  0.00  0.00    +0.000 C 
ATOM     22  O   UNL     1       9.570  -4.751  24.515  0.00  0.00    +0.000 OA
ENDBRANCH  14  16
ENDBRANCH   5  14
TORSDOF 4
ENDMDL
MODEL 4
REMARK VINA RESULT:      -6.4      1.549      1.758
REMARK  Name = 
REMARK  4 active torsions:
REMARK  status: ('A' for Active; 'I' for Inactive)
REMARK    1  A    between atoms: C_5  and  C_11
REMARK    2  A    between atoms: C_5  and  C_14
REMARK    3  A    between atoms: C_6  and  C_8
REMARK    4  A    between atoms: C_14  and  C_16
REMARK                            x       y       z     vdW  Elec       q    Type
REMARK                         _______ _______ _______ _____ _____    ______ ____
ROOT
ATOM      1  O   UNL     1      10.560   1.852  23.841  0.00  0.00    +0.000 OA
ATOM      2  C   UNL     1      10.314   0.514  24.061  0.00  0.00    +0.000 C 
ATOM      3  C   UNL     1      10.689  -0.505  23.212  0.00  0.00    +0.000 C 
ATOM      4  C   UNL     1       9.725  -1.612  22.541  0.00  0.00    +0.000 C 
ATOM      5  C   UNL     1       8.677  -1.674  23.737  0.00  0.00    +0.000 C 
ATOM      6  C   UNL     1       8.650  -0.876  24.902  0.00  0.00    +0.000 C 
ATOM      7  C   UNL     1       9.459   0.330  25.428  0.00  0.00    +0.000 C 
ENDROOT
BRANCH   6   8
ATOM      8  C   UNL     1       7.349  -0.877  25.594  0.00  0.00    +0.000 C 
ATOM      9  O   UNL     1       6.417  -0.147  25.315  0.00  0.00    +0.000 OA
ATOM     10  O   UNL     1       7.548  -1.266  26.865  0.00  0.00    +0.000 OA
ENDBRANCH   6   8
BRANCH   5  11
ATOM     11  C   UNL     1       8.714  -3.172  24.134  0.00  0.00    +0.000 C 
ATOM     12  O   UNL     1       7.941  -3.559  24.997  0.00  0.00    +0.000 OA
ATOM     13  O   UNL     1      10.012  -3.508  24.216  0.00  0.00    +0.000 OA
ENDBRANCH   5  11
BRANCH   5  14
ATOM     14  C   UNL     1       7.336  -1.573  22.896  0.00  0.00    +0.000 C 
ATOM     15  C   UNL     1       7.258  -2.803  22.044  0.00  0.00    +0.000 C 
BRANCH  14  16
ATOM     16  C   UNL     1       7.582  -0.346  22.017  0.00  0.00    +0.000 C 
ATOM     17  C   UNL     1       6.994   0.939  22.098  0.00  0.00    +0.000 C 
ATOM     18  O   UNL     1       7.412   2.094  22.838  0.00  0.00    +0.000 OA
ATOM     19  C   UNL     1       6.635   1.484  20.604  0.00  0.00    +0.000 C 
ATOM     20  C   UNL     1       7.324   0.401  19.765  0.00  0.00    +0.000 C 
ATOM     21  C   UNL     1       7.753  -0.734  20.528  0.00  0.00    +0.000 C 
ATOM     22  O   UNL     1       7.358   0.504  18.435  0.00  0.00    +0.000 OA
ENDBRANCH  14  16
ENDBRANCH   5  14
TORSDOF 4
ENDMDL
MODEL 5
REMARK VINA RESULT:      -6.3      3.817      6.706
REMARK  Name = 
REMARK  4 active torsions:
REMARK  status: ('A' for Active; 'I' for Inactive)
REMARK    1  A    between atoms: C_5  and  C_11
REMARK    2  A    between atoms: C_5  and  C_14
REMARK    3  A    between atoms: C_6  and  C_8
REMARK    4  A    between atoms: C_14  and  C_16
REMARK                            x       y       z     vdW  Elec       q    Type
REMARK                         _______ _______ _______ _____ _____    ______ ____
ROOT
ATOM      1  O   UNL     1       5.188  -4.754  21.610  0.00  0.00    +0.000 OA
ATOM      2  C   UNL     1       6.395  -4.206  21.987  0.00  0.00    +0.000 C 
ATOM      3  C   UNL     1       7.424  -4.904  22.582  0.00  0.00    +0.000 C 
ATOM      4  C   UNL     1       8.134  -4.571  23.993  0.00  0.00    +0.000 C 
ATOM      5  C   UNL     1       7.944  -2.993  23.911  0.00  0.00    +0.000 C 
ATOM      6  C   UNL     1       7.251  -2.257  22.923  0.00  0.00    +0.000 C 
ATOM      7  C   UNL     1       6.391  -2.611  21.691  0.00  0.00    +0.000 C 
ENDROOT
BRANCH   6   8
ATOM      8  C   UNL     1       6.893  -0.890  23.341  0.00  0.00    +0.000 C 
ATOM      9  O   UNL     1       6.015  -0.618  24.137  0.00  0.00    +0.000 OA
ATOM     10  O   UNL     1       7.170  -0.053  22.326  0.00  0.00    +0.000 OA
ENDBRANCH   6   8
BRANCH   5  11
ATOM     11  C   UNL     1       9.401  -2.476  24.018  0.00  0.00    +0.000 C 
ATOM     12  O   UNL     1       9.770  -1.623  23.225  0.00  0.00    +0.000 OA
ATOM     13  O   UNL     1      10.170  -3.559  24.224  0.00  0.00    +0.000 OA
ENDBRANCH   5  11
BRANCH   5  14
ATOM     14  C   UNL     1       7.379  -2.736  25.371  0.00  0.00    +0.000 C 
ATOM     15  C   UNL     1       8.553  -2.417  26.246  0.00  0.00    +0.000 C 
BRANCH  14  16
ATOM     16  C   UNL     1       6.801  -4.099  25.753  0.00  0.00    +0.000 C 
ATOM     17  C   UNL     1       5.447  -4.503  25.826  0.00  0.00    +0.000 C 
ATOM     18  O   UNL     1       4.602  -5.068  24.813  0.00  0.00    +0.000 OA
ATOM     19  C   UNL     1       5.207  -5.419  27.153  0.00  0.00    +0.000 C 
ATOM     20  C   UNL     1       6.662  -5.600  27.604  0.00  0.00    +0.000 C 
ATOM     21  C   UNL     1       7.588  -4.749  26.917  0.00  0.00    +0.000 C 
ATOM     22  O   UNL     1       6.949  -6.386  28.643  0.00  0.00    +0.000 OA
ENDBRANCH  14  16
ENDBRANCH   5  14
TORSDOF 4
ENDMDL
MODEL 6
REMARK VINA RESULT:      -6.2      3.496      6.055
REMARK  Name = 
REMARK  4 active torsions:
REMARK  status: ('A' for Active; 'I' for Inactive)
REMARK    1  A    between atoms: C_5  and  C_11
REMARK    2  A    between atoms: C_5  and  C_14
REMARK    3  A    between atoms: C_6  and  C_8
REMARK    4  A    between atoms: C_14  and  C_16
REMARK                            x       y       z     vdW  Elec       q    Type
REMARK                         _______ _______ _______ _____ _____    ______ ____
ROOT
ATOM      1  O   UNL     1       7.832  -4.906  27.215  0.00  0.00    +0.000 OA
ATOM      2  C   UNL     1       7.429  -5.023  25.901  0.00  0.00    +0.000 C 
ATOM      3  C   UNL     1       8.283  -5.123  24.824  0.00  0.00    +0.000 C 
ATOM      4  C   UNL     1       8.325  -4.160  23.528  0.00  0.00    +0.000 C 
ATOM      5  C   UNL     1       6.770  -3.825  23.514  0.00  0.00    +0.000 C 
ATOM      6  C   UNL     1       5.795  -4.212  24.460  0.00  0.00    +0.000 C 
ATOM      7  C   UNL     1       5.811  -4.954  25.814  0.00  0.00    +0.000 C 
ENDROOT
BRANCH   6   8
ATOM      8  C   UNL     1       4.560  -3.410  24.406  0.00  0.00    +0.000 C 
ATOM      9  O   UNL     1       4.331  -2.445  25.110  0.00  0.00    +0.000 OA
ATOM     10  O   UNL     1       3.557  -4.207  24.000  0.00  0.00    +0.000 OA
ENDBRANCH   6   8
BRANCH   5  11
ATOM     11  C   UNL     1       6.340  -4.297  22.102  0.00  0.00    +0.000 C 
ATOM     12  O   UNL     1       5.413  -3.718  21.557  0.00  0.00    +0.000 OA
ATOM     13  O   UNL     1       6.347  -5.640  22.137  0.00  0.00    +0.000 OA
ENDBRANCH   5  11
BRANCH   5  14
ATOM     14  C   UNL     1       6.859  -2.250  23.339  0.00  0.00    +0.000 C 
ATOM     15  C   UNL     1       7.569  -1.992  22.044  0.00  0.00    +0.000 C 
BRANCH  14  16
ATOM     16  C   UNL     1       7.746  -1.831  24.511  0.00  0.00    +0.000 C 
ATOM     17  C   UNL     1       7.382  -1.185  25.716  0.00  0.00    +0.000 C 
ATOM     18  O   UNL     1       6.972  -1.746  26.971  0.00  0.00    +0.000 OA
ATOM     19  C   UNL     1       8.481  -0.040  26.090  0.00  0.00    +0.000 C 
ATOM     20  C   UNL     1       9.548  -0.356  25.036  0.00  0.00    +0.000 C 
ATOM     21  C   UNL     1       9.108  -1.276  24.028  0.00  0.00    +0.000 C 
ATOM     22  O   UNL     1      10.706   0.307  25.034  0.00  0.00    +0.000 OA
ENDBRANCH  14  16
ENDBRANCH   5  14
TORSDOF 4
ENDMDL
MODEL 7
REMARK VINA RESULT:      -6.1      1.750      4.689
REMARK  Name = 
REMARK  4 active torsions:
REMARK  status: ('A' for Active; 'I' for Inactive)
REMARK    1  A    between atoms: C_5  and  C_11
REMARK    2  A    between atoms: C_5  and  C_14
REMARK    3  A    between atoms: C_6  and  C_8
REMARK    4  A    between atoms: C_14  and  C_16
REMARK                            x       y       z     vdW  Elec       q    Type
REMARK                         _______ _______ _______ _____ _____    ______ ____
ROOT
ATOM      1  O   UNL     1      10.437  -2.027  23.595  0.00  0.00    +0.000 OA
ATOM      2  C   UNL     1       9.653  -1.749  22.496  0.00  0.00    +0.000 C 
ATOM      3  C   UNL     1       9.877  -0.714  21.613  0.00  0.00    +0.000 C 
ATOM      4  C   UNL     1       8.845   0.462  21.217  0.00  0.00    +0.000 C 
ATOM      5  C   UNL     1       7.522  -0.406  21.389  0.00  0.00    +0.000 C 
ATOM      6  C   UNL     1       7.417  -1.734  21.860  0.00  0.00    +0.000 C 
ATOM      7  C   UNL     1       8.398  -2.775  22.442  0.00  0.00    +0.000 C 
ENDROOT
BRANCH   6   8
ATOM      8  C   UNL     1       6.061  -2.103  22.302  0.00  0.00    +0.000 C 
ATOM      9  O   UNL     1       5.660  -2.022  23.448  0.00  0.00    +0.000 OA
ATOM     10  O   UNL     1       5.602  -3.072  21.492  0.00  0.00    +0.000 OA
ENDBRANCH   6   8
BRANCH   5  11
ATOM     11  C   UNL     1       6.869  -0.299  19.988  0.00  0.00    +0.000 C 
ATOM     12  O   UNL     1       6.017  -1.120  19.685  0.00  0.00    +0.000 OA
ATOM     13  O   UNL     1       7.866  -0.036  19.127  0.00  0.00    +0.000 OA
ENDBRANCH   5  11
BRANCH   5  14
ATOM     14  C   UNL     1       6.667   0.616  22.249  0.00  0.00    +0.000 C 
ATOM     15  C   UNL     1       6.436   1.825  21.393  0.00  0.00    +0.000 C 
BRANCH  14  16
ATOM     16  C   UNL     1       7.613   0.966  23.397  0.00  0.00    +0.000 C 
ATOM     17  C   UNL     1       7.569   0.543  24.748  0.00  0.00    +0.000 C 
ATOM     18  O   UNL     1       8.159  -0.607  25.369  0.00  0.00    +0.000 OA
ATOM     19  C   UNL     1       7.909   1.795  25.736  0.00  0.00    +0.000 C 
ATOM     20  C   UNL     1       8.345   2.831  24.694  0.00  0.00    +0.000 C 
ATOM     21  C   UNL     1       8.057   2.448  23.343  0.00  0.00    +0.000 C 
ATOM     22  O   UNL     1       8.809   4.020  25.084  0.00  0.00    +0.000 OA
ENDBRANCH  14  16
ENDBRANCH   5  14
TORSDOF 4
ENDMDL
MODEL 8
REMARK VINA RESULT:      -6.1      3.385      5.764
REMARK  Name = 
REMARK  4 active torsions:
REMARK  status: ('A' for Active; 'I' for Inactive)
REMARK    1  A    between atoms: C_5  and  C_11
REMARK    2  A    between atoms: C_5  and  C_14
REMARK    3  A    between atoms: C_6  and  C_8
REMARK    4  A    between atoms: C_14  and  C_16
REMARK                            x       y       z     vdW  Elec       q    Type
REMARK                         _______ _______ _______ _____ _____    ______ ____
ROOT
ATOM      1  O   UNL     1       5.921  -3.898  21.217  0.00  0.00    +0.000 OA
ATOM      2  C   UNL     1       5.994  -4.352  22.517  0.00  0.00    +0.000 C 
ATOM      3  C   UNL     1       5.013  -4.173  23.469  0.00  0.00    +0.000 C 
ATOM      4  C   UNL     1       5.179  -3.471  24.913  0.00  0.00    +0.000 C 
ATOM      5  C   UNL     1       6.693  -3.907  25.141  0.00  0.00    +0.000 C 
ATOM      6  C   UNL     1       7.541  -4.585  24.238  0.00  0.00    +0.000 C 
ATOM      7  C   UNL     1       7.431  -5.060  22.772  0.00  0.00    +0.000 C 
ENDROOT
BRANCH   6   8
ATOM      8  C   UNL     1       8.973  -4.468  24.563  0.00  0.00    +0.000 C 
ATOM      9  O   UNL     1       9.717  -3.617  24.115  0.00  0.00    +0.000 OA
ATOM     10  O   UNL     1       9.442  -5.694  24.850  0.00  0.00    +0.000 OA
ENDBRANCH   6   8
BRANCH   5  11
ATOM     11  C   UNL     1       6.614  -4.696  26.473  0.00  0.00    +0.000 C 
ATOM     12  O   UNL     1       7.559  -4.623  27.243  0.00  0.00    +0.000 OA
ATOM     13  O   UNL     1       6.107  -5.902  26.166  0.00  0.00    +0.000 OA
ENDBRANCH   5  11
BRANCH   5  14
ATOM     14  C   UNL     1       7.285  -2.510  25.603  0.00  0.00    +0.000 C 
ATOM     15  C   UNL     1       6.541  -2.104  26.839  0.00  0.00    +0.000 C 
BRANCH  14  16
ATOM     16  C   UNL     1       6.910  -1.586  24.444  0.00  0.00    +0.000 C 
ATOM     17  C   UNL     1       7.730  -1.082  23.406  0.00  0.00    +0.000 C 
ATOM     18  O   UNL     1       8.023  -1.638  22.117  0.00  0.00    +0.000 OA
ATOM     19  C   UNL     1       7.386   0.489  23.135  0.00  0.00    +0.000 C 
ATOM     20  C   UNL     1       6.140   0.633  24.017  0.00  0.00    +0.000 C 
ATOM     21  C   UNL     1       5.918  -0.484  24.888  0.00  0.00    +0.000 C 
ATOM     22  O   UNL     1       5.454   1.778  24.028  0.00  0.00    +0.000 OA
ENDBRANCH  14  16
ENDBRANCH   5  14
TORSDOF 4
ENDMDL
MODEL 9
REMARK VINA RESULT:      -6.1      1.827      3.839
REMARK  Name = 
REMARK  4 active torsions:
REMARK  status: ('A' for Active; 'I' for Inactive)
REMARK    1  A    between atoms: C_5  and  C_11
REMARK    2  A    between atoms: C_5  and  C_14
REMARK    3  A    between atoms: C_6  and  C_8
REMARK    4  A    between atoms: C_14  and  C_16
REMARK                            x       y       z     vdW  Elec       q    Type
REMARK                         _______ _______ _______ _____ _____    ______ ____
ROOT
ATOM      1  O   UNL     1       6.987  -2.523  23.371  0.00  0.00    +0.000 OA
ATOM      2  C   UNL     1       7.185  -1.330  24.032  0.00  0.00    +0.000 C 
ATOM      3  C   UNL     1       6.209  -0.382  24.253  0.00  0.00    +0.000 C 
ATOM      4  C   UNL     1       6.248   1.171  23.815  0.00  0.00    +0.000 C 
ATOM      5  C   UNL     1       7.825   1.345  23.943  0.00  0.00    +0.000 C 
ATOM      6  C   UNL     1       8.782   0.348  24.238  0.00  0.00    +0.000 C 
ATOM      7  C   UNL     1       8.748  -1.182  24.443  0.00  0.00    +0.000 C 
ENDROOT
BRANCH   6   8
ATOM      8  C   UNL     1      10.160   0.719  23.873  0.00  0.00    +0.000 C 
ATOM      9  O   UNL     1      10.671   0.500  22.791  0.00  0.00    +0.000 OA
ATOM     10  O   UNL     1      10.908   0.714  24.989  0.00  0.00    +0.000 OA
ENDBRANCH   6   8
BRANCH   5  11
ATOM     11  C   UNL     1       7.949   2.504  24.965  0.00  0.00    +0.000 C 
ATOM     12  O   UNL     1       8.895   3.269  24.856  0.00  0.00    +0.000 OA
ATOM     13  O   UNL     1       7.665   1.977  26.168  0.00  0.00    +0.000 OA
ENDBRANCH   5  11
BRANCH   5  14
ATOM     14  C   UNL     1       8.106   2.071  22.561  0.00  0.00    +0.000 C 
ATOM     15  C   UNL     1       7.321   3.348  22.568  0.00  0.00    +0.000 C 
BRANCH  14  16
ATOM     16  C   UNL     1       7.511   1.100  21.543  0.00  0.00    +0.000 C 
ATOM     17  C   UNL     1       8.177   0.219  20.657  0.00  0.00    +0.000 C 
ATOM     18  O   UNL     1       8.593  -1.139  20.854  0.00  0.00    +0.000 OA
ATOM     19  C   UNL     1       7.455   0.245  19.195  0.00  0.00    +0.000 C 
ATOM     20  C   UNL     1       6.216   1.080  19.538  0.00  0.00    +0.000 C 
ATOM     21  C   UNL     1       6.279   1.705  20.826  0.00  0.00    +0.000 C 
ATOM     22  O   UNL     1       5.269   1.283  18.619  0.00  0.00    +0.000 OA
ENDBRANCH  14  16
ENDBRANCH   5  14
TORSDOF 4
ENDMDL
