MODEL 1
REMARK VINA RESULT:      -9.2      0.000      0.000
REMARK  Name = 
REMARK  2 active torsions:
REMARK  status: ('A' for Active; 'I' for Inactive)
REMARK    1  A    between atoms: C_8  and  C_9
REMARK    2  A    between atoms: C_9  and  S_10
REMARK                            x       y       z     vdW  Elec       q    Type
REMARK                         _______ _______ _______ _____ _____    ______ ____
ROOT
ATOM      1  F   UNL     1       7.827   4.293  23.047  0.00  0.00    +0.000 F 
ATOM      2  C   UNL     1       8.033   2.956  23.270  0.00  0.00    +0.000 C 
ATOM      3  C   UNL     1       9.367   2.723  23.403  0.00  0.00    +0.000 C 
ATOM      4  C   UNL     1      10.291   1.760  22.506  0.00  0.00    +0.000 C 
ATOM      5  C   UNL     1       9.250   1.150  21.650  0.00  0.00    +0.000 C 
ATOM      6  C   UNL     1       7.880   1.621  21.330  0.00  0.00    +0.000 C 
ATOM      7  C   UNL     1       6.908   2.178  22.385  0.00  0.00    +0.000 C 
ATOM      8  C   UNL     1       7.234   0.339  20.680  0.00  0.00    +0.000 C 
ATOM      9  C   UNL     1       7.981  -0.776  21.569  0.00  0.00    +0.000 C 
ATOM     10  C   UNL     1       7.712  -1.602  22.650  0.00  0.00    +0.000 C 
ATOM     11  C   UNL     1       7.618  -3.220  22.341  0.00  0.00    +0.000 C 
ATOM     12  C   UNL     1       7.899  -3.832  23.669  0.00  0.00    +0.000 C 
ATOM     13  C   UNL     1       7.057  -3.328  24.756  0.00  0.00    +0.000 C 
ATOM     14  C   UNL     1       5.753  -2.542  23.639  0.00  0.00    +0.000 C 
ATOM     15  C   UNL     1       6.741  -1.408  23.805  0.00  0.00    +0.000 C 
ATOM     16  C   UNL     1       6.534   0.043  23.913  0.00  0.00    +0.000 C 
ATOM     17  N   UNL     1       7.978   0.566  23.951  0.00  0.00    +0.000 NA
ATOM     18  C   UNL     1       6.038   0.509  25.290  0.00  0.00    +0.000 C 
ATOM     19  C   UNL     1       7.150   0.247  26.316  0.00  0.00    +0.000 C 
ATOM     20  C   UNL     1       8.012  -0.989  25.910  0.00  0.00    +0.000 C 
ATOM     21  C   UNL     1       7.235  -1.954  25.188  0.00  0.00    +0.000 C 
ATOM     22  C   UNL     1       6.143  -4.248  25.407  0.00  0.00    +0.000 C 
ATOM     23  N   UNL     1       9.392  -0.221  21.403  0.00  0.00    +0.000 NA
ENDROOT
BRANCH   8  24
ATOM     24  C   UNL     1       7.618   0.238  19.276  0.00  0.00    +0.000 C 
BRANCH  24  25
ATOM     25  S   UNL     1       6.218   0.454  18.209  0.00  0.00    +0.000 S 
ATOM     26  O   UNL     1       5.847  -0.853  17.700  0.00  0.00    +0.000 OA
ATOM     27  O   UNL     1       6.529   1.415  17.185  0.00  0.00    +0.000 OA
ATOM     28  N   UNL     1       4.931   1.038  19.067  0.00  0.00    +0.000 NA
ENDBRANCH  24  25
ENDBRANCH   8  24
TORSDOF 2
ENDMDL
MODEL 2
REMARK VINA RESULT:      -8.6      1.693      2.189
REMARK  Name = 
REMARK  2 active torsions:
REMARK  status: ('A' for Active; 'I' for Inactive)
REMARK    1  A    between atoms: C_8  and  C_9
REMARK    2  A    between atoms: C_9  and  S_10
REMARK                            x       y       z     vdW  Elec       q    Type
REMARK                         _______ _______ _______ _____ _____    ______ ____
ROOT
ATOM      1  F   UNL     1       8.404   1.963  25.422  0.00  0.00    +0.000 F 
ATOM      2  C   UNL     1       8.364   0.641  25.061  0.00  0.00    +0.000 C 
ATOM      3  C   UNL     1       9.623   0.124  25.105  0.00  0.00    +0.000 C 
ATOM      4  C   UNL     1      10.456  -0.538  23.901  0.00  0.00    +0.000 C 
ATOM      5  C   UNL     1       9.416  -0.530  22.850  0.00  0.00    +0.000 C 
ATOM      6  C   UNL     1       8.179   0.282  22.736  0.00  0.00    +0.000 C 
ATOM      7  C   UNL     1       7.216   0.527  23.911  0.00  0.00    +0.000 C 
ATOM      8  C   UNL     1       7.396  -0.469  21.592  0.00  0.00    +0.000 C 
ATOM      9  C   UNL     1       7.860  -1.971  21.938  0.00  0.00    +0.000 C 
ATOM     10  C   UNL     1       7.357  -3.103  22.563  0.00  0.00    +0.000 C 
ATOM     11  C   UNL     1       7.027  -4.398  21.596  0.00  0.00    +0.000 C 
ATOM     12  C   UNL     1       7.075  -5.545  22.545  0.00  0.00    +0.000 C 
ATOM     13  C   UNL     1       6.227  -5.385  23.729  0.00  0.00    +0.000 C 
ATOM     14  C   UNL     1       5.183  -3.976  23.027  0.00  0.00    +0.000 C 
ATOM     15  C   UNL     1       6.325  -3.222  23.675  0.00  0.00    +0.000 C 
ATOM     16  C   UNL     1       6.351  -1.935  24.384  0.00  0.00    +0.000 C 
ATOM     17  N   UNL     1       7.851  -1.759  24.664  0.00  0.00    +0.000 NA
ATOM     18  C   UNL     1       5.809  -1.994  25.820  0.00  0.00    +0.000 C 
ATOM     19  C   UNL     1       6.759  -2.862  26.657  0.00  0.00    +0.000 C 
ATOM     20  C   UNL     1       7.441  -3.959  25.780  0.00  0.00    +0.000 C 
ATOM     21  C   UNL     1       6.587  -4.374  24.705  0.00  0.00    +0.000 C 
ATOM     22  C   UNL     1       5.115  -6.300  23.913  0.00  0.00    +0.000 C 
ATOM     23  N   UNL     1       9.353  -1.677  22.047  0.00  0.00    +0.000 NA
ENDROOT
BRANCH   8  24
ATOM     24  C   UNL     1       7.891  -0.052  20.285  0.00  0.00    +0.000 C 
BRANCH  24  25
ATOM     25  S   UNL     1       6.556   0.211  19.146  0.00  0.00    +0.000 S 
ATOM     26  O   UNL     1       5.761  -1.001  19.113  0.00  0.00    +0.000 OA
ATOM     27  O   UNL     1       7.079   0.606  17.865  0.00  0.00    +0.000 OA
ATOM     28  N   UNL     1       5.580   1.433  19.685  0.00  0.00    +0.000 NA
ENDBRANCH  24  25
ENDBRANCH   8  24
TORSDOF 2
ENDMDL
MODEL 3
REMARK VINA RESULT:      -7.7      3.393      5.506
REMARK  Name = 
REMARK  2 active torsions:
REMARK  status: ('A' for Active; 'I' for Inactive)
REMARK    1  A    between atoms: C_8  and  C_9
REMARK    2  A    between atoms: C_9  and  S_10
REMARK                            x       y       z     vdW  Elec       q    Type
REMARK                         _______ _______ _______ _____ _____    ______ ____
ROOT
ATOM      1  F   UNL     1       7.627   2.643  27.212  0.00  0.00    +0.000 F 
ATOM      2  C   UNL     1       7.165   2.107  26.038  0.00  0.00    +0.000 C 
ATOM      3  C   UNL     1       5.818   1.927  26.125  0.00  0.00    +0.000 C 
ATOM      4  C   UNL     1       4.999   0.551  25.988  0.00  0.00    +0.000 C 
ATOM      5  C   UNL     1       6.106  -0.357  25.617  0.00  0.00    +0.000 C 
ATOM      6  C   UNL     1       7.570  -0.207  25.809  0.00  0.00    +0.000 C 
ATOM      7  C   UNL     1       8.333   1.098  25.518  0.00  0.00    +0.000 C 
ATOM      8  C   UNL     1       8.143  -1.342  24.879  0.00  0.00    +0.000 C 
ATOM      9  C   UNL     1       7.037  -1.269  23.712  0.00  0.00    +0.000 C 
ATOM     10  C   UNL     1       6.901  -0.754  22.431  0.00  0.00    +0.000 C 
ATOM     11  C   UNL     1       6.810  -1.848  21.199  0.00  0.00    +0.000 C 
ATOM     12  C   UNL     1       6.123  -1.083  20.123  0.00  0.00    +0.000 C 
ATOM     13  C   UNL     1       6.746   0.205  19.805  0.00  0.00    +0.000 C 
ATOM     14  C   UNL     1       8.389  -0.161  20.660  0.00  0.00    +0.000 C 
ATOM     15  C   UNL     1       7.581   0.445  21.788  0.00  0.00    +0.000 C 
ATOM     16  C   UNL     1       7.982   1.320  22.899  0.00  0.00    +0.000 C 
ATOM     17  N   UNL     1       6.674   1.440  23.694  0.00  0.00    +0.000 NA
ATOM     18  C   UNL     1       8.198   2.788  22.500  0.00  0.00    +0.000 C 
ATOM     19  C   UNL     1       6.844   3.375  22.078  0.00  0.00    +0.000 C 
ATOM     20  C   UNL     1       5.921   2.277  21.461  0.00  0.00    +0.000 C 
ATOM     21  C   UNL     1       6.687   1.264  20.795  0.00  0.00    +0.000 C 
ATOM     22  C   UNL     1       7.317   0.390  18.483  0.00  0.00    +0.000 C 
ATOM     23  N   UNL     1       5.814  -1.299  24.623  0.00  0.00    +0.000 NA
ENDROOT
BRANCH   8  24
ATOM     24  C   UNL     1       8.099  -2.628  25.567  0.00  0.00    +0.000 C 
BRANCH  24  25
ATOM     25  S   UNL     1       9.121  -3.828  24.753  0.00  0.00    +0.000 S 
ATOM     26  O   UNL     1       9.618  -4.741  25.765  0.00  0.00    +0.000 OA
ATOM     27  O   UNL     1      10.155  -3.162  24.006  0.00  0.00    +0.000 OA
ATOM     28  N   UNL     1       8.222  -4.711  23.682  0.00  0.00    +0.000 NA
ENDBRANCH  24  25
ENDBRANCH   8  24
TORSDOF 2
ENDMDL
MODEL 4
REMARK VINA RESULT:      -7.5      4.332      6.584
REMARK  Name = 
REMARK  2 active torsions:
REMARK  status: ('A' for Active; 'I' for Inactive)
REMARK    1  A    between atoms: C_8  and  C_9
REMARK    2  A    between atoms: C_9  and  S_10
REMARK                            x       y       z     vdW  Elec       q    Type
REMARK                         _______ _______ _______ _____ _____    ______ ____
ROOT
ATOM      1  F   UNL     1       5.107  -4.559  21.819  0.00  0.00    +0.000 F 
ATOM      2  C   UNL     1       6.194  -3.843  22.248  0.00  0.00    +0.000 C 
ATOM      3  C   UNL     1       7.266  -4.675  22.357  0.00  0.00    +0.000 C 
ATOM      4  C   UNL     1       8.133  -4.995  23.673  0.00  0.00    +0.000 C 
ATOM      5  C   UNL     1       7.510  -4.040  24.614  0.00  0.00    +0.000 C 
ATOM      6  C   UNL     1       6.187  -3.370  24.560  0.00  0.00    +0.000 C 
ATOM      7  C   UNL     1       5.614  -2.728  23.284  0.00  0.00    +0.000 C 
ATOM      8  C   UNL     1       6.337  -2.252  25.661  0.00  0.00    +0.000 C 
ATOM      9  C   UNL     1       7.898  -1.922  25.447  0.00  0.00    +0.000 C 
ATOM     10  C   UNL     1       8.689  -0.957  24.840  0.00  0.00    +0.000 C 
ATOM     11  C   UNL     1       9.551   0.031  25.841  0.00  0.00    +0.000 C 
ATOM     12  C   UNL     1      10.658   0.508  24.968  0.00  0.00    +0.000 C 
ATOM     13  C   UNL     1      10.217   1.093  23.699  0.00  0.00    +0.000 C 
ATOM     14  C   UNL     1       8.416   1.331  24.214  0.00  0.00    +0.000 C 
ATOM     15  C   UNL     1       8.391  -0.070  23.640  0.00  0.00    +0.000 C 
ATOM     16  C   UNL     1       7.361  -0.777  22.866  0.00  0.00    +0.000 C 
ATOM     17  N   UNL     1       7.977  -2.177  22.726  0.00  0.00    +0.000 NA
ATOM     18  C   UNL     1       7.285  -0.361  21.389  0.00  0.00    +0.000 C 
ATOM     19  C   UNL     1       8.586  -0.796  20.700  0.00  0.00    +0.000 C 
ATOM     20  C   UNL     1       9.785  -0.787  21.700  0.00  0.00    +0.000 C 
ATOM     21  C   UNL     1       9.617   0.220  22.708  0.00  0.00    +0.000 C 
ATOM     22  C   UNL     1      10.478   2.500  23.458  0.00  0.00    +0.000 C 
ATOM     23  N   UNL     1       8.391  -3.365  25.469  0.00  0.00    +0.000 NA
ENDROOT
BRANCH   8  24
ATOM     24  C   UNL     1       6.094  -2.813  26.985  0.00  0.00    +0.000 C 
BRANCH  24  25
ATOM     25  S   UNL     1       4.363  -2.808  27.378  0.00  0.00    +0.000 S 
ATOM     26  O   UNL     1       4.227  -2.376  28.755  0.00  0.00    +0.000 OA
ATOM     27  O   UNL     1       3.799  -4.104  27.110  0.00  0.00    +0.000 OA
ATOM     28  N   UNL     1       3.567  -1.711  26.430  0.00  0.00    +0.000 NA
ENDBRANCH  24  25
ENDBRANCH   8  24
TORSDOF 2
ENDMDL
MODEL 5
REMARK VINA RESULT:      -7.5      3.047      4.673
REMARK  Name = 
REMARK  2 active torsions:
REMARK  status: ('A' for Active; 'I' for Inactive)
REMARK    1  A    between atoms: C_8  and  C_9
REMARK    2  A    between atoms: C_9  and  S_10
REMARK                            x       y       z     vdW  Elec       q    Type
REMARK                         _______ _______ _______ _____ _____    ______ ____
ROOT
ATOM      1  F   UNL     1       8.337  -0.299  19.545  0.00  0.00    +0.000 F 
ATOM      2  C   UNL     1       8.372  -0.134  20.905  0.00  0.00    +0.000 C 
ATOM      3  C   UNL     1       9.661  -0.210  21.335  0.00  0.00    +0.000 C 
ATOM      4  C   UNL     1      10.288  -1.253  22.384  0.00  0.00    +0.000 C 
ATOM      5  C   UNL     1       9.054  -1.952  22.802  0.00  0.00    +0.000 C 
ATOM      6  C   UNL     1       7.736  -2.051  22.125  0.00  0.00    +0.000 C 
ATOM      7  C   UNL     1       7.025  -0.851  21.476  0.00  0.00    +0.000 C 
ATOM      8  C   UNL     1       6.818  -2.619  23.273  0.00  0.00    +0.000 C 
ATOM      9  C   UNL     1       7.513  -1.874  24.519  0.00  0.00    +0.000 C 
ATOM     10  C   UNL     1       7.287  -0.779  25.341  0.00  0.00    +0.000 C 
ATOM     11  C   UNL     1       6.908  -1.100  26.914  0.00  0.00    +0.000 C 
ATOM     12  C   UNL     1       7.288   0.158  27.613  0.00  0.00    +0.000 C 
ATOM     13  C   UNL     1       6.699   1.370  27.036  0.00  0.00    +0.000 C 
ATOM     14  C   UNL     1       5.377   0.479  26.026  0.00  0.00    +0.000 C 
ATOM     15  C   UNL     1       6.537   0.513  25.054  0.00  0.00    +0.000 C 
ATOM     16  C   UNL     1       6.567   0.677  23.594  0.00  0.00    +0.000 C 
ATOM     17  N   UNL     1       8.063   0.504  23.288  0.00  0.00    +0.000 NA
ATOM     18  C   UNL     1       6.355   2.122  23.117  0.00  0.00    +0.000 C 
ATOM     19  C   UNL     1       7.554   2.962  23.578  0.00  0.00    +0.000 C 
ATOM     20  C   UNL     1       8.153   2.407  24.908  0.00  0.00    +0.000 C 
ATOM     21  C   UNL     1       7.143   1.795  25.722  0.00  0.00    +0.000 C 
ATOM     22  C   UNL     1       5.765   2.136  27.840  0.00  0.00    +0.000 C 
ATOM     23  N   UNL     1       8.951  -2.242  24.168  0.00  0.00    +0.000 NA
ENDROOT
BRANCH   8  24
ATOM     24  C   UNL     1       6.971  -4.067  23.372  0.00  0.00    +0.000 C 
BRANCH  24  25
ATOM     25  S   UNL     1       5.651  -4.912  22.541  0.00  0.00    +0.000 S 
ATOM     26  O   UNL     1       4.464  -4.084  22.646  0.00  0.00    +0.000 OA
ATOM     27  O   UNL     1       5.496  -6.232  23.090  0.00  0.00    +0.000 OA
ATOM     28  N   UNL     1       6.002  -5.078  20.934  0.00  0.00    +0.000 NA
ENDBRANCH  24  25
ENDBRANCH   8  24
TORSDOF 2
ENDMDL
MODEL 6
REMARK VINA RESULT:      -7.1      3.339      4.467
REMARK  Name = 
REMARK  2 active torsions:
REMARK  status: ('A' for Active; 'I' for Inactive)
REMARK    1  A    between atoms: C_8  and  C_9
REMARK    2  A    between atoms: C_9  and  S_10
REMARK                            x       y       z     vdW  Elec       q    Type
REMARK                         _______ _______ _______ _____ _____    ______ ____
ROOT
ATOM      1  F   UNL     1      11.371   0.204  24.441  0.00  0.00    +0.000 F 
ATOM      2  C   UNL     1      10.393  -0.717  24.169  0.00  0.00    +0.000 C 
ATOM      3  C   UNL     1      10.447  -1.055  22.852  0.00  0.00    +0.000 C 
ATOM      4  C   UNL     1       9.293  -0.890  21.746  0.00  0.00    +0.000 C 
ATOM      5  C   UNL     1       8.190  -0.420  22.611  0.00  0.00    +0.000 C 
ATOM      6  C   UNL     1       8.231   0.206  23.957  0.00  0.00    +0.000 C 
ATOM      7  C   UNL     1       9.122  -0.307  25.102  0.00  0.00    +0.000 C 
ATOM      8  C   UNL     1       6.725   0.112  24.410  0.00  0.00    +0.000 C 
ATOM      9  C   UNL     1       6.357  -1.291  23.712  0.00  0.00    +0.000 C 
ATOM     10  C   UNL     1       6.195  -2.623  24.063  0.00  0.00    +0.000 C 
ATOM     11  C   UNL     1       4.660  -3.225  23.994  0.00  0.00    +0.000 C 
ATOM     12  C   UNL     1       4.882  -4.690  23.852  0.00  0.00    +0.000 C 
ATOM     13  C   UNL     1       5.762  -5.269  24.871  0.00  0.00    +0.000 C 
ATOM     14  C   UNL     1       5.659  -3.809  26.065  0.00  0.00    +0.000 C 
ATOM     15  C   UNL     1       6.833  -3.415  25.195  0.00  0.00    +0.000 C 
ATOM     16  C   UNL     1       8.080  -2.710  25.521  0.00  0.00    +0.000 C 
ATOM     17  N   UNL     1       8.735  -2.569  24.139  0.00  0.00    +0.000 NA
ATOM     18  C   UNL     1       9.128  -3.578  26.234  0.00  0.00    +0.000 C 
ATOM     19  C   UNL     1       9.598  -4.664  25.257  0.00  0.00    +0.000 C 
ATOM     20  C   UNL     1       8.463  -5.053  24.257  0.00  0.00    +0.000 C 
ATOM     21  C   UNL     1       7.167  -4.907  24.855  0.00  0.00    +0.000 C 
ATOM     22  C   UNL     1       5.207  -6.241  25.794  0.00  0.00    +0.000 C 
ATOM     23  N   UNL     1       6.927  -0.960  22.336  0.00  0.00    +0.000 NA
ENDROOT
BRANCH   8  24
ATOM     24  C   UNL     1       5.955   1.208  23.832  0.00  0.00    +0.000 C 
BRANCH  24  25
ATOM     25  S   UNL     1       4.878   1.943  25.035  0.00  0.00    +0.000 S 
ATOM     26  O   UNL     1       3.733   2.484  24.328  0.00  0.00    +0.000 OA
ATOM     27  O   UNL     1       5.603   2.915  25.809  0.00  0.00    +0.000 OA
ATOM     28  N   UNL     1       4.320   0.790  26.081  0.00  0.00    +0.000 NA
ENDBRANCH  24  25
ENDBRANCH   8  24
TORSDOF 2
ENDMDL
MODEL 7
REMARK VINA RESULT:      -7.0      3.965      6.193
REMARK  Name = 
REMARK  2 active torsions:
REMARK  status: ('A' for Active; 'I' for Inactive)
REMARK    1  A    between atoms: C_8  and  C_9
REMARK    2  A    between atoms: C_9  and  S_10
REMARK                            x       y       z     vdW  Elec       q    Type
REMARK                         _______ _______ _______ _____ _____    ______ ____
ROOT
ATOM      1  F   UNL     1       9.229  -5.949  24.326  0.00  0.00    +0.000 F 
ATOM      2  C   UNL     1       8.927  -4.635  24.573  0.00  0.00    +0.000 C 
ATOM      3  C   UNL     1       8.991  -4.403  25.913  0.00  0.00    +0.000 C 
ATOM      4  C   UNL     1       7.816  -3.882  26.878  0.00  0.00    +0.000 C 
ATOM      5  C   UNL     1       6.767  -3.621  25.868  0.00  0.00    +0.000 C 
ATOM      6  C   UNL     1       6.621  -4.143  24.486  0.00  0.00    +0.000 C 
ATOM      7  C   UNL     1       7.786  -4.227  23.485  0.00  0.00    +0.000 C 
ATOM      8  C   UNL     1       5.514  -3.192  23.890  0.00  0.00    +0.000 C 
ATOM      9  C   UNL     1       5.925  -1.841  24.663  0.00  0.00    +0.000 C 
ATOM     10  C   UNL     1       6.601  -0.656  24.410  0.00  0.00    +0.000 C 
ATOM     11  C   UNL     1       5.692   0.721  24.373  0.00  0.00    +0.000 C 
ATOM     12  C   UNL     1       6.691   1.787  24.659  0.00  0.00    +0.000 C 
ATOM     13  C   UNL     1       7.869   1.762  23.787  0.00  0.00    +0.000 C 
ATOM     14  C   UNL     1       7.108   0.641  22.471  0.00  0.00    +0.000 C 
ATOM     15  C   UNL     1       7.719  -0.367  23.420  0.00  0.00    +0.000 C 
ATOM     16  C   UNL     1       8.370  -1.660  23.164  0.00  0.00    +0.000 C 
ATOM     17  N   UNL     1       8.638  -2.166  24.590  0.00  0.00    +0.000 NA
ATOM     18  C   UNL     1       9.809  -1.549  22.637  0.00  0.00    +0.000 C 
ATOM     19  C   UNL     1      10.681  -0.942  23.745  0.00  0.00    +0.000 C 
ATOM     20  C   UNL     1       9.852   0.020  24.653  0.00  0.00    +0.000 C 
ATOM     21  C   UNL     1       8.798   0.655  23.916  0.00  0.00    +0.000 C 
ATOM     22  C   UNL     1       8.096   2.885  22.897  0.00  0.00    +0.000 C 
ATOM     23  N   UNL     1       6.017  -2.453  26.057  0.00  0.00    +0.000 NA
ENDROOT
BRANCH   8  24
ATOM     24  C   UNL     1       4.188  -3.647  24.294  0.00  0.00    +0.000 C 
BRANCH  24  25
ATOM     25  S   UNL     1       3.759  -5.170  23.490  0.00  0.00    +0.000 S 
ATOM     26  O   UNL     1       3.964  -6.243  24.444  0.00  0.00    +0.000 OA
ATOM     27  O   UNL     1       4.517  -5.310  22.276  0.00  0.00    +0.000 OA
ATOM     28  N   UNL     1       2.157  -5.166  23.080  0.00  0.00    +0.000 NA
ENDBRANCH  24  25
ENDBRANCH   8  24
TORSDOF 2
ENDMDL
MODEL 8
REMARK VINA RESULT:      -6.8      3.775      5.399
REMARK  Name = 
REMARK  2 active torsions:
REMARK  status: ('A' for Active; 'I' for Inactive)
REMARK    1  A    between atoms: C_8  and  C_9
REMARK    2  A    between atoms: C_9  and  S_10
REMARK                            x       y       z     vdW  Elec       q    Type
REMARK                         _______ _______ _______ _____ _____    ______ ____
ROOT
ATOM      1  F   UNL     1       8.260   4.809  22.447  0.00  0.00    +0.000 F 
ATOM      2  C   UNL     1       7.655   3.579  22.450  0.00  0.00    +0.000 C 
ATOM      3  C   UNL     1       6.353   3.718  22.078  0.00  0.00    +0.000 C 
ATOM      4  C   UNL     1       5.042   3.327  22.922  0.00  0.00    +0.000 C 
ATOM      5  C   UNL     1       5.685   2.679  24.086  0.00  0.00    +0.000 C 
ATOM      6  C   UNL     1       7.073   2.796  24.598  0.00  0.00    +0.000 C 
ATOM      7  C   UNL     1       8.316   2.759  23.692  0.00  0.00    +0.000 C 
ATOM      8  C   UNL     1       7.153   1.591  25.611  0.00  0.00    +0.000 C 
ATOM      9  C   UNL     1       6.214   0.553  24.815  0.00  0.00    +0.000 C 
ATOM     10  C   UNL     1       6.344  -0.561  24.000  0.00  0.00    +0.000 C 
ATOM     11  C   UNL     1       5.847  -2.003  24.632  0.00  0.00    +0.000 C 
ATOM     12  C   UNL     1       5.572  -2.822  23.420  0.00  0.00    +0.000 C 
ATOM     13  C   UNL     1       6.682  -2.879  22.465  0.00  0.00    +0.000 C 
ATOM     14  C   UNL     1       7.999  -2.249  23.664  0.00  0.00    +0.000 C 
ATOM     15  C   UNL     1       7.480  -0.958  23.069  0.00  0.00    +0.000 C 
ATOM     16  C   UNL     1       8.172   0.293  22.728  0.00  0.00    +0.000 C 
ATOM     17  N   UNL     1       7.006   1.186  22.276  0.00  0.00    +0.000 NA
ATOM     18  C   UNL     1       8.988   0.229  21.428  0.00  0.00    +0.000 C 
ATOM     19  C   UNL     1       8.012   0.050  20.256  0.00  0.00    +0.000 C 
ATOM     20  C   UNL     1       6.738  -0.736  20.698  0.00  0.00    +0.000 C 
ATOM     21  C   UNL     1       7.036  -1.670  21.745  0.00  0.00    +0.000 C 
ATOM     22  C   UNL     1       7.320  -4.159  22.220  0.00  0.00    +0.000 C 
ATOM     23  N   UNL     1       5.060   1.518  24.559  0.00  0.00    +0.000 NA
ENDROOT
BRANCH   8  24
ATOM     24  C   UNL     1       6.560   1.966  26.889  0.00  0.00    +0.000 C 
BRANCH  24  25
ATOM     25  S   UNL     1       6.794   0.695  28.105  0.00  0.00    +0.000 S 
ATOM     26  O   UNL     1       7.919  -0.116  27.681  0.00  0.00    +0.000 OA
ATOM     27  O   UNL     1       5.572  -0.043  28.281  0.00  0.00    +0.000 OA
ATOM     28  N   UNL     1       7.186   1.368  29.564  0.00  0.00    +0.000 NA
ENDBRANCH  24  25
ENDBRANCH   8  24
TORSDOF 2
ENDMDL
MODEL 9
REMARK VINA RESULT:      -6.8      3.249      4.762
REMARK  Name = 
REMARK  2 active torsions:
REMARK  status: ('A' for Active; 'I' for Inactive)
REMARK    1  A    between atoms: C_8  and  C_9
REMARK    2  A    between atoms: C_9  and  S_10
REMARK                            x       y       z     vdW  Elec       q    Type
REMARK                         _______ _______ _______ _____ _____    ______ ____
ROOT
ATOM      1  F   UNL     1       8.334  -0.279  18.342  0.00  0.00    +0.000 F 
ATOM      2  C   UNL     1       7.630  -0.399  19.513  0.00  0.00    +0.000 C 
ATOM      3  C   UNL     1       6.334  -0.044  19.296  0.00  0.00    +0.000 C 
ATOM      4  C   UNL     1       5.505   1.133  20.010  0.00  0.00    +0.000 C 
ATOM      5  C   UNL     1       6.506   1.568  21.008  0.00  0.00    +0.000 C 
ATOM      6  C   UNL     1       7.977   1.372  21.033  0.00  0.00    +0.000 C 
ATOM      7  C   UNL     1       8.659   0.034  20.699  0.00  0.00    +0.000 C 
ATOM      8  C   UNL     1       8.336   1.763  22.517  0.00  0.00    +0.000 C 
ATOM      9  C   UNL     1       7.005   1.211  23.233  0.00  0.00    +0.000 C 
ATOM     10  C   UNL     1       6.597   0.114  23.978  0.00  0.00    +0.000 C 
ATOM     11  C   UNL     1       6.244   0.387  25.566  0.00  0.00    +0.000 C 
ATOM     12  C   UNL     1       5.341  -0.747  25.907  0.00  0.00    +0.000 C 
ATOM     13  C   UNL     1       5.881  -2.069  25.579  0.00  0.00    +0.000 C 
ATOM     14  C   UNL     1       7.670  -1.499  25.374  0.00  0.00    +0.000 C 
ATOM     15  C   UNL     1       7.123  -1.314  23.974  0.00  0.00    +0.000 C 
ATOM     16  C   UNL     1       7.754  -1.504  22.661  0.00  0.00    +0.000 C 
ATOM     17  N   UNL     1       6.647  -1.029  21.707  0.00  0.00    +0.000 NA
ATOM     18  C   UNL     1       7.879  -2.972  22.227  0.00  0.00    +0.000 C 
ATOM     19  C   UNL     1       6.465  -3.531  22.009  0.00  0.00    +0.000 C 
ATOM     20  C   UNL     1       5.432  -2.830  22.946  0.00  0.00    +0.000 C 
ATOM     21  C   UNL     1       6.037  -2.423  24.181  0.00  0.00    +0.000 C 
ATOM     22  C   UNL     1       6.155  -2.993  26.664  0.00  0.00    +0.000 C 
ATOM     23  N   UNL     1       6.007   1.863  22.283  0.00  0.00    +0.000 NA
ENDROOT
BRANCH   8  24
ATOM     24  C   UNL     1       8.442   3.213  22.645  0.00  0.00    +0.000 C 
BRANCH  24  25
ATOM     25  S   UNL     1       9.429   3.664  24.048  0.00  0.00    +0.000 S 
ATOM     26  O   UNL     1      10.363   4.686  23.617  0.00  0.00    +0.000 OA
ATOM     27  O   UNL     1      10.054   2.493  24.602  0.00  0.00    +0.000 OA
ATOM     28  N   UNL     1       8.475   4.325  25.227  0.00  0.00    +0.000 NA
ENDBRANCH  24  25
ENDBRANCH   8  24
TORSDOF 2
ENDMDL
