MODEL 1
REMARK VINA RESULT:      -6.4      0.000      0.000
REMARK  Name = 
REMARK  4 active torsions:
REMARK  status: ('A' for Active; 'I' for Inactive)
REMARK    1  A    between atoms: C_2  and  N_3
REMARK    2  A    between atoms: C_9  and  C_10
REMARK    3  A    between atoms: C_10  and  C_11
REMARK    4  A    between atoms: C_11  and  C_17
REMARK                            x       y       z     vdW  Elec       q    Type
REMARK                         _______ _______ _______ _____ _____    ______ ____
ROOT
ATOM      1  C   UNL     1       8.118  -0.625  22.900  0.00  0.00    +0.000 C 
ATOM      2  C   UNL     1       8.734  -1.225  21.584  0.00  0.00    +0.000 C 
ATOM      3  C   UNL     1       8.505  -0.104  20.545  0.00  0.00    +0.000 C 
ATOM      4  N   UNL     1       7.622   0.884  21.093  0.00  0.00    +0.000 NA
ATOM      5  C   UNL     1       7.129   0.434  22.375  0.00  0.00    +0.000 C 
ATOM      6  C   UNL     1       6.497   1.015  20.208  0.00  0.00    +0.000 C 
ENDROOT
BRANCH   1   7
ATOM      7  C   UNL     1       9.241   0.081  23.630  0.00  0.00    +0.000 C 
ATOM      8  O   UNL     1      10.310   0.237  22.722  0.00  0.00    +0.000 OA
ATOM      9  O   UNL     1       8.819   1.328  24.056  0.00  0.00    +0.000 OA
ATOM     10  C   UNL     1       7.576   1.186  24.709  0.00  0.00    +0.000 C 
ATOM     11  C   UNL     1       7.852   0.411  26.002  0.00  0.00    +0.000 C 
ATOM     12  C   UNL     1       9.069  -0.323  26.063  0.00  0.00    +0.000 C 
ATOM     13  C   UNL     1       9.738  -0.743  24.793  0.00  0.00    +0.000 C 
ATOM     14  F   UNL     1       9.004  -1.241  27.043  0.00  0.00    +0.000 F 
ENDBRANCH   1   7
BRANCH   1  15
ATOM     15  C   UNL     1       7.491  -1.676  23.706  0.00  0.00    +0.000 C 
BRANCH  15  22
ATOM     16  N   UNL     1       5.376  -3.920  22.183  0.00  0.00    +0.000 NA
ATOM     17  C   UNL     1       5.979  -3.619  23.391  0.00  0.00    +0.000 C 
ATOM     18  N   UNL     1       5.507  -4.096  24.348  0.00  0.00    +0.000 NA
ATOM     19  C   UNL     1       6.037  -5.070  25.198  0.00  0.00    +0.000 C 
ATOM     20  C   UNL     1       7.491  -4.759  25.035  0.00  0.00    +0.000 C 
ATOM     21  C   UNL     1       8.214  -4.050  24.009  0.00  0.00    +0.000 C 
ATOM     22  C   UNL     1       7.412  -3.033  23.146  0.00  0.00    +0.000 C 
BRANCH  16  24
ATOM     23  C   UNL     1       6.173  -6.134  21.587  0.00  0.00    +0.000 C 
ATOM     24  C   UNL     1       6.182  -4.657  21.209  0.00  0.00    +0.000 C 
ENDBRANCH  16  24
ENDBRANCH  15  22
ENDBRANCH   1  15
TORSDOF 4
ENDMDL
MODEL 2
REMARK VINA RESULT:      -6.4      2.943      5.862
REMARK  Name = 
REMARK  4 active torsions:
REMARK  status: ('A' for Active; 'I' for Inactive)
REMARK    1  A    between atoms: C_2  and  N_3
REMARK    2  A    between atoms: C_9  and  C_10
REMARK    3  A    between atoms: C_10  and  C_11
REMARK    4  A    between atoms: C_11  and  C_17
REMARK                            x       y       z     vdW  Elec       q    Type
REMARK                         _______ _______ _______ _____ _____    ______ ____
ROOT
ATOM      1  C   UNL     1       7.849  -3.040  23.701  0.00  0.00    +0.000 C 
ATOM      2  C   UNL     1       9.243  -2.813  24.391  0.00  0.00    +0.000 C 
ATOM      3  C   UNL     1       8.884  -2.736  25.893  0.00  0.00    +0.000 C 
ATOM      4  N   UNL     1       7.461  -2.634  26.040  0.00  0.00    +0.000 NA
ATOM      5  C   UNL     1       6.849  -2.494  24.739  0.00  0.00    +0.000 C 
ATOM      6  C   UNL     1       7.177  -1.443  26.793  0.00  0.00    +0.000 C 
ENDROOT
BRANCH   1   7
ATOM      7  C   UNL     1       7.656  -4.537  23.583  0.00  0.00    +0.000 C 
ATOM      8  O   UNL     1       8.773  -5.161  24.175  0.00  0.00    +0.000 OA
ATOM      9  O   UNL     1       6.509  -4.921  24.255  0.00  0.00    +0.000 OA
ATOM     10  C   UNL     1       5.451  -4.072  23.866  0.00  0.00    +0.000 C 
ATOM     11  C   UNL     1       5.159  -4.390  22.396  0.00  0.00    +0.000 C 
ATOM     12  C   UNL     1       6.181  -5.061  21.669  0.00  0.00    +0.000 C 
ATOM     13  C   UNL     1       7.598  -4.965  22.136  0.00  0.00    +0.000 C 
ATOM     14  F   UNL     1       5.971  -4.925  20.348  0.00  0.00    +0.000 F 
ENDBRANCH   1   7
BRANCH   1  15
ATOM     15  C   UNL     1       7.794  -2.357  22.406  0.00  0.00    +0.000 C 
BRANCH  15  22
ATOM     16  N   UNL     1       8.589   0.700  23.766  0.00  0.00    +0.000 NA
ATOM     17  C   UNL     1       7.856   0.100  22.759  0.00  0.00    +0.000 C 
ATOM     18  N   UNL     1       7.001   0.734  22.279  0.00  0.00    +0.000 NA
ATOM     19  C   UNL     1       6.911   1.258  20.987  0.00  0.00    +0.000 C 
ATOM     20  C   UNL     1       7.708   0.222  20.258  0.00  0.00    +0.000 C 
ATOM     21  C   UNL     1       8.677  -0.742  20.714  0.00  0.00    +0.000 C 
ATOM     22  C   UNL     1       8.620  -1.156  22.213  0.00  0.00    +0.000 C 
BRANCH  16  24
ATOM     23  C   UNL     1      10.794   0.567  24.773  0.00  0.00    +0.000 C 
ATOM     24  C   UNL     1      10.014   0.913  23.509  0.00  0.00    +0.000 C 
ENDBRANCH  16  24
ENDBRANCH  15  22
ENDBRANCH   1  15
TORSDOF 4
ENDMDL
MODEL 3
REMARK VINA RESULT:      -6.4      2.728      4.860
REMARK  Name = 
REMARK  4 active torsions:
REMARK  status: ('A' for Active; 'I' for Inactive)
REMARK    1  A    between atoms: C_2  and  N_3
REMARK    2  A    between atoms: C_9  and  C_10
REMARK    3  A    between atoms: C_10  and  C_11
REMARK    4  A    between atoms: C_11  and  C_17
REMARK                            x       y       z     vdW  Elec       q    Type
REMARK                         _______ _______ _______ _____ _____    ______ ____
ROOT
ATOM      1  C   UNL     1       7.816   3.309  22.989  0.00  0.00    +0.000 C 
ATOM      2  C   UNL     1       7.433   4.686  22.337  0.00  0.00    +0.000 C 
ATOM      3  C   UNL     1       6.331   5.226  23.276  0.00  0.00    +0.000 C 
ATOM      4  N   UNL     1       5.918   4.188  24.176  0.00  0.00    +0.000 NA
ATOM      5  C   UNL     1       6.565   2.949  23.812  0.00  0.00    +0.000 C 
ATOM      6  C   UNL     1       4.500   4.008  24.025  0.00  0.00    +0.000 C 
ENDROOT
BRANCH   1   7
ATOM      7  C   UNL     1       8.962   3.576  23.941  0.00  0.00    +0.000 C 
ATOM      8  O   UNL     1       9.229   4.961  23.911  0.00  0.00    +0.000 OA
ATOM      9  O   UNL     1       8.606   3.208  25.226  0.00  0.00    +0.000 OA
ATOM     10  C   UNL     1       8.051   1.911  25.188  0.00  0.00    +0.000 C 
ATOM     11  C   UNL     1       9.195   0.961  24.820  0.00  0.00    +0.000 C 
ATOM     12  C   UNL     1      10.342   1.543  24.213  0.00  0.00    +0.000 C 
ATOM     13  C   UNL     1      10.214   2.854  23.504  0.00  0.00    +0.000 C 
ATOM     14  F   UNL     1      11.070   0.594  23.598  0.00  0.00    +0.000 F 
ENDBRANCH   1   7
BRANCH   1  15
ATOM     15  C   UNL     1       8.154   2.324  21.958  0.00  0.00    +0.000 C 
BRANCH  15  22
ATOM     16  N   UNL     1       8.053  -1.113  21.906  0.00  0.00    +0.000 NA
ATOM     17  C   UNL     1       8.050   0.001  21.087  0.00  0.00    +0.000 C 
ATOM     18  N   UNL     1       8.334  -0.167  19.966  0.00  0.00    +0.000 NA
ATOM     19  C   UNL     1       7.529  -0.059  18.829  0.00  0.00    +0.000 C 
ATOM     20  C   UNL     1       6.575   0.986  19.313  0.00  0.00    +0.000 C 
ATOM     21  C   UNL     1       6.227   1.430  20.640  0.00  0.00    +0.000 C 
ATOM     22  C   UNL     1       7.261   1.170  21.772  0.00  0.00    +0.000 C 
BRANCH  16  24
ATOM     23  C   UNL     1       6.098  -2.513  21.577  0.00  0.00    +0.000 C 
ATOM     24  C   UNL     1       6.772  -1.502  22.497  0.00  0.00    +0.000 C 
ENDBRANCH  16  24
ENDBRANCH  15  22
ENDBRANCH   1  15
TORSDOF 4
ENDMDL
MODEL 4
REMARK VINA RESULT:      -6.4      2.311      3.962
REMARK  Name = 
REMARK  4 active torsions:
REMARK  status: ('A' for Active; 'I' for Inactive)
REMARK    1  A    between atoms: C_2  and  N_3
REMARK    2  A    between atoms: C_9  and  C_10
REMARK    3  A    between atoms: C_10  and  C_11
REMARK    4  A    between atoms: C_11  and  C_17
REMARK                            x       y       z     vdW  Elec       q    Type
REMARK                         _______ _______ _______ _____ _____    ______ ____
ROOT
ATOM      1  C   UNL     1       8.171  -1.224  23.852  0.00  0.00    +0.000 C 
ATOM      2  C   UNL     1       7.869   0.313  23.977  0.00  0.00    +0.000 C 
ATOM      3  C   UNL     1       8.598   0.710  25.280  0.00  0.00    +0.000 C 
ATOM      4  N   UNL     1       9.015  -0.473  25.975  0.00  0.00    +0.000 NA
ATOM      5  C   UNL     1       8.492  -1.639  25.301  0.00  0.00    +0.000 C 
ATOM      6  C   UNL     1       8.449  -0.435  27.296  0.00  0.00    +0.000 C 
ENDROOT
BRANCH   1   7
ATOM      7  C   UNL     1       9.427  -1.360  23.019  0.00  0.00    +0.000 C 
ATOM      8  O   UNL     1      10.263  -2.301  23.656  0.00  0.00    +0.000 OA
ATOM      9  O   UNL     1       9.109  -1.817  21.752  0.00  0.00    +0.000 OA
ATOM     10  C   UNL     1       8.045  -1.040  21.245  0.00  0.00    +0.000 C 
ATOM     11  C   UNL     1       8.608   0.367  21.016  0.00  0.00    +0.000 C 
ATOM     12  C   UNL     1       9.809   0.697  21.702  0.00  0.00    +0.000 C 
ATOM     13  C   UNL     1      10.176  -0.051  22.944  0.00  0.00    +0.000 C 
ATOM     14  F   UNL     1       9.969   2.032  21.733  0.00  0.00    +0.000 F 
ENDBRANCH   1   7
BRANCH   1  15
ATOM     15  C   UNL     1       7.026  -1.932  23.271  0.00  0.00    +0.000 C 
BRANCH  15  22
ATOM     16  N   UNL     1       8.015  -5.048  24.337  0.00  0.00    +0.000 NA
ATOM     17  C   UNL     1       7.319  -4.396  23.336  0.00  0.00    +0.000 C 
ATOM     18  N   UNL     1       7.151  -4.985  22.340  0.00  0.00    +0.000 NA
ATOM     19  C   UNL     1       5.961  -5.475  21.797  0.00  0.00    +0.000 C 
ATOM     20  C   UNL     1       5.014  -4.456  22.348  0.00  0.00    +0.000 C 
ATOM     21  C   UNL     1       5.123  -3.542  23.457  0.00  0.00    +0.000 C 
ATOM     22  C   UNL     1       6.556  -3.161  23.927  0.00  0.00    +0.000 C 
BRANCH  16  24
ATOM     23  C   UNL     1       8.226  -5.050  26.755  0.00  0.00    +0.000 C 
ATOM     24  C   UNL     1       7.290  -5.313  25.581  0.00  0.00    +0.000 C 
ENDBRANCH  16  24
ENDBRANCH  15  22
ENDBRANCH   1  15
TORSDOF 4
ENDMDL
MODEL 5
REMARK VINA RESULT:      -6.3      2.427      4.205
REMARK  Name = 
REMARK  4 active torsions:
REMARK  status: ('A' for Active; 'I' for Inactive)
REMARK    1  A    between atoms: C_2  and  N_3
REMARK    2  A    between atoms: C_9  and  C_10
REMARK    3  A    between atoms: C_10  and  C_11
REMARK    4  A    between atoms: C_11  and  C_17
REMARK                            x       y       z     vdW  Elec       q    Type
REMARK                         _______ _______ _______ _____ _____    ______ ____
ROOT
ATOM      1  C   UNL     1       7.804   0.701  23.110  0.00  0.00    +0.000 C 
ATOM      2  C   UNL     1       7.540   1.527  24.421  0.00  0.00    +0.000 C 
ATOM      3  C   UNL     1       8.961   1.935  24.873  0.00  0.00    +0.000 C 
ATOM      4  N   UNL     1       9.933   1.207  24.110  0.00  0.00    +0.000 NA
ATOM      5  C   UNL     1       9.264   0.236  23.276  0.00  0.00    +0.000 C 
ATOM      6  C   UNL     1      10.776   0.495  25.030  0.00  0.00    +0.000 C 
ENDROOT
BRANCH   1   7
ATOM      7  C   UNL     1       7.735   1.676  21.954  0.00  0.00    +0.000 C 
ATOM      8  O   UNL     1       7.732   2.980  22.493  0.00  0.00    +0.000 OA
ATOM      9  O   UNL     1       8.841   1.522  21.138  0.00  0.00    +0.000 OA
ATOM     10  C   UNL     1       9.006   0.150  20.853  0.00  0.00    +0.000 C 
ATOM     11  C   UNL     1       7.819  -0.255  19.972  0.00  0.00    +0.000 C 
ATOM     12  C   UNL     1       6.684   0.602  19.990  0.00  0.00    +0.000 C 
ATOM     13  C   UNL     1       6.459   1.497  21.167  0.00  0.00    +0.000 C 
ATOM     14  F   UNL     1       5.609  -0.048  19.512  0.00  0.00    +0.000 F 
ENDBRANCH   1   7
BRANCH   1  15
ATOM     15  C   UNL     1       6.840  -0.396  22.986  0.00  0.00    +0.000 C 
BRANCH  15  22
ATOM     16  N   UNL     1       8.735  -3.265  23.010  0.00  0.00    +0.000 NA
ATOM     17  C   UNL     1       7.471  -2.783  22.727  0.00  0.00    +0.000 C 
ATOM     18  N   UNL     1       6.792  -3.448  22.046  0.00  0.00    +0.000 NA
ATOM     19  C   UNL     1       5.622  -4.138  22.375  0.00  0.00    +0.000 C 
ATOM     20  C   UNL     1       5.114  -3.237  23.456  0.00  0.00    +0.000 C 
ATOM     21  C   UNL     1       5.773  -2.252  24.276  0.00  0.00    +0.000 C 
ATOM     22  C   UNL     1       7.094  -1.638  23.730  0.00  0.00    +0.000 C 
BRANCH  16  24
ATOM     23  C   UNL     1       8.607  -4.991  24.712  0.00  0.00    +0.000 C 
ATOM     24  C   UNL     1       9.031  -3.558  24.413  0.00  0.00    +0.000 C 
ENDBRANCH  16  24
ENDBRANCH  15  22
ENDBRANCH   1  15
TORSDOF 4
ENDMDL
MODEL 6
REMARK VINA RESULT:      -6.3      2.718      5.740
REMARK  Name = 
REMARK  4 active torsions:
REMARK  status: ('A' for Active; 'I' for Inactive)
REMARK    1  A    between atoms: C_2  and  N_3
REMARK    2  A    between atoms: C_9  and  C_10
REMARK    3  A    between atoms: C_10  and  C_11
REMARK    4  A    between atoms: C_11  and  C_17
REMARK                            x       y       z     vdW  Elec       q    Type
REMARK                         _______ _______ _______ _____ _____    ______ ____
ROOT
ATOM      1  C   UNL     1       7.512  -1.705  23.171  0.00  0.00    +0.000 C 
ATOM      2  C   UNL     1       8.866  -2.466  22.932  0.00  0.00    +0.000 C 
ATOM      3  C   UNL     1       9.663  -2.180  24.225  0.00  0.00    +0.000 C 
ATOM      4  N   UNL     1       8.998  -1.160  24.982  0.00  0.00    +0.000 NA
ATOM      5  C   UNL     1       7.886  -0.640  24.219  0.00  0.00    +0.000 C 
ATOM      6  C   UNL     1       9.929  -0.086  25.194  0.00  0.00    +0.000 C 
ENDROOT
BRANCH   1   7
ATOM      7  C   UNL     1       6.557  -2.695  23.805  0.00  0.00    +0.000 C 
ATOM      8  O   UNL     1       6.198  -2.190  25.072  0.00  0.00    +0.000 OA
ATOM      9  O   UNL     1       5.421  -2.822  23.026  0.00  0.00    +0.000 OA
ATOM     10  C   UNL     1       5.811  -3.028  21.686  0.00  0.00    +0.000 C 
ATOM     11  C   UNL     1       6.470  -4.410  21.634  0.00  0.00    +0.000 C 
ATOM     12  C   UNL     1       6.918  -4.954  22.869  0.00  0.00    +0.000 C 
ATOM     13  C   UNL     1       7.219  -4.036  24.010  0.00  0.00    +0.000 C 
ATOM     14  F   UNL     1       7.800  -5.944  22.643  0.00  0.00    +0.000 F 
ENDBRANCH   1   7
BRANCH   1  15
ATOM     15  C   UNL     1       7.001  -1.150  21.915  0.00  0.00    +0.000 C 
BRANCH  15  22
ATOM     16  N   UNL     1       6.510   2.246  21.692  0.00  0.00    +0.000 NA
ATOM     17  C   UNL     1       6.449   1.075  20.961  0.00  0.00    +0.000 C 
ATOM     18  N   UNL     1       5.813   1.097  19.980  0.00  0.00    +0.000 NA
ATOM     19  C   UNL     1       6.239   1.004  18.653  0.00  0.00    +0.000 C 
ATOM     20  C   UNL     1       7.455   0.156  18.855  0.00  0.00    +0.000 C 
ATOM     21  C   UNL     1       8.259  -0.110  20.021  0.00  0.00    +0.000 C 
ATOM     22  C   UNL     1       7.591   0.099  21.410  0.00  0.00    +0.000 C 
BRANCH  16  24
ATOM     23  C   UNL     1       8.038   3.236  23.298  0.00  0.00    +0.000 C 
ATOM     24  C   UNL     1       7.828   2.868  21.833  0.00  0.00    +0.000 C 
ENDBRANCH  16  24
ENDBRANCH  15  22
ENDBRANCH   1  15
TORSDOF 4
ENDMDL
MODEL 7
REMARK VINA RESULT:      -6.2      2.259      4.045
REMARK  Name = 
REMARK  4 active torsions:
REMARK  status: ('A' for Active; 'I' for Inactive)
REMARK    1  A    between atoms: C_2  and  N_3
REMARK    2  A    between atoms: C_9  and  C_10
REMARK    3  A    between atoms: C_10  and  C_11
REMARK    4  A    between atoms: C_11  and  C_17
REMARK                            x       y       z     vdW  Elec       q    Type
REMARK                         _______ _______ _______ _____ _____    ______ ____
ROOT
ATOM      1  C   UNL     1       7.201  -0.655  23.634  0.00  0.00    +0.000 C 
ATOM      2  C   UNL     1       5.989  -0.529  24.626  0.00  0.00    +0.000 C 
ATOM      3  C   UNL     1       6.650  -0.024  25.928  0.00  0.00    +0.000 C 
ATOM      4  N   UNL     1       8.076  -0.124  25.811  0.00  0.00    +0.000 NA
ATOM      5  C   UNL     1       8.413  -0.792  24.575  0.00  0.00    +0.000 C 
ATOM      6  C   UNL     1       8.556  -0.933  26.897  0.00  0.00    +0.000 C 
ENDROOT
BRANCH   1   7
ATOM      7  C   UNL     1       7.306   0.664  22.898  0.00  0.00    +0.000 C 
ATOM      8  O   UNL     1       6.328   1.530  23.430  0.00  0.00    +0.000 OA
ATOM      9  O   UNL     1       8.559   1.217  23.092  0.00  0.00    +0.000 OA
ATOM     10  C   UNL     1       9.534   0.227  22.843  0.00  0.00    +0.000 C 
ATOM     11  C   UNL     1       9.475  -0.071  21.342  0.00  0.00    +0.000 C 
ATOM     12  C   UNL     1       8.291   0.318  20.656  0.00  0.00    +0.000 C 
ATOM     13  C   UNL     1       7.019   0.490  21.426  0.00  0.00    +0.000 C 
ATOM     14  F   UNL     1       8.202  -0.334  19.484  0.00  0.00    +0.000 F 
ENDBRANCH   1   7
BRANCH   1  15
ATOM     15  C   UNL     1       7.017  -1.795  22.732  0.00  0.00    +0.000 C 
BRANCH  15  22
ATOM     16  N   UNL     1       6.809  -4.323  25.053  0.00  0.00    +0.000 NA
ATOM     17  C   UNL     1       7.101  -4.068  23.726  0.00  0.00    +0.000 C 
ATOM     18  N   UNL     1       7.711  -4.884  23.153  0.00  0.00    +0.000 NA
ATOM     19  C   UNL     1       7.303  -5.718  22.109  0.00  0.00    +0.000 C 
ATOM     20  C   UNL     1       6.285  -4.822  21.476  0.00  0.00    +0.000 C 
ATOM     21  C   UNL     1       5.560  -3.683  21.981  0.00  0.00    +0.000 C 
ATOM     22  C   UNL     1       6.183  -2.918  23.184  0.00  0.00    +0.000 C 
BRANCH  16  24
ATOM     23  C   UNL     1       4.983  -5.911  25.250  0.00  0.00    +0.000 C 
ATOM     24  C   UNL     1       5.394  -4.451  25.405  0.00  0.00    +0.000 C 
ENDBRANCH  16  24
ENDBRANCH  15  22
ENDBRANCH   1  15
TORSDOF 4
ENDMDL
MODEL 8
REMARK VINA RESULT:      -6.2      2.090      5.180
REMARK  Name = 
REMARK  4 active torsions:
REMARK  status: ('A' for Active; 'I' for Inactive)
REMARK    1  A    between atoms: C_2  and  N_3
REMARK    2  A    between atoms: C_9  and  C_10
REMARK    3  A    between atoms: C_10  and  C_11
REMARK    4  A    between atoms: C_11  and  C_17
REMARK                            x       y       z     vdW  Elec       q    Type
REMARK                         _______ _______ _______ _____ _____    ______ ____
ROOT
ATOM      1  C   UNL     1       7.545  -0.936  24.459  0.00  0.00    +0.000 C 
ATOM      2  C   UNL     1       6.395  -1.392  25.428  0.00  0.00    +0.000 C 
ATOM      3  C   UNL     1       6.027  -2.798  24.901  0.00  0.00    +0.000 C 
ATOM      4  N   UNL     1       6.659  -3.013  23.631  0.00  0.00    +0.000 NA
ATOM      5  C   UNL     1       7.310  -1.797  23.203  0.00  0.00    +0.000 C 
ATOM      6  C   UNL     1       5.634  -3.328  22.674  0.00  0.00    +0.000 C 
ENDROOT
BRANCH   1   7
ATOM      7  C   UNL     1       8.851  -1.358  25.098  0.00  0.00    +0.000 C 
ATOM      8  O   UNL     1       8.541  -2.111  26.250  0.00  0.00    +0.000 OA
ATOM      9  O   UNL     1       9.576  -2.145  24.220  0.00  0.00    +0.000 OA
ATOM     10  C   UNL     1       9.617  -1.502  22.965  0.00  0.00    +0.000 C 
ATOM     11  C   UNL     1      10.473  -0.245  23.149  0.00  0.00    +0.000 C 
ATOM     12  C   UNL     1      10.655   0.217  24.482  0.00  0.00    +0.000 C 
ATOM     13  C   UNL     1       9.658  -0.158  25.533  0.00  0.00    +0.000 C 
ATOM     14  F   UNL     1      11.068   1.497  24.473  0.00  0.00    +0.000 F 
ENDBRANCH   1   7
BRANCH   1  15
ATOM     15  C   UNL     1       7.475   0.507  24.213  0.00  0.00    +0.000 C 
BRANCH  15  22
ATOM     16  N   UNL     1       7.976   1.173  20.877  0.00  0.00    +0.000 NA
ATOM     17  C   UNL     1       7.832   1.779  22.112  0.00  0.00    +0.000 C 
ATOM     18  N   UNL     1       8.211   2.880  22.207  0.00  0.00    +0.000 NA
ATOM     19  C   UNL     1       7.474   4.052  22.399  0.00  0.00    +0.000 C 
ATOM     20  C   UNL     1       6.324   3.483  23.169  0.00  0.00    +0.000 C 
ATOM     21  C   UNL     1       5.820   2.138  23.291  0.00  0.00    +0.000 C 
ATOM     22  C   UNL     1       6.810   0.976  22.989  0.00  0.00    +0.000 C 
BRANCH  16  24
ATOM     23  C   UNL     1       7.109   0.295  18.787  0.00  0.00    +0.000 C 
ATOM     24  C   UNL     1       6.747   0.784  20.185  0.00  0.00    +0.000 C 
ENDBRANCH  16  24
ENDBRANCH  15  22
ENDBRANCH   1  15
TORSDOF 4
ENDMDL
MODEL 9
REMARK VINA RESULT:      -6.2      2.479      5.126
REMARK  Name = 
REMARK  4 active torsions:
REMARK  status: ('A' for Active; 'I' for Inactive)
REMARK    1  A    between atoms: C_2  and  N_3
REMARK    2  A    between atoms: C_9  and  C_10
REMARK    3  A    between atoms: C_10  and  C_11
REMARK    4  A    between atoms: C_11  and  C_17
REMARK                            x       y       z     vdW  Elec       q    Type
REMARK                         _______ _______ _______ _____ _____    ______ ____
ROOT
ATOM      1  C   UNL     1       7.517  -3.406  23.469  0.00  0.00    +0.000 C 
ATOM      2  C   UNL     1       6.069  -3.061  23.972  0.00  0.00    +0.000 C 
ATOM      3  C   UNL     1       5.179  -3.435  22.765  0.00  0.00    +0.000 C 
ATOM      4  N   UNL     1       6.005  -3.681  21.619  0.00  0.00    +0.000 NA
ATOM      5  C   UNL     1       7.377  -3.360  21.935  0.00  0.00    +0.000 C 
ATOM      6  C   UNL     1       5.576  -2.802  20.566  0.00  0.00    +0.000 C 
ENDROOT
BRANCH   1   7
ATOM      7  C   UNL     1       7.801  -4.833  23.888  0.00  0.00    +0.000 C 
ATOM      8  O   UNL     1       7.653  -5.650  22.748  0.00  0.00    +0.000 OA
ATOM      9  O   UNL     1       9.097  -4.939  24.361  0.00  0.00    +0.000 OA
ATOM     10  C   UNL     1       9.324  -3.906  25.294  0.00  0.00    +0.000 C 
ATOM     11  C   UNL     1       8.445  -4.219  26.510  0.00  0.00    +0.000 C 
ATOM     12  C   UNL     1       7.363  -5.120  26.304  0.00  0.00    +0.000 C 
ATOM     13  C   UNL     1       6.811  -5.303  24.926  0.00  0.00    +0.000 C 
ATOM     14  F   UNL     1       6.469  -5.001  27.301  0.00  0.00    +0.000 F 
ENDBRANCH   1   7
BRANCH   1  15
ATOM     15  C   UNL     1       8.493  -2.453  24.006  0.00  0.00    +0.000 C 
BRANCH  15  22
ATOM     16  N   UNL     1       9.725  -0.280  21.643  0.00  0.00    +0.000 NA
ATOM     17  C   UNL     1       9.841  -0.643  22.972  0.00  0.00    +0.000 C 
ATOM     18  N   UNL     1      10.816  -0.314  23.526  0.00  0.00    +0.000 NA
ATOM     19  C   UNL     1      10.971   0.615  24.559  0.00  0.00    +0.000 C 
ATOM     20  C   UNL     1       9.635   0.465  25.214  0.00  0.00    +0.000 C 
ATOM     21  C   UNL     1       8.382  -0.064  24.735  0.00  0.00    +0.000 C 
ATOM     22  C   UNL     1       8.440  -1.059  23.540  0.00  0.00    +0.000 C 
BRANCH  16  24
ATOM     23  C   UNL     1       7.944   0.107  20.040  0.00  0.00    +0.000 C 
ATOM     24  C   UNL     1       8.629   0.627  21.299  0.00  0.00    +0.000 C 
ENDBRANCH  16  24
ENDBRANCH  15  22
ENDBRANCH   1  15
TORSDOF 4
ENDMDL
