MODEL 1
REMARK VINA RESULT:      -8.1      0.000      0.000
REMARK  Name = 
REMARK  8 active torsions:
REMARK  status: ('A' for Active; 'I' for Inactive)
REMARK    1  A    between atoms: C_2  and  C_3
REMARK    2  A    between atoms: C_3  and  C_4
REMARK    3  A    between atoms: C_3  and  C_15
REMARK    4  A    between atoms: N_6  and  C_7
REMARK    5  A    between atoms: C_11  and  C_12
REMARK    6  A    between atoms: C_19  and  C_30
REMARK    7  A    between atoms: C_20  and  C_22
REMARK    8  A    between atoms: C_27  and  C_28
REMARK                            x       y       z     vdW  Elec       q    Type
REMARK                         _______ _______ _______ _____ _____    ______ ____
ROOT
ATOM      1  C   UNL     1       7.413  -2.403  23.621  0.00  0.00    +0.000 C 
ATOM      2  N   UNL     1       6.218  -2.070  23.453  0.00  0.00    +0.000 NA
ATOM      3  C   UNL     1       5.462  -3.075  22.481  0.00  0.00    +0.000 C 
ATOM      4  O   UNL     1       6.088  -2.892  21.268  0.00  0.00    +0.000 OA
ATOM      5  C   UNL     1       6.048  -4.336  23.154  0.00  0.00    +0.000 C 
ATOM      6  C   UNL     1       6.696  -4.231  24.460  0.00  0.00    +0.000 C 
ATOM      7  N   UNL     1       7.554  -3.261  24.722  0.00  0.00    +0.000 NA
ENDROOT
BRANCH   6   8
ATOM      8  C   UNL     1       5.741  -4.538  25.569  0.00  0.00    +0.000 C 
ATOM      9  C   UNL     1       4.425  -4.237  25.380  0.00  0.00    +0.000 C 
ATOM     10  C   UNL     1       3.146  -5.236  25.326  0.00  0.00    +0.000 C 
ATOM     11  C   UNL     1       3.979  -6.578  25.682  0.00  0.00    +0.000 C 
ATOM     12  C   UNL     1       5.153  -6.512  26.608  0.00  0.00    +0.000 C 
ATOM     13  C   UNL     1       6.391  -5.732  26.298  0.00  0.00    +0.000 C 
BRANCH  13  14
ATOM     14  C   UNL     1       6.841  -5.220  27.396  0.00  0.00    +0.000 C 
ATOM     15  N   UNL     1       7.066  -6.083  28.153  0.00  0.00    +0.000 NA
ENDBRANCH  13  14
ENDBRANCH   6   8
BRANCH   5  16
ATOM     16  C   UNL     1       6.861  -5.065  22.188  0.00  0.00    +0.000 C 
ATOM     17  N   UNL     1       7.194  -6.042  21.630  0.00  0.00    +0.000 NA
ENDBRANCH   5  16
BRANCH   1  18
ATOM     18  C   UNL     1       8.458  -1.400  23.558  0.00  0.00    +0.000 C 
BRANCH  18  19
ATOM     19  C   UNL     1       9.537  -1.692  22.584  0.00  0.00    +0.000 C 
ATOM     20  O   UNL     1      10.517  -2.364  22.859  0.00  0.00    +0.000 OA
ATOM     21  N   UNL     1       9.375  -1.202  21.336  0.00  0.00    +0.000 NA
BRANCH  21  22
ATOM     22  C   UNL     1       9.022   0.061  21.327  0.00  0.00    +0.000 C 
ATOM     23  C   UNL     1       9.807   1.126  21.981  0.00  0.00    +0.000 C 
ATOM     24  C   UNL     1       8.924   2.341  22.077  0.00  0.00    +0.000 C 
ATOM     25  C   UNL     1       7.592   1.961  21.549  0.00  0.00    +0.000 C 
ATOM     26  C   UNL     1       7.527   0.427  21.294  0.00  0.00    +0.000 C 
BRANCH  26  27
ATOM     27  C   UNL     1       6.989   0.206  19.910  0.00  0.00    +0.000 C 
ATOM     28  F   UNL     1       6.058   1.174  19.591  0.00  0.00    +0.000 F 
ATOM     29  F   UNL     1       7.997   0.216  18.976  0.00  0.00    +0.000 F 
ENDBRANCH  26  27
ENDBRANCH  21  22
ENDBRANCH  18  19
BRANCH  18  31
ATOM     30  N   UNL     1       9.295  -0.456  25.825  0.00  0.00    +0.000 NA
ATOM     31  C   UNL     1       8.944  -0.924  24.822  0.00  0.00    +0.000 C 
ENDBRANCH  18  31
ENDBRANCH   1  18
TORSDOF 8
ENDMDL
MODEL 2
REMARK VINA RESULT:      -7.6      1.885      3.592
REMARK  Name = 
REMARK  8 active torsions:
REMARK  status: ('A' for Active; 'I' for Inactive)
REMARK    1  A    between atoms: C_2  and  C_3
REMARK    2  A    between atoms: C_3  and  C_4
REMARK    3  A    between atoms: C_3  and  C_15
REMARK    4  A    between atoms: N_6  and  C_7
REMARK    5  A    between atoms: C_11  and  C_12
REMARK    6  A    between atoms: C_19  and  C_30
REMARK    7  A    between atoms: C_20  and  C_22
REMARK    8  A    between atoms: C_27  and  C_28
REMARK                            x       y       z     vdW  Elec       q    Type
REMARK                         _______ _______ _______ _____ _____    ______ ____
ROOT
ATOM      1  C   UNL     1       7.991  -3.524  24.549  0.00  0.00    +0.000 C 
ATOM      2  N   UNL     1       8.634  -4.563  24.278  0.00  0.00    +0.000 NA
ATOM      3  C   UNL     1       8.697  -5.553  25.519  0.00  0.00    +0.000 C 
ATOM      4  O   UNL     1       9.445  -4.868  26.449  0.00  0.00    +0.000 OA
ATOM      5  C   UNL     1       7.201  -5.384  25.865  0.00  0.00    +0.000 C 
ATOM      6  C   UNL     1       6.292  -4.772  24.897  0.00  0.00    +0.000 C 
ATOM      7  N   UNL     1       6.630  -3.674  24.243  0.00  0.00    +0.000 NA
ENDROOT
BRANCH   6   8
ATOM      8  C   UNL     1       5.600  -5.806  24.068  0.00  0.00    +0.000 C 
ATOM      9  C   UNL     1       4.984  -6.836  24.715  0.00  0.00    +0.000 C 
ATOM     10  C   UNL     1       3.408  -7.226  24.747  0.00  0.00    +0.000 C 
ATOM     11  C   UNL     1       2.943  -6.083  23.698  0.00  0.00    +0.000 C 
ATOM     12  C   UNL     1       3.845  -5.677  22.576  0.00  0.00    +0.000 C 
ATOM     13  C   UNL     1       5.182  -5.040  22.796  0.00  0.00    +0.000 C 
BRANCH  13  14
ATOM     14  C   UNL     1       5.997  -5.470  21.890  0.00  0.00    +0.000 C 
ATOM     15  N   UNL     1       5.841  -4.847  20.913  0.00  0.00    +0.000 NA
ENDBRANCH  13  14
ENDBRANCH   6   8
BRANCH   5  16
ATOM     16  C   UNL     1       7.077  -4.796  27.193  0.00  0.00    +0.000 C 
ATOM     17  N   UNL     1       6.508  -4.606  28.201  0.00  0.00    +0.000 NA
ENDBRANCH   5  16
BRANCH   1  18
ATOM     18  C   UNL     1       8.511  -2.229  24.158  0.00  0.00    +0.000 C 
BRANCH  18  19
ATOM     19  C   UNL     1       9.618  -2.278  23.174  0.00  0.00    +0.000 C 
ATOM     20  O   UNL     1      10.777  -2.491  23.487  0.00  0.00    +0.000 OA
ATOM     21  N   UNL     1       9.283  -2.108  21.877  0.00  0.00    +0.000 NA
BRANCH  21  22
ATOM     22  C   UNL     1       8.490  -1.081  21.687  0.00  0.00    +0.000 C 
ATOM     23  C   UNL     1       7.066  -1.214  21.323  0.00  0.00    +0.000 C 
ATOM     24  C   UNL     1       6.597   0.131  20.839  0.00  0.00    +0.000 C 
ATOM     25  C   UNL     1       7.771   1.035  20.845  0.00  0.00    +0.000 C 
ATOM     26  C   UNL     1       9.073   0.232  21.135  0.00  0.00    +0.000 C 
BRANCH  26  27
ATOM     27  C   UNL     1       9.826   0.941  22.224  0.00  0.00    +0.000 C 
ATOM     28  F   UNL     1      10.501   2.032  21.715  0.00  0.00    +0.000 F 
ATOM     29  F   UNL     1       8.982   1.351  23.227  0.00  0.00    +0.000 F 
ENDBRANCH  26  27
ENDBRANCH  21  22
ENDBRANCH  18  19
BRANCH  18  31
ATOM     30  N   UNL     1       8.835  -0.523  26.086  0.00  0.00    +0.000 NA
ATOM     31  C   UNL     1       8.740  -1.300  25.229  0.00  0.00    +0.000 C 
ENDBRANCH  18  31
ENDBRANCH   1  18
TORSDOF 8
ENDMDL
MODEL 3
REMARK VINA RESULT:      -7.6      1.466      2.494
REMARK  Name = 
REMARK  8 active torsions:
REMARK  status: ('A' for Active; 'I' for Inactive)
REMARK    1  A    between atoms: C_2  and  C_3
REMARK    2  A    between atoms: C_3  and  C_4
REMARK    3  A    between atoms: C_3  and  C_15
REMARK    4  A    between atoms: N_6  and  C_7
REMARK    5  A    between atoms: C_11  and  C_12
REMARK    6  A    between atoms: C_19  and  C_30
REMARK    7  A    between atoms: C_20  and  C_22
REMARK    8  A    between atoms: C_27  and  C_28
REMARK                            x       y       z     vdW  Elec       q    Type
REMARK                         _______ _______ _______ _____ _____    ______ ____
ROOT
ATOM      1  C   UNL     1       7.735  -2.776  24.040  0.00  0.00    +0.000 C 
ATOM      2  N   UNL     1       7.522  -3.621  23.142  0.00  0.00    +0.000 NA
ATOM      3  C   UNL     1       7.579  -5.105  23.709  0.00  0.00    +0.000 C 
ATOM      4  O   UNL     1       8.894  -5.264  24.085  0.00  0.00    +0.000 OA
ATOM      5  C   UNL     1       6.743  -4.770  24.965  0.00  0.00    +0.000 C 
ATOM      6  C   UNL     1       5.994  -3.517  25.031  0.00  0.00    +0.000 C 
ATOM      7  N   UNL     1       6.541  -2.373  24.655  0.00  0.00    +0.000 NA
ENDROOT
BRANCH   6   8
ATOM      8  C   UNL     1       4.576  -3.705  24.594  0.00  0.00    +0.000 C 
ATOM      9  C   UNL     1       4.352  -4.308  23.392  0.00  0.00    +0.000 C 
ATOM     10  C   UNL     1       3.601  -5.712  23.077  0.00  0.00    +0.000 C 
ATOM     11  C   UNL     1       3.160  -6.001  24.608  0.00  0.00    +0.000 C 
ATOM     12  C   UNL     1       2.810  -4.866  25.518  0.00  0.00    +0.000 C 
ATOM     13  C   UNL     1       3.792  -3.811  25.918  0.00  0.00    +0.000 C 
BRANCH  13  14
ATOM     14  C   UNL     1       3.171  -2.681  26.005  0.00  0.00    +0.000 C 
ATOM     15  N   UNL     1       2.061  -2.831  25.667  0.00  0.00    +0.000 NA
ENDBRANCH  13  14
ENDBRANCH   6   8
BRANCH   5  16
ATOM     16  C   UNL     1       7.552  -4.997  26.157  0.00  0.00    +0.000 C 
ATOM     17  N   UNL     1       7.732  -5.444  27.226  0.00  0.00    +0.000 NA
ENDBRANCH   5  16
BRANCH   1  18
ATOM     18  C   UNL     1       8.636  -1.667  23.791  0.00  0.00    +0.000 C 
BRANCH  18  19
ATOM     19  C   UNL     1       9.753  -1.974  22.866  0.00  0.00    +0.000 C 
ATOM     20  O   UNL     1      10.750  -2.587  23.209  0.00  0.00    +0.000 OA
ATOM     21  N   UNL     1       9.609  -1.569  21.586  0.00  0.00    +0.000 NA
BRANCH  21  22
ATOM     22  C   UNL     1       9.206  -0.325  21.489  0.00  0.00    +0.000 C 
ATOM     23  C   UNL     1       9.951   0.815  22.060  0.00  0.00    +0.000 C 
ATOM     24  C   UNL     1       9.021   1.998  22.074  0.00  0.00    +0.000 C 
ATOM     25  C   UNL     1       7.704   1.530  21.582  0.00  0.00    +0.000 C 
ATOM     26  C   UNL     1       7.698  -0.020  21.439  0.00  0.00    +0.000 C 
BRANCH  26  27
ATOM     27  C   UNL     1       7.165  -0.361  20.077  0.00  0.00    +0.000 C 
ATOM     28  F   UNL     1       5.999   0.333  19.825  0.00  0.00    +0.000 F 
ATOM     29  F   UNL     1       8.086  -0.081  19.097  0.00  0.00    +0.000 F 
ENDBRANCH  26  27
ENDBRANCH  21  22
ENDBRANCH  18  19
BRANCH  18  31
ATOM     30  N   UNL     1       9.281  -0.330  25.918  0.00  0.00    +0.000 NA
ATOM     31  C   UNL     1       9.040  -0.920  24.948  0.00  0.00    +0.000 C 
ENDBRANCH  18  31
ENDBRANCH   1  18
TORSDOF 8
ENDMDL
MODEL 4
REMARK VINA RESULT:      -7.6      1.967      2.437
REMARK  Name = 
REMARK  8 active torsions:
REMARK  status: ('A' for Active; 'I' for Inactive)
REMARK    1  A    between atoms: C_2  and  C_3
REMARK    2  A    between atoms: C_3  and  C_4
REMARK    3  A    between atoms: C_3  and  C_15
REMARK    4  A    between atoms: N_6  and  C_7
REMARK    5  A    between atoms: C_11  and  C_12
REMARK    6  A    between atoms: C_19  and  C_30
REMARK    7  A    between atoms: C_20  and  C_22
REMARK    8  A    between atoms: C_27  and  C_28
REMARK                            x       y       z     vdW  Elec       q    Type
REMARK                         _______ _______ _______ _____ _____    ______ ____
ROOT
ATOM      1  C   UNL     1       6.937  -3.004  23.959  0.00  0.00    +0.000 C 
ATOM      2  N   UNL     1       5.840  -2.531  23.586  0.00  0.00    +0.000 NA
ATOM      3  C   UNL     1       5.257  -3.319  22.335  0.00  0.00    +0.000 C 
ATOM      4  O   UNL     1       6.157  -3.050  21.328  0.00  0.00    +0.000 OA
ATOM      5  C   UNL     1       5.579  -4.709  22.927  0.00  0.00    +0.000 C 
ATOM      6  C   UNL     1       5.915  -4.840  24.343  0.00  0.00    +0.000 C 
ATOM      7  N   UNL     1       6.757  -4.005  24.926  0.00  0.00    +0.000 NA
ENDROOT
BRANCH   6   8
ATOM      8  C   UNL     1       4.710  -5.184  25.160  0.00  0.00    +0.000 C 
ATOM      9  C   UNL     1       3.493  -4.764  24.712  0.00  0.00    +0.000 C 
ATOM     10  C   UNL     1       2.214  -5.650  24.248  0.00  0.00    +0.000 C 
ATOM     11  C   UNL     1       2.869  -7.082  24.625  0.00  0.00    +0.000 C 
ATOM     12  C   UNL     1       3.792  -7.203  25.796  0.00  0.00    +0.000 C 
ATOM     13  C   UNL     1       5.108  -6.493  25.872  0.00  0.00    +0.000 C 
BRANCH  13  14
ATOM     14  C   UNL     1       5.311  -6.133  27.096  0.00  0.00    +0.000 C 
ATOM     15  N   UNL     1       5.513  -7.086  27.744  0.00  0.00    +0.000 NA
ENDBRANCH  13  14
ENDBRANCH   6   8
BRANCH   5  16
ATOM     16  C   UNL     1       6.537  -5.390  22.064  0.00  0.00    +0.000 C 
ATOM     17  N   UNL     1       7.471  -6.075  21.879  0.00  0.00    +0.000 NA
ENDBRANCH   5  16
BRANCH   1  18
ATOM     18  C   UNL     1       8.039  -2.116  24.274  0.00  0.00    +0.000 C 
BRANCH  18  19
ATOM     19  C   UNL     1       9.312  -2.445  23.590  0.00  0.00    +0.000 C 
ATOM     20  O   UNL     1      10.145  -3.200  24.064  0.00  0.00    +0.000 OA
ATOM     21  N   UNL     1       9.509  -1.890  22.375  0.00  0.00    +0.000 NA
BRANCH  21  22
ATOM     22  C   UNL     1       9.248  -0.605  22.355  0.00  0.00    +0.000 C 
ATOM     23  C   UNL     1       8.238   0.002  21.466  0.00  0.00    +0.000 C 
ATOM     24  C   UNL     1       8.480   1.487  21.458  0.00  0.00    +0.000 C 
ATOM     25  C   UNL     1       9.684   1.742  22.283  0.00  0.00    +0.000 C 
ATOM     26  C   UNL     1      10.370   0.400  22.670  0.00  0.00    +0.000 C 
BRANCH  26  27
ATOM     27  C   UNL     1      10.624   0.416  24.150  0.00  0.00    +0.000 C 
ATOM     28  F   UNL     1      11.864   0.957  24.424  0.00  0.00    +0.000 F 
ATOM     29  F   UNL     1       9.657   1.129  24.814  0.00  0.00    +0.000 F 
ENDBRANCH  26  27
ENDBRANCH  21  22
ENDBRANCH  18  19
BRANCH  18  31
ATOM     30  N   UNL     1       8.406  -1.591  26.788  0.00  0.00    +0.000 NA
ATOM     31  C   UNL     1       8.202  -1.792  25.662  0.00  0.00    +0.000 C 
ENDBRANCH  18  31
ENDBRANCH   1  18
TORSDOF 8
ENDMDL
MODEL 5
REMARK VINA RESULT:      -7.5      1.785      2.439
REMARK  Name = 
REMARK  8 active torsions:
REMARK  status: ('A' for Active; 'I' for Inactive)
REMARK    1  A    between atoms: C_2  and  C_3
REMARK    2  A    between atoms: C_3  and  C_4
REMARK    3  A    between atoms: C_3  and  C_15
REMARK    4  A    between atoms: N_6  and  C_7
REMARK    5  A    between atoms: C_11  and  C_12
REMARK    6  A    between atoms: C_19  and  C_30
REMARK    7  A    between atoms: C_20  and  C_22
REMARK    8  A    between atoms: C_27  and  C_28
REMARK                            x       y       z     vdW  Elec       q    Type
REMARK                         _______ _______ _______ _____ _____    ______ ____
ROOT
ATOM      1  C   UNL     1       7.442  -2.614  24.797  0.00  0.00    +0.000 C 
ATOM      2  N   UNL     1       6.442  -3.141  24.260  0.00  0.00    +0.000 NA
ATOM      3  C   UNL     1       6.692  -4.678  23.941  0.00  0.00    +0.000 C 
ATOM      4  O   UNL     1       7.680  -4.659  22.983  0.00  0.00    +0.000 OA
ATOM      5  C   UNL     1       7.339  -4.968  25.314  0.00  0.00    +0.000 C 
ATOM      6  C   UNL     1       7.203  -4.003  26.403  0.00  0.00    +0.000 C 
ATOM      7  N   UNL     1       7.378  -2.709  26.196  0.00  0.00    +0.000 NA
ENDROOT
BRANCH   6   8
ATOM      8  C   UNL     1       6.051  -4.343  27.293  0.00  0.00    +0.000 C 
ATOM      9  C   UNL     1       4.999  -3.477  27.335  0.00  0.00    +0.000 C 
ATOM     10  C   UNL     1       3.456  -3.723  26.893  0.00  0.00    +0.000 C 
ATOM     11  C   UNL     1       3.641  -5.293  26.543  0.00  0.00    +0.000 C 
ATOM     12  C   UNL     1       4.596  -6.133  27.331  0.00  0.00    +0.000 C 
ATOM     13  C   UNL     1       6.072  -5.884  27.352  0.00  0.00    +0.000 C 
BRANCH  13  14
ATOM     14  C   UNL     1       6.517  -6.146  28.536  0.00  0.00    +0.000 C 
ATOM     15  N   UNL     1       6.076  -7.170  28.890  0.00  0.00    +0.000 NA
ENDBRANCH  13  14
ENDBRANCH   6   8
BRANCH   5  16
ATOM     16  C   UNL     1       8.721  -5.390  25.115  0.00  0.00    +0.000 C 
ATOM     17  N   UNL     1       9.871  -5.330  25.333  0.00  0.00    +0.000 NA
ENDBRANCH   5  16
BRANCH   1  18
ATOM     18  C   UNL     1       7.904  -1.316  24.347  0.00  0.00    +0.000 C 
BRANCH  18  19
ATOM     19  C   UNL     1       9.204  -1.336  23.635  0.00  0.00    +0.000 C 
ATOM     20  O   UNL     1      10.272  -1.157  24.196  0.00  0.00    +0.000 OA
ATOM     21  N   UNL     1       9.167  -1.601  22.312  0.00  0.00    +0.000 NA
BRANCH  21  22
ATOM     22  C   UNL     1       8.260  -0.896  21.677  0.00  0.00    +0.000 C 
ATOM     23  C   UNL     1       7.019  -1.478  21.131  0.00  0.00    +0.000 C 
ATOM     24  C   UNL     1       6.431  -0.471  20.180  0.00  0.00    +0.000 C 
ATOM     25  C   UNL     1       7.372   0.671  20.110  0.00  0.00    +0.000 C 
ATOM     26  C   UNL     1       8.695   0.331  20.856  0.00  0.00    +0.000 C 
BRANCH  26  27
ATOM     27  C   UNL     1       9.012   1.467  21.785  0.00  0.00    +0.000 C 
ATOM     28  F   UNL     1      10.349   1.800  21.705  0.00  0.00    +0.000 F 
ATOM     29  F   UNL     1       8.247   2.571  21.501  0.00  0.00    +0.000 F 
ENDBRANCH  26  27
ENDBRANCH  21  22
ENDBRANCH  18  19
BRANCH  18  31
ATOM     30  N   UNL     1       7.667   0.670  25.999  0.00  0.00    +0.000 NA
ATOM     31  C   UNL     1       7.790  -0.248  25.299  0.00  0.00    +0.000 C 
ENDBRANCH  18  31
ENDBRANCH   1  18
TORSDOF 8
ENDMDL
MODEL 6
REMARK VINA RESULT:      -7.3      2.254      3.131
REMARK  Name = 
REMARK  8 active torsions:
REMARK  status: ('A' for Active; 'I' for Inactive)
REMARK    1  A    between atoms: C_2  and  C_3
REMARK    2  A    between atoms: C_3  and  C_4
REMARK    3  A    between atoms: C_3  and  C_15
REMARK    4  A    between atoms: N_6  and  C_7
REMARK    5  A    between atoms: C_11  and  C_12
REMARK    6  A    between atoms: C_19  and  C_30
REMARK    7  A    between atoms: C_20  and  C_22
REMARK    8  A    between atoms: C_27  and  C_28
REMARK                            x       y       z     vdW  Elec       q    Type
REMARK                         _______ _______ _______ _____ _____    ______ ____
ROOT
ATOM      1  C   UNL     1       6.719  -2.727  24.912  0.00  0.00    +0.000 C 
ATOM      2  N   UNL     1       6.444  -3.408  23.899  0.00  0.00    +0.000 NA
ATOM      3  C   UNL     1       7.267  -4.767  23.866  0.00  0.00    +0.000 C 
ATOM      4  O   UNL     1       8.572  -4.357  23.712  0.00  0.00    +0.000 OA
ATOM      5  C   UNL     1       7.020  -5.078  25.358  0.00  0.00    +0.000 C 
ATOM      6  C   UNL     1       5.989  -4.349  26.095  0.00  0.00    +0.000 C 
ATOM      7  N   UNL     1       5.867  -3.038  25.983  0.00  0.00    +0.000 NA
ENDROOT
BRANCH   6   8
ATOM      8  C   UNL     1       4.695  -5.099  26.109  0.00  0.00    +0.000 C 
ATOM      9  C   UNL     1       3.683  -4.641  25.318  0.00  0.00    +0.000 C 
ATOM     10  C   UNL     1       2.958  -5.370  24.062  0.00  0.00    +0.000 C 
ATOM     11  C   UNL     1       3.761  -6.769  24.207  0.00  0.00    +0.000 C 
ATOM     12  C   UNL     1       4.156  -7.274  25.559  0.00  0.00    +0.000 C 
ATOM     13  C   UNL     1       5.108  -6.544  26.454  0.00  0.00    +0.000 C 
BRANCH  13  14
ATOM     14  C   UNL     1       4.721  -6.695  27.678  0.00  0.00    +0.000 C 
ATOM     15  N   UNL     1       5.541  -7.289  28.264  0.00  0.00    +0.000 NA
ENDBRANCH  13  14
ENDBRANCH   6   8
BRANCH   5  16
ATOM     16  C   UNL     1       8.295  -5.101  26.064  0.00  0.00    +0.000 C 
ATOM     17  N   UNL     1       9.030  -4.738  26.903  0.00  0.00    +0.000 NA
ENDBRANCH   5  16
BRANCH   1  18
ATOM     18  C   UNL     1       6.957  -1.303  24.783  0.00  0.00    +0.000 C 
BRANCH  18  19
ATOM     19  C   UNL     1       8.230  -0.832  25.378  0.00  0.00    +0.000 C 
ATOM     20  O   UNL     1       8.324  -0.459  26.536  0.00  0.00    +0.000 OA
ATOM     21  N   UNL     1       9.319  -0.862  24.582  0.00  0.00    +0.000 NA
BRANCH  21  22
ATOM     22  C   UNL     1       9.098  -0.342  23.397  0.00  0.00    +0.000 C 
ATOM     23  C   UNL     1       8.865  -1.155  22.187  0.00  0.00    +0.000 C 
ATOM     24  C   UNL     1       9.020  -0.245  20.999  0.00  0.00    +0.000 C 
ATOM     25  C   UNL     1       9.421   1.086  21.511  0.00  0.00    +0.000 C 
ATOM     26  C   UNL     1       9.740   1.007  23.033  0.00  0.00    +0.000 C 
BRANCH  26  27
ATOM     27  C   UNL     1       8.999   2.116  23.722  0.00  0.00    +0.000 C 
ATOM     28  F   UNL     1       7.637   1.901  23.661  0.00  0.00    +0.000 F 
ATOM     29  F   UNL     1       9.385   2.232  25.035  0.00  0.00    +0.000 F 
ENDBRANCH  26  27
ENDBRANCH  21  22
ENDBRANCH  18  19
BRANCH  18  31
ATOM     30  N   UNL     1       4.943   0.207  25.413  0.00  0.00    +0.000 NA
ATOM     31  C   UNL     1       5.838  -0.454  25.082  0.00  0.00    +0.000 C 
ENDBRANCH  18  31
ENDBRANCH   1  18
TORSDOF 8
ENDMDL
MODEL 7
REMARK VINA RESULT:      -7.3      1.929      2.433
REMARK  Name = 
REMARK  8 active torsions:
REMARK  status: ('A' for Active; 'I' for Inactive)
REMARK    1  A    between atoms: C_2  and  C_3
REMARK    2  A    between atoms: C_3  and  C_4
REMARK    3  A    between atoms: C_3  and  C_15
REMARK    4  A    between atoms: N_6  and  C_7
REMARK    5  A    between atoms: C_11  and  C_12
REMARK    6  A    between atoms: C_19  and  C_30
REMARK    7  A    between atoms: C_20  and  C_22
REMARK    8  A    between atoms: C_27  and  C_28
REMARK                            x       y       z     vdW  Elec       q    Type
REMARK                         _______ _______ _______ _____ _____    ______ ____
ROOT
ATOM      1  C   UNL     1       7.197  -2.536  23.406  0.00  0.00    +0.000 C 
ATOM      2  N   UNL     1       5.979  -2.282  23.272  0.00  0.00    +0.000 NA
ATOM      3  C   UNL     1       5.222  -3.439  22.488  0.00  0.00    +0.000 C 
ATOM      4  O   UNL     1       5.767  -3.392  21.225  0.00  0.00    +0.000 OA
ATOM      5  C   UNL     1       5.910  -4.572  23.282  0.00  0.00    +0.000 C 
ATOM      6  C   UNL     1       6.625  -4.266  24.520  0.00  0.00    +0.000 C 
ATOM      7  N   UNL     1       7.444  -3.232  24.599  0.00  0.00    +0.000 NA
ENDROOT
BRANCH   6   8
ATOM      8  C   UNL     1       5.751  -4.464  25.718  0.00  0.00    +0.000 C 
ATOM      9  C   UNL     1       4.466  -4.014  25.652  0.00  0.00    +0.000 C 
ATOM     10  C   UNL     1       3.082  -4.861  25.729  0.00  0.00    +0.000 C 
ATOM     11  C   UNL     1       3.788  -6.290  26.016  0.00  0.00    +0.000 C 
ATOM     12  C   UNL     1       5.044  -6.361  26.825  0.00  0.00    +0.000 C 
ATOM     13  C   UNL     1       6.328  -5.726  26.392  0.00  0.00    +0.000 C 
BRANCH  13  14
ATOM     14  C   UNL     1       6.937  -5.271  27.437  0.00  0.00    +0.000 C 
ATOM     15  N   UNL     1       7.055  -6.137  28.214  0.00  0.00    +0.000 NA
ENDBRANCH  13  14
ENDBRANCH   6   8
BRANCH   5  16
ATOM     16  C   UNL     1       6.703  -5.387  22.370  0.00  0.00    +0.000 C 
ATOM     17  N   UNL     1       6.939  -6.383  21.797  0.00  0.00    +0.000 NA
ENDBRANCH   5  16
BRANCH   1  18
ATOM     18  C   UNL     1       8.183  -1.506  23.146  0.00  0.00    +0.000 C 
BRANCH  18  19
ATOM     19  C   UNL     1       7.814  -0.553  22.072  0.00  0.00    +0.000 C 
ATOM     20  O   UNL     1       8.073  -0.745  20.896  0.00  0.00    +0.000 OA
ATOM     21  N   UNL     1       7.132   0.550  22.448  0.00  0.00    +0.000 NA
BRANCH  21  22
ATOM     22  C   UNL     1       7.666   1.149  23.486  0.00  0.00    +0.000 C 
ATOM     23  C   UNL     1       6.953   1.342  24.764  0.00  0.00    +0.000 C 
ATOM     24  C   UNL     1       7.722   2.363  25.558  0.00  0.00    +0.000 C 
ATOM     25  C   UNL     1       8.845   2.826  24.710  0.00  0.00    +0.000 C 
ATOM     26  C   UNL     1       8.701   2.265  23.265  0.00  0.00    +0.000 C 
BRANCH  26  27
ATOM     27  C   UNL     1      10.015   1.657  22.867  0.00  0.00    +0.000 C 
ATOM     28  F   UNL     1      10.411   2.125  21.630  0.00  0.00    +0.000 F 
ATOM     29  F   UNL     1      10.991   1.930  23.794  0.00  0.00    +0.000 F 
ENDBRANCH  26  27
ENDBRANCH  21  22
ENDBRANCH  18  19
BRANCH  18  31
ATOM     30  N   UNL     1      10.624  -2.381  23.071  0.00  0.00    +0.000 NA
ATOM     31  C   UNL     1       9.546  -1.951  23.072  0.00  0.00    +0.000 C 
ENDBRANCH  18  31
ENDBRANCH   1  18
TORSDOF 8
ENDMDL
MODEL 8
REMARK VINA RESULT:      -7.3      1.686      3.142
REMARK  Name = 
REMARK  8 active torsions:
REMARK  status: ('A' for Active; 'I' for Inactive)
REMARK    1  A    between atoms: C_2  and  C_3
REMARK    2  A    between atoms: C_3  and  C_4
REMARK    3  A    between atoms: C_3  and  C_15
REMARK    4  A    between atoms: N_6  and  C_7
REMARK    5  A    between atoms: C_11  and  C_12
REMARK    6  A    between atoms: C_19  and  C_30
REMARK    7  A    between atoms: C_20  and  C_22
REMARK    8  A    between atoms: C_27  and  C_28
REMARK                            x       y       z     vdW  Elec       q    Type
REMARK                         _______ _______ _______ _____ _____    ______ ____
ROOT
ATOM      1  C   UNL     1       8.161  -1.815  24.365  0.00  0.00    +0.000 C 
ATOM      2  N   UNL     1       8.592  -2.553  25.280  0.00  0.00    +0.000 NA
ATOM      3  C   UNL     1       7.593  -2.597  26.516  0.00  0.00    +0.000 C 
ATOM      4  O   UNL     1       7.623  -1.313  27.010  0.00  0.00    +0.000 OA
ATOM      5  C   UNL     1       6.337  -2.758  25.631  0.00  0.00    +0.000 C 
ATOM      6  C   UNL     1       6.478  -3.123  24.223  0.00  0.00    +0.000 C 
ATOM      7  N   UNL     1       7.379  -2.539  23.453  0.00  0.00    +0.000 NA
ENDROOT
BRANCH   6   8
ATOM      8  C   UNL     1       6.348  -4.599  24.026  0.00  0.00    +0.000 C 
ATOM      9  C   UNL     1       6.405  -5.398  25.130  0.00  0.00    +0.000 C 
ATOM     10  C   UNL     1       5.262  -6.374  25.744  0.00  0.00    +0.000 C 
ATOM     11  C   UNL     1       4.190  -6.128  24.555  0.00  0.00    +0.000 C 
ATOM     12  C   UNL     1       4.659  -5.906  23.152  0.00  0.00    +0.000 C 
ATOM     13  C   UNL     1       5.492  -4.729  22.750  0.00  0.00    +0.000 C 
BRANCH  13  14
ATOM     14  C   UNL     1       6.334  -5.109  21.846  0.00  0.00    +0.000 C 
ATOM     15  N   UNL     1       5.927  -4.800  20.794  0.00  0.00    +0.000 NA
ENDBRANCH  13  14
ENDBRANCH   6   8
BRANCH   5  16
ATOM     16  C   UNL     1       5.463  -1.607  25.822  0.00  0.00    +0.000 C 
ATOM     17  N   UNL     1       4.880  -0.664  25.438  0.00  0.00    +0.000 NA
ENDBRANCH   5  16
BRANCH   1  18
ATOM     18  C   UNL     1       9.052  -0.874  23.715  0.00  0.00    +0.000 C 
BRANCH  18  19
ATOM     19  C   UNL     1       9.684  -1.379  22.473  0.00  0.00    +0.000 C 
ATOM     20  O   UNL     1      10.734  -1.999  22.467  0.00  0.00    +0.000 OA
ATOM     21  N   UNL     1       9.020  -1.152  21.319  0.00  0.00    +0.000 NA
BRANCH  21  22
ATOM     22  C   UNL     1       8.611   0.089  21.204  0.00  0.00    +0.000 C 
ATOM     23  C   UNL     1       9.378   1.245  21.709  0.00  0.00    +0.000 C 
ATOM     24  C   UNL     1       8.448   2.427  21.730  0.00  0.00    +0.000 C 
ATOM     25  C   UNL     1       7.112   1.944  21.309  0.00  0.00    +0.000 C 
ATOM     26  C   UNL     1       7.102   0.391  21.210  0.00  0.00    +0.000 C 
BRANCH  26  27
ATOM     27  C   UNL     1       6.511   0.011  19.883  0.00  0.00    +0.000 C 
ATOM     28  F   UNL     1       7.433   0.194  18.871  0.00  0.00    +0.000 F 
ATOM     29  F   UNL     1       6.084  -1.294  19.883  0.00  0.00    +0.000 F 
ENDBRANCH  26  27
ENDBRANCH  21  22
ENDBRANCH  18  19
BRANCH  18  31
ATOM     30  N   UNL     1      10.769   0.359  25.217  0.00  0.00    +0.000 NA
ATOM     31  C   UNL     1       9.963  -0.179  24.579  0.00  0.00    +0.000 C 
ENDBRANCH  18  31
ENDBRANCH   1  18
TORSDOF 8
ENDMDL
MODEL 9
REMARK VINA RESULT:      -7.2      2.014      2.925
REMARK  Name = 
REMARK  8 active torsions:
REMARK  status: ('A' for Active; 'I' for Inactive)
REMARK    1  A    between atoms: C_2  and  C_3
REMARK    2  A    between atoms: C_3  and  C_4
REMARK    3  A    between atoms: C_3  and  C_15
REMARK    4  A    between atoms: N_6  and  C_7
REMARK    5  A    between atoms: C_11  and  C_12
REMARK    6  A    between atoms: C_19  and  C_30
REMARK    7  A    between atoms: C_20  and  C_22
REMARK    8  A    between atoms: C_27  and  C_28
REMARK                            x       y       z     vdW  Elec       q    Type
REMARK                         _______ _______ _______ _____ _____    ______ ____
ROOT
ATOM      1  C   UNL     1       6.859  -2.429  23.906  0.00  0.00    +0.000 C 
ATOM      2  N   UNL     1       5.934  -3.048  23.333  0.00  0.00    +0.000 NA
ATOM      3  C   UNL     1       6.342  -4.553  23.024  0.00  0.00    +0.000 C 
ATOM      4  O   UNL     1       7.358  -4.436  22.102  0.00  0.00    +0.000 OA
ATOM      5  C   UNL     1       6.965  -4.783  24.419  0.00  0.00    +0.000 C 
ATOM      6  C   UNL     1       6.697  -3.839  25.503  0.00  0.00    +0.000 C 
ATOM      7  N   UNL     1       6.754  -2.534  25.301  0.00  0.00    +0.000 NA
ENDROOT
BRANCH   6   8
ATOM      8  C   UNL     1       5.552  -4.292  26.351  0.00  0.00    +0.000 C 
ATOM      9  C   UNL     1       4.306  -3.835  26.038  0.00  0.00    +0.000 C 
ATOM     10  C   UNL     1       3.001  -4.674  25.558  0.00  0.00    +0.000 C 
ATOM     11  C   UNL     1       3.686  -6.133  25.717  0.00  0.00    +0.000 C 
ATOM     12  C   UNL     1       4.686  -6.382  26.801  0.00  0.00    +0.000 C 
ATOM     13  C   UNL     1       6.001  -5.671  26.874  0.00  0.00    +0.000 C 
BRANCH  13  14
ATOM     14  C   UNL     1       6.286  -5.457  28.116  0.00  0.00    +0.000 C 
ATOM     15  N   UNL     1       6.848  -6.390  28.543  0.00  0.00    +0.000 NA
ENDBRANCH  13  14
ENDBRANCH   6   8
BRANCH   5  16
ATOM     16  C   UNL     1       8.387  -5.070  24.271  0.00  0.00    +0.000 C 
ATOM     17  N   UNL     1       9.380  -5.609  24.584  0.00  0.00    +0.000 NA
ENDBRANCH   5  16
BRANCH   1  18
ATOM     18  C   UNL     1       7.210  -1.091  23.472  0.00  0.00    +0.000 C 
BRANCH  18  19
ATOM     19  C   UNL     1       6.729  -0.006  24.360  0.00  0.00    +0.000 C 
ATOM     20  O   UNL     1       5.578   0.395  24.356  0.00  0.00    +0.000 OA
ATOM     21  N   UNL     1       7.628   0.514  25.223  0.00  0.00    +0.000 NA
BRANCH  21  22
ATOM     22  C   UNL     1       8.773   0.805  24.651  0.00  0.00    +0.000 C 
ATOM     23  C   UNL     1      10.028   0.084  24.938  0.00  0.00    +0.000 C 
ATOM     24  C   UNL     1      11.158   0.916  24.396  0.00  0.00    +0.000 C 
ATOM     25  C   UNL     1      10.569   2.165  23.860  0.00  0.00    +0.000 C 
ATOM     26  C   UNL     1       9.061   2.259  24.237  0.00  0.00    +0.000 C 
BRANCH  26  27
ATOM     27  C   UNL     1       8.289   2.586  22.991  0.00  0.00    +0.000 C 
ATOM     28  F   UNL     1       8.231   3.952  22.801  0.00  0.00    +0.000 F 
ATOM     29  F   UNL     1       8.851   1.993  21.887  0.00  0.00    +0.000 F 
ENDBRANCH  26  27
ENDBRANCH  21  22
ENDBRANCH  18  19
BRANCH  18  31
ATOM     30  N   UNL     1       6.943  -0.623  20.934  0.00  0.00    +0.000 NA
ATOM     31  C   UNL     1       7.013  -0.816  22.077  0.00  0.00    +0.000 C 
ENDBRANCH  18  31
ENDBRANCH   1  18
TORSDOF 8
ENDMDL
