MODEL 1
REMARK VINA RESULT:      -6.1      0.000      0.000
REMARK  Name = 
REMARK  5 active torsions:
REMARK  status: ('A' for Active; 'I' for Inactive)
REMARK    1  A    between atoms: C_2  and  C_3
REMARK    2  A    between atoms: C_3  and  C_4
REMARK    3  A    between atoms: C_4  and  C_5
REMARK    4  A    between atoms: C_4  and  C_12
REMARK    5  A    between atoms: C_16  and  C_19
REMARK                            x       y       z     vdW  Elec       q    Type
REMARK                         _______ _______ _______ _____ _____    ______ ____
ROOT
ATOM      1  C   UNL     1       7.040  -4.415  23.280  0.00  0.00    +0.000 C 
ATOM      2  C   UNL     1       5.557  -4.518  23.636  0.00  0.00    +0.000 C 
ENDROOT
BRANCH   1   3
ATOM      3  C   UNL     1       7.817  -5.031  24.470  0.00  0.00    +0.000 C 
ATOM      4  C   UNL     1       9.009  -4.519  25.083  0.00  0.00    +0.000 C 
ATOM      5  O   UNL     1      10.370  -4.858  24.785  0.00  0.00    +0.000 OA
ATOM      6  C   UNL     1       8.864  -4.558  26.693  0.00  0.00    +0.000 C 
ATOM      7  C   UNL     1       7.500  -5.250  26.833  0.00  0.00    +0.000 C 
ATOM      8  C   UNL     1       6.868  -5.548  25.569  0.00  0.00    +0.000 C 
ATOM      9  O   UNL     1       7.213  -5.876  27.992  0.00  0.00    +0.000 OA
ENDBRANCH   1   3
BRANCH   1  10
ATOM     10  C   UNL     1       7.454  -2.969  23.202  0.00  0.00    +0.000 C 
ATOM     11  C   UNL     1       6.255  -2.113  22.726  0.00  0.00    +0.000 C 
ATOM     12  C   UNL     1       6.903  -1.166  21.639  0.00  0.00    +0.000 C 
ATOM     13  C   UNL     1       8.412  -1.449  21.837  0.00  0.00    +0.000 C 
ATOM     14  O   UNL     1       8.471  -2.801  22.244  0.00  0.00    +0.000 OA
BRANCH  13  15
ATOM     15  C   UNL     1       8.917  -0.592  22.973  0.00  0.00    +0.000 C 
ATOM     16  O   UNL     1      10.283  -0.883  23.162  0.00  0.00    +0.000 OA
ENDBRANCH  13  15
ENDBRANCH   1  10
BRANCH   1  17
ATOM     17  C   UNL     1       7.315  -5.124  21.995  0.00  0.00    +0.000 C 
BRANCH  17  19
ATOM     18  O   UNL     1       5.943  -5.581  20.125  0.00  0.00    +0.000 OA
ATOM     19  C   UNL     1       6.062  -5.841  21.502  0.00  0.00    +0.000 C 
ENDBRANCH  17  19
ENDBRANCH   1  17
TORSDOF 5
ENDMDL
MODEL 2
REMARK VINA RESULT:      -6.1      2.254      6.319
REMARK  Name = 
REMARK  5 active torsions:
REMARK  status: ('A' for Active; 'I' for Inactive)
REMARK    1  A    between atoms: C_2  and  C_3
REMARK    2  A    between atoms: C_3  and  C_4
REMARK    3  A    between atoms: C_4  and  C_5
REMARK    4  A    between atoms: C_4  and  C_12
REMARK    5  A    between atoms: C_16  and  C_19
REMARK                            x       y       z     vdW  Elec       q    Type
REMARK                         _______ _______ _______ _____ _____    ______ ____
ROOT
ATOM      1  C   UNL     1       8.336  -0.828  22.800  0.00  0.00    +0.000 C 
ATOM      2  C   UNL     1       7.474   0.306  23.356  0.00  0.00    +0.000 C 
ENDROOT
BRANCH   1   3
ATOM      3  C   UNL     1       7.774  -1.152  21.393  0.00  0.00    +0.000 C 
ATOM      4  C   UNL     1       6.415  -1.456  21.053  0.00  0.00    +0.000 C 
ATOM      5  O   UNL     1       5.799  -2.746  20.948  0.00  0.00    +0.000 OA
ATOM      6  C   UNL     1       5.973  -0.623  19.740  0.00  0.00    +0.000 C 
ATOM      7  C   UNL     1       7.301   0.061  19.383  0.00  0.00    +0.000 C 
ATOM      8  C   UNL     1       8.369  -0.228  20.311  0.00  0.00    +0.000 C 
ATOM      9  O   UNL     1       7.489   0.480  18.116  0.00  0.00    +0.000 OA
ENDBRANCH   1   3
BRANCH   1  10
ATOM     10  C   UNL     1       8.153  -2.072  23.630  0.00  0.00    +0.000 C 
ATOM     11  C   UNL     1       7.550  -1.692  25.003  0.00  0.00    +0.000 C 
ATOM     12  C   UNL     1       8.425  -2.528  26.020  0.00  0.00    +0.000 C 
ATOM     13  C   UNL     1       9.225  -3.445  25.063  0.00  0.00    +0.000 C 
ATOM     14  O   UNL     1       9.397  -2.675  23.891  0.00  0.00    +0.000 OA
BRANCH  13  15
ATOM     15  C   UNL     1       8.371  -4.642  24.719  0.00  0.00    +0.000 C 
ATOM     16  O   UNL     1       9.228  -5.675  24.286  0.00  0.00    +0.000 OA
ENDBRANCH  13  15
ENDBRANCH   1  10
BRANCH   1  17
ATOM     17  C   UNL     1       9.770  -0.416  22.757  0.00  0.00    +0.000 C 
BRANCH  17  19
ATOM     18  O   UNL     1      10.723   0.300  24.799  0.00  0.00    +0.000 OA
ATOM     19  C   UNL     1      10.012   0.773  23.682  0.00  0.00    +0.000 C 
ENDBRANCH  17  19
ENDBRANCH   1  17
TORSDOF 5
ENDMDL
MODEL 3
REMARK VINA RESULT:      -6.0      2.103      4.297
REMARK  Name = 
REMARK  5 active torsions:
REMARK  status: ('A' for Active; 'I' for Inactive)
REMARK    1  A    between atoms: C_2  and  C_3
REMARK    2  A    between atoms: C_3  and  C_4
REMARK    3  A    between atoms: C_4  and  C_5
REMARK    4  A    between atoms: C_4  and  C_12
REMARK    5  A    between atoms: C_16  and  C_19
REMARK                            x       y       z     vdW  Elec       q    Type
REMARK                         _______ _______ _______ _____ _____    ______ ____
ROOT
ATOM      1  C   UNL     1       8.366  -2.031  23.136  0.00  0.00    +0.000 C 
ATOM      2  C   UNL     1       9.878  -2.057  23.366  0.00  0.00    +0.000 C 
ENDROOT
BRANCH   1   3
ATOM      3  C   UNL     1       7.922  -3.509  23.000  0.00  0.00    +0.000 C 
ATOM      4  C   UNL     1       7.949  -4.518  24.020  0.00  0.00    +0.000 C 
ATOM      5  O   UNL     1       8.984  -5.470  24.292  0.00  0.00    +0.000 OA
ATOM      6  C   UNL     1       6.553  -5.335  24.026  0.00  0.00    +0.000 C 
ATOM      7  C   UNL     1       5.852  -4.698  22.817  0.00  0.00    +0.000 C 
ATOM      8  C   UNL     1       6.616  -3.644  22.192  0.00  0.00    +0.000 C 
ATOM      9  O   UNL     1       4.870  -5.390  22.205  0.00  0.00    +0.000 OA
ENDBRANCH   1   3
BRANCH   1  10
ATOM     10  C   UNL     1       8.055  -1.369  21.819  0.00  0.00    +0.000 C 
ATOM     11  C   UNL     1       9.265  -0.516  21.371  0.00  0.00    +0.000 C 
ATOM     12  C   UNL     1       8.594   0.835  20.900  0.00  0.00    +0.000 C 
ATOM     13  C   UNL     1       7.092   0.460  20.915  0.00  0.00    +0.000 C 
ATOM     14  O   UNL     1       6.970  -0.484  21.959  0.00  0.00    +0.000 OA
BRANCH  13  15
ATOM     15  C   UNL     1       6.756  -0.230  19.615  0.00  0.00    +0.000 C 
ATOM     16  O   UNL     1       7.491   0.399  18.589  0.00  0.00    +0.000 OA
ENDBRANCH  13  15
ENDBRANCH   1  10
BRANCH   1  17
ATOM     17  C   UNL     1       7.681  -1.334  24.264  0.00  0.00    +0.000 C 
BRANCH  17  19
ATOM     18  O   UNL     1       8.449   0.847  24.756  0.00  0.00    +0.000 OA
ATOM     19  C   UNL     1       8.681  -0.505  25.065  0.00  0.00    +0.000 C 
ENDBRANCH  17  19
ENDBRANCH   1  17
TORSDOF 5
ENDMDL
MODEL 4
REMARK VINA RESULT:      -5.7      3.493      6.686
REMARK  Name = 
REMARK  5 active torsions:
REMARK  status: ('A' for Active; 'I' for Inactive)
REMARK    1  A    between atoms: C_2  and  C_3
REMARK    2  A    between atoms: C_3  and  C_4
REMARK    3  A    between atoms: C_4  and  C_5
REMARK    4  A    between atoms: C_4  and  C_12
REMARK    5  A    between atoms: C_16  and  C_19
REMARK                            x       y       z     vdW  Elec       q    Type
REMARK                         _______ _______ _______ _____ _____    ______ ____
ROOT
ATOM      1  C   UNL     1       8.184   0.527  21.800  0.00  0.00    +0.000 C 
ATOM      2  C   UNL     1       9.452  -0.231  21.409  0.00  0.00    +0.000 C 
ENDROOT
BRANCH   1   3
ATOM      3  C   UNL     1       8.633   1.962  22.173  0.00  0.00    +0.000 C 
ATOM      4  C   UNL     1       8.069   2.811  23.183  0.00  0.00    +0.000 C 
ATOM      5  O   UNL     1       7.049   3.805  23.030  0.00  0.00    +0.000 OA
ATOM      6  C   UNL     1       9.249   3.487  24.058  0.00  0.00    +0.000 C 
ATOM      7  C   UNL     1      10.485   2.970  23.308  0.00  0.00    +0.000 C 
ATOM      8  C   UNL     1      10.169   2.092  22.206  0.00  0.00    +0.000 C 
ATOM      9  O   UNL     1      11.642   3.650  23.430  0.00  0.00    +0.000 OA
ENDBRANCH   1   3
BRANCH   1  10
ATOM     10  C   UNL     1       7.587  -0.071  23.047  0.00  0.00    +0.000 C 
ATOM     11  C   UNL     1       8.691  -0.798  23.851  0.00  0.00    +0.000 C 
ATOM     12  C   UNL     1       8.002  -2.164  24.247  0.00  0.00    +0.000 C 
ATOM     13  C   UNL     1       6.534  -1.907  23.827  0.00  0.00    +0.000 C 
ATOM     14  O   UNL     1       6.628  -1.044  22.713  0.00  0.00    +0.000 OA
BRANCH  13  15
ATOM     15  C   UNL     1       5.839  -1.163  24.943  0.00  0.00    +0.000 C 
ATOM     16  O   UNL     1       4.603  -1.799  25.183  0.00  0.00    +0.000 OA
ENDBRANCH  13  15
ENDBRANCH   1  10
BRANCH   1  17
ATOM     17  C   UNL     1       7.204   0.515  20.674  0.00  0.00    +0.000 C 
BRANCH  17  19
ATOM     18  O   UNL     1       7.303   0.561  18.312  0.00  0.00    +0.000 OA
ATOM     19  C   UNL     1       7.828  -0.112  19.431  0.00  0.00    +0.000 C 
ENDBRANCH  17  19
ENDBRANCH   1  17
TORSDOF 5
ENDMDL
MODEL 5
REMARK VINA RESULT:      -5.6      3.091      6.368
REMARK  Name = 
REMARK  5 active torsions:
REMARK  status: ('A' for Active; 'I' for Inactive)
REMARK    1  A    between atoms: C_2  and  C_3
REMARK    2  A    between atoms: C_3  and  C_4
REMARK    3  A    between atoms: C_4  and  C_5
REMARK    4  A    between atoms: C_4  and  C_12
REMARK    5  A    between atoms: C_16  and  C_19
REMARK                            x       y       z     vdW  Elec       q    Type
REMARK                         _______ _______ _______ _____ _____    ______ ____
ROOT
ATOM      1  C   UNL     1       7.468  -0.195  21.442  0.00  0.00    +0.000 C 
ATOM      2  C   UNL     1       8.936  -0.471  21.116  0.00  0.00    +0.000 C 
ENDROOT
BRANCH   1   3
ATOM      3  C   UNL     1       7.457   1.021  22.401  0.00  0.00    +0.000 C 
ATOM      4  C   UNL     1       8.532   1.475  23.235  0.00  0.00    +0.000 C 
ATOM      5  O   UNL     1       8.785   1.145  24.606  0.00  0.00    +0.000 OA
ATOM      6  C   UNL     1       8.691   3.080  23.107  0.00  0.00    +0.000 C 
ATOM      7  C   UNL     1       7.501   3.406  22.193  0.00  0.00    +0.000 C 
ATOM      8  C   UNL     1       6.757   2.242  21.771  0.00  0.00    +0.000 C 
ATOM      9  O   UNL     1       7.007   4.660  22.204  0.00  0.00    +0.000 OA
ENDBRANCH   1   3
BRANCH   1  10
ATOM     10  C   UNL     1       6.883  -1.351  22.211  0.00  0.00    +0.000 C 
ATOM     11  C   UNL     1       8.024  -2.275  22.702  0.00  0.00    +0.000 C 
ATOM     12  C   UNL     1       7.484  -3.720  22.360  0.00  0.00    +0.000 C 
ATOM     13  C   UNL     1       6.019  -3.420  21.957  0.00  0.00    +0.000 C 
ATOM     14  O   UNL     1       6.066  -2.133  21.375  0.00  0.00    +0.000 OA
BRANCH  13  15
ATOM     15  C   UNL     1       5.183  -3.338  23.212  0.00  0.00    +0.000 C 
ATOM     16  O   UNL     1       5.517  -4.440  24.027  0.00  0.00    +0.000 OA
ENDBRANCH  13  15
ENDBRANCH   1  10
BRANCH   1  17
ATOM     17  C   UNL     1       6.698   0.063  20.190  0.00  0.00    +0.000 C 
BRANCH  17  19
ATOM     18  O   UNL     1       6.996   0.748  17.946  0.00  0.00    +0.000 OA
ATOM     19  C   UNL     1       7.623   0.024  18.977  0.00  0.00    +0.000 C 
ENDBRANCH  17  19
ENDBRANCH   1  17
TORSDOF 5
ENDMDL
MODEL 6
REMARK VINA RESULT:      -5.5      3.755      6.315
REMARK  Name = 
REMARK  5 active torsions:
REMARK  status: ('A' for Active; 'I' for Inactive)
REMARK    1  A    between atoms: C_2  and  C_3
REMARK    2  A    between atoms: C_3  and  C_4
REMARK    3  A    between atoms: C_4  and  C_5
REMARK    4  A    between atoms: C_4  and  C_12
REMARK    5  A    between atoms: C_16  and  C_19
REMARK                            x       y       z     vdW  Elec       q    Type
REMARK                         _______ _______ _______ _____ _____    ______ ____
ROOT
ATOM      1  C   UNL     1       8.934   0.292  22.626  0.00  0.00    +0.000 C 
ATOM      2  C   UNL     1       9.738   1.372  21.902  0.00  0.00    +0.000 C 
ENDROOT
BRANCH   1   3
ATOM      3  C   UNL     1       8.279  -0.575  21.522  0.00  0.00    +0.000 C 
ATOM      4  C   UNL     1       7.070  -1.340  21.627  0.00  0.00    +0.000 C 
ATOM      5  O   UNL     1       6.928  -2.724  21.972  0.00  0.00    +0.000 OA
ATOM      6  C   UNL     1       6.143  -1.090  20.325  0.00  0.00    +0.000 C 
ATOM      7  C   UNL     1       7.069  -0.192  19.492  0.00  0.00    +0.000 C 
ATOM      8  C   UNL     1       8.317   0.120  20.147  0.00  0.00    +0.000 C 
ATOM      9  O   UNL     1       6.873  -0.126  18.160  0.00  0.00    +0.000 OA
ENDBRANCH   1   3
BRANCH   1  10
ATOM     10  C   UNL     1       7.807   0.919  23.403  0.00  0.00    +0.000 C 
ATOM     11  C   UNL     1       8.152   2.395  23.715  0.00  0.00    +0.000 C 
ATOM     12  C   UNL     1       7.754   2.540  25.237  0.00  0.00    +0.000 C 
ATOM     13  C   UNL     1       7.013   1.205  25.495  0.00  0.00    +0.000 C 
ATOM     14  O   UNL     1       7.647   0.274  24.643  0.00  0.00    +0.000 OA
BRANCH  13  15
ATOM     15  C   UNL     1       5.580   1.357  25.043  0.00  0.00    +0.000 C 
ATOM     16  O   UNL     1       4.918   0.134  25.280  0.00  0.00    +0.000 OA
ENDBRANCH  13  15
ENDBRANCH   1  10
BRANCH   1  17
ATOM     17  C   UNL     1       9.825  -0.506  23.519  0.00  0.00    +0.000 C 
BRANCH  17  19
ATOM     18  O   UNL     1      10.205  -2.838  23.600  0.00  0.00    +0.000 OA
ATOM     19  C   UNL     1      10.385  -1.714  22.774  0.00  0.00    +0.000 C 
ENDBRANCH  17  19
ENDBRANCH   1  17
TORSDOF 5
ENDMDL
MODEL 7
REMARK VINA RESULT:      -5.5      2.833      4.772
REMARK  Name = 
REMARK  5 active torsions:
REMARK  status: ('A' for Active; 'I' for Inactive)
REMARK    1  A    between atoms: C_2  and  C_3
REMARK    2  A    between atoms: C_3  and  C_4
REMARK    3  A    between atoms: C_4  and  C_5
REMARK    4  A    between atoms: C_4  and  C_12
REMARK    5  A    between atoms: C_16  and  C_19
REMARK                            x       y       z     vdW  Elec       q    Type
REMARK                         _______ _______ _______ _____ _____    ______ ____
ROOT
ATOM      1  C   UNL     1       7.778   0.234  22.492  0.00  0.00    +0.000 C 
ATOM      2  C   UNL     1       6.546   0.237  23.397  0.00  0.00    +0.000 C 
ENDROOT
BRANCH   1   3
ATOM      3  C   UNL     1       8.342  -1.207  22.531  0.00  0.00    +0.000 C 
ATOM      4  C   UNL     1       9.621  -1.623  23.031  0.00  0.00    +0.000 C 
ATOM      5  O   UNL     1      10.840  -1.797  22.298  0.00  0.00    +0.000 OA
ATOM      6  C   UNL     1       9.450  -2.932  23.965  0.00  0.00    +0.000 C 
ATOM      7  C   UNL     1       7.948  -3.201  23.797  0.00  0.00    +0.000 C 
ATOM      8  C   UNL     1       7.274  -2.230  22.966  0.00  0.00    +0.000 C 
ATOM      9  O   UNL     1       7.486  -4.444  24.039  0.00  0.00    +0.000 OA
ENDBRANCH   1   3
BRANCH   1  10
ATOM     10  C   UNL     1       8.845   1.127  23.068  0.00  0.00    +0.000 C 
ATOM     11  C   UNL     1       8.545   1.394  24.563  0.00  0.00    +0.000 C 
ATOM     12  C   UNL     1       8.782   2.950  24.702  0.00  0.00    +0.000 C 
ATOM     13  C   UNL     1       9.421   3.292  23.333  0.00  0.00    +0.000 C 
ATOM     14  O   UNL     1       8.836   2.380  22.428  0.00  0.00    +0.000 OA
BRANCH  13  15
ATOM     15  C   UNL     1      10.901   2.998  23.408  0.00  0.00    +0.000 C 
ATOM     16  O   UNL     1      11.590   4.227  23.346  0.00  0.00    +0.000 OA
ENDBRANCH  13  15
ENDBRANCH   1  10
BRANCH   1  17
ATOM     17  C   UNL     1       7.407   0.661  21.110  0.00  0.00    +0.000 C 
BRANCH  17  19
ATOM     18  O   UNL     1       7.691   0.189  18.811  0.00  0.00    +0.000 OA
ATOM     19  C   UNL     1       8.232  -0.100  20.077  0.00  0.00    +0.000 C 
ENDBRANCH  17  19
ENDBRANCH   1  17
TORSDOF 5
ENDMDL
MODEL 8
REMARK VINA RESULT:      -5.5      1.774      5.355
REMARK  Name = 
REMARK  5 active torsions:
REMARK  status: ('A' for Active; 'I' for Inactive)
REMARK    1  A    between atoms: C_2  and  C_3
REMARK    2  A    between atoms: C_3  and  C_4
REMARK    3  A    between atoms: C_4  and  C_5
REMARK    4  A    between atoms: C_4  and  C_12
REMARK    5  A    between atoms: C_16  and  C_19
REMARK                            x       y       z     vdW  Elec       q    Type
REMARK                         _______ _______ _______ _____ _____    ______ ____
ROOT
ATOM      1  C   UNL     1       7.507  -2.353  24.098  0.00  0.00    +0.000 C 
ATOM      2  C   UNL     1       6.267  -1.622  24.612  0.00  0.00    +0.000 C 
ENDROOT
BRANCH   1   3
ATOM      3  C   UNL     1       8.361  -1.293  23.358  0.00  0.00    +0.000 C 
ATOM      4  C   UNL     1       9.226  -1.509  22.235  0.00  0.00    +0.000 C 
ATOM      5  O   UNL     1      10.634  -1.777  22.245  0.00  0.00    +0.000 OA
ATOM      6  C   UNL     1       8.980  -0.366  21.118  0.00  0.00    +0.000 C 
ATOM      7  C   UNL     1       7.963   0.523  21.849  0.00  0.00    +0.000 C 
ATOM      8  C   UNL     1       7.587   0.025  23.151  0.00  0.00    +0.000 C 
ATOM      9  O   UNL     1       7.838   1.808  21.463  0.00  0.00    +0.000 OA
ENDBRANCH   1   3
BRANCH   1  10
ATOM     10  C   UNL     1       7.112  -3.378  23.067  0.00  0.00    +0.000 C 
ATOM     11  C   UNL     1       5.609  -3.222  22.732  0.00  0.00    +0.000 C 
ATOM     12  C   UNL     1       5.085  -4.713  22.745  0.00  0.00    +0.000 C 
ATOM     13  C   UNL     1       6.409  -5.510  22.837  0.00  0.00    +0.000 C 
ATOM     14  O   UNL     1       7.275  -4.678  23.581  0.00  0.00    +0.000 OA
BRANCH  13  15
ATOM     15  C   UNL     1       6.978  -5.657  21.446  0.00  0.00    +0.000 C 
ATOM     16  O   UNL     1       5.898  -5.803  20.550  0.00  0.00    +0.000 OA
ENDBRANCH  13  15
ENDBRANCH   1  10
BRANCH   1  17
ATOM     17  C   UNL     1       8.244  -2.985  25.231  0.00  0.00    +0.000 C 
BRANCH  17  19
ATOM     18  O   UNL     1       7.569  -4.170  27.163  0.00  0.00    +0.000 OA
ATOM     19  C   UNL     1       7.407  -2.937  26.506  0.00  0.00    +0.000 C 
ENDBRANCH  17  19
ENDBRANCH   1  17
TORSDOF 5
ENDMDL
MODEL 9
REMARK VINA RESULT:      -5.4      2.370      6.362
REMARK  Name = 
REMARK  5 active torsions:
REMARK  status: ('A' for Active; 'I' for Inactive)
REMARK    1  A    between atoms: C_2  and  C_3
REMARK    2  A    between atoms: C_3  and  C_4
REMARK    3  A    between atoms: C_4  and  C_5
REMARK    4  A    between atoms: C_4  and  C_12
REMARK    5  A    between atoms: C_16  and  C_19
REMARK                            x       y       z     vdW  Elec       q    Type
REMARK                         _______ _______ _______ _____ _____    ______ ____
ROOT
ATOM      1  C   UNL     1       8.683  -0.763  24.371  0.00  0.00    +0.000 C 
ATOM      2  C   UNL     1       8.326   0.104  25.579  0.00  0.00    +0.000 C 
ENDROOT
BRANCH   1   3
ATOM      3  C   UNL     1       7.828  -0.237  23.191  0.00  0.00    +0.000 C 
ATOM      4  C   UNL     1       7.388   1.111  22.974  0.00  0.00    +0.000 C 
ATOM      5  O   UNL     1       6.146   1.707  23.368  0.00  0.00    +0.000 OA
ATOM      6  C   UNL     1       7.638   1.534  21.433  0.00  0.00    +0.000 C 
ATOM      7  C   UNL     1       8.158   0.207  20.861  0.00  0.00    +0.000 C 
ATOM      8  C   UNL     1       8.273  -0.844  21.845  0.00  0.00    +0.000 C 
ATOM      9  O   UNL     1       8.058  -0.004  19.533  0.00  0.00    +0.000 OA
ENDBRANCH   1   3
BRANCH   1  10
ATOM     10  C   UNL     1       8.251  -2.186  24.610  0.00  0.00    +0.000 C 
ATOM     11  C   UNL     1       7.953  -2.389  26.115  0.00  0.00    +0.000 C 
ATOM     12  C   UNL     1       8.666  -3.762  26.437  0.00  0.00    +0.000 C 
ATOM     13  C   UNL     1       9.048  -4.256  25.021  0.00  0.00    +0.000 C 
ATOM     14  O   UNL     1       9.291  -3.075  24.284  0.00  0.00    +0.000 OA
BRANCH  13  15
ATOM     15  C   UNL     1       7.851  -4.951  24.416  0.00  0.00    +0.000 C 
ATOM     16  O   UNL     1       8.263  -5.548  23.206  0.00  0.00    +0.000 OA
ENDBRANCH  13  15
ENDBRANCH   1  10
BRANCH   1  17
ATOM     17  C   UNL     1      10.147  -0.684  24.090  0.00  0.00    +0.000 C 
BRANCH  17  19
ATOM     18  O   UNL     1      10.835   1.559  23.794  0.00  0.00    +0.000 OA
ATOM     19  C   UNL     1      10.754   0.543  24.764  0.00  0.00    +0.000 C 
ENDBRANCH  17  19
ENDBRANCH   1  17
TORSDOF 5
ENDMDL
