MODEL 1
REMARK VINA RESULT:      -5.8      0.000      0.000
REMARK  Name = 
REMARK  3 active torsions:
REMARK  status: ('A' for Active; 'I' for Inactive)
REMARK    1  A    between atoms: C_2  and  C_3
REMARK    2  A    between atoms: C_7  and  N_8
REMARK    3  A    between atoms: C_12  and  N_15
REMARK                            x       y       z     vdW  Elec       q    Type
REMARK                         _______ _______ _______ _____ _____    ______ ____
ROOT
ATOM      1  C   UNL     1       8.785   0.508  23.162  0.00  0.00    +0.000 C 
ATOM      2  C   UNL     1       7.658   1.212  22.340  0.00  0.00    +0.000 C 
ATOM      3  C   UNL     1       7.463   0.040  21.243  0.00  0.00    +0.000 C 
ATOM      4  C   UNL     1       6.923   0.227  20.057  0.00  0.00    +0.000 C 
ATOM      5  C   UNL     1       7.762  -1.232  22.062  0.00  0.00    +0.000 C 
ATOM      6  O   UNL     1       8.422  -0.841  23.225  0.00  0.00    +0.000 OA
ENDROOT
BRANCH   4   7
ATOM      7  N   UNL     1       7.431   0.347  18.738  0.00  0.00    +0.000 NA
ATOM      8  C   UNL     1       6.289   0.188  17.971  0.00  0.00    +0.000 C 
ATOM      9  O   UNL     1       5.899  -0.951  17.748  0.00  0.00    +0.000 OA
ATOM     10  N   UNL     1       5.393   1.089  18.475  0.00  0.00    +0.000 NA
ENDBRANCH   4   7
BRANCH   5  11
ATOM     11  N   UNL     1       6.529  -1.903  22.343  0.00  0.00    +0.000 NA
ATOM     12  C   UNL     1       6.363  -3.201  21.995  0.00  0.00    +0.000 C 
ATOM     13  O   UNL     1       7.222  -4.022  22.236  0.00  0.00    +0.000 OA
ATOM     14  N   UNL     1       5.661  -3.246  20.843  0.00  0.00    +0.000 NA
ENDBRANCH   5  11
BRANCH   1  16
ATOM     15  O   UNL     1      10.242   1.975  21.995  0.00  0.00    +0.000 OA
ATOM     16  C   UNL     1      10.074   0.636  22.386  0.00  0.00    +0.000 C 
ENDBRANCH   1  16
TORSDOF 3
ENDMDL
MODEL 2
REMARK VINA RESULT:      -5.7      2.434      4.208
REMARK  Name = 
REMARK  3 active torsions:
REMARK  status: ('A' for Active; 'I' for Inactive)
REMARK    1  A    between atoms: C_2  and  C_3
REMARK    2  A    between atoms: C_7  and  N_8
REMARK    3  A    between atoms: C_12  and  N_15
REMARK                            x       y       z     vdW  Elec       q    Type
REMARK                         _______ _______ _______ _____ _____    ______ ____
ROOT
ATOM      1  C   UNL     1       7.911   0.529  20.326  0.00  0.00    +0.000 C 
ATOM      2  C   UNL     1       6.629   0.178  21.149  0.00  0.00    +0.000 C 
ATOM      3  C   UNL     1       7.065  -1.328  21.546  0.00  0.00    +0.000 C 
ATOM      4  C   UNL     1       6.215  -2.266  21.908  0.00  0.00    +0.000 C 
ATOM      5  C   UNL     1       8.597  -1.207  21.667  0.00  0.00    +0.000 C 
ATOM      6  O   UNL     1       8.980  -0.025  21.035  0.00  0.00    +0.000 OA
ENDROOT
BRANCH   4   7
ATOM      7  N   UNL     1       5.650  -3.399  21.268  0.00  0.00    +0.000 NA
ATOM      8  C   UNL     1       6.105  -4.438  22.063  0.00  0.00    +0.000 C 
ATOM      9  O   UNL     1       7.239  -4.858  21.869  0.00  0.00    +0.000 OA
ATOM     10  N   UNL     1       5.756  -4.090  23.339  0.00  0.00    +0.000 NA
ENDBRANCH   4   7
BRANCH   5  11
ATOM     11  N   UNL     1       8.955  -1.216  23.053  0.00  0.00    +0.000 NA
ATOM     12  C   UNL     1       9.821  -2.142  23.529  0.00  0.00    +0.000 C 
ATOM     13  O   UNL     1      10.855  -2.382  22.943  0.00  0.00    +0.000 OA
ATOM     14  N   UNL     1       9.111  -3.127  24.118  0.00  0.00    +0.000 NA
ENDBRANCH   5  11
BRANCH   1  16
ATOM     15  O   UNL     1       7.057   0.662  18.115  0.00  0.00    +0.000 OA
ATOM     16  C   UNL     1       7.801  -0.154  18.984  0.00  0.00    +0.000 C 
ENDBRANCH   1  16
TORSDOF 3
ENDMDL
MODEL 3
REMARK VINA RESULT:      -5.5      1.848      5.202
REMARK  Name = 
REMARK  3 active torsions:
REMARK  status: ('A' for Active; 'I' for Inactive)
REMARK    1  A    between atoms: C_2  and  C_3
REMARK    2  A    between atoms: C_7  and  N_8
REMARK    3  A    between atoms: C_12  and  N_15
REMARK                            x       y       z     vdW  Elec       q    Type
REMARK                         _______ _______ _______ _____ _____    ______ ____
ROOT
ATOM      1  C   UNL     1       5.546  -3.386  21.943  0.00  0.00    +0.000 C 
ATOM      2  C   UNL     1       6.169  -2.300  22.879  0.00  0.00    +0.000 C 
ATOM      3  C   UNL     1       7.280  -1.764  21.833  0.00  0.00    +0.000 C 
ATOM      4  C   UNL     1       8.368  -1.114  22.188  0.00  0.00    +0.000 C 
ATOM      5  C   UNL     1       6.570  -1.942  20.476  0.00  0.00    +0.000 C 
ATOM      6  O   UNL     1       5.494  -2.806  20.672  0.00  0.00    +0.000 OA
ENDROOT
BRANCH   4   7
ATOM      7  N   UNL     1       9.739  -1.460  22.312  0.00  0.00    +0.000 NA
ATOM      8  C   UNL     1      10.204  -0.491  23.187  0.00  0.00    +0.000 C 
ATOM      9  O   UNL     1      10.492   0.607  22.729  0.00  0.00    +0.000 OA
ATOM     10  N   UNL     1       9.355  -0.541  24.258  0.00  0.00    +0.000 NA
ENDBRANCH   4   7
BRANCH   5  11
ATOM     11  N   UNL     1       6.149  -0.660  20.000  0.00  0.00    +0.000 NA
ATOM     12  C   UNL     1       6.318  -0.324  18.699  0.00  0.00    +0.000 C 
ATOM     13  O   UNL     1       6.010  -1.096  17.816  0.00  0.00    +0.000 OA
ATOM     14  N   UNL     1       7.422   0.445  18.597  0.00  0.00    +0.000 NA
ENDBRANCH   5  11
BRANCH   1  16
ATOM     15  O   UNL     1       6.102  -5.430  20.872  0.00  0.00    +0.000 OA
ATOM     16  C   UNL     1       6.488  -4.565  21.909  0.00  0.00    +0.000 C 
ENDBRANCH   1  16
TORSDOF 3
ENDMDL
MODEL 4
REMARK VINA RESULT:      -5.4      1.658      4.038
REMARK  Name = 
REMARK  3 active torsions:
REMARK  status: ('A' for Active; 'I' for Inactive)
REMARK    1  A    between atoms: C_2  and  C_3
REMARK    2  A    between atoms: C_7  and  N_8
REMARK    3  A    between atoms: C_12  and  N_15
REMARK                            x       y       z     vdW  Elec       q    Type
REMARK                         _______ _______ _______ _____ _____    ______ ____
ROOT
ATOM      1  C   UNL     1      10.091   0.489  22.308  0.00  0.00    +0.000 C 
ATOM      2  C   UNL     1      10.003  -1.060  22.114  0.00  0.00    +0.000 C 
ATOM      3  C   UNL     1       8.396  -1.140  21.955  0.00  0.00    +0.000 C 
ATOM      4  C   UNL     1       7.692  -2.233  22.158  0.00  0.00    +0.000 C 
ATOM      5  C   UNL     1       8.065   0.197  21.261  0.00  0.00    +0.000 C 
ATOM      6  O   UNL     1       9.168   1.036  21.412  0.00  0.00    +0.000 OA
ENDROOT
BRANCH   4   7
ATOM      7  N   UNL     1       6.860  -2.703  23.208  0.00  0.00    +0.000 NA
ATOM      8  C   UNL     1       6.197  -3.758  22.604  0.00  0.00    +0.000 C 
ATOM      9  O   UNL     1       5.223  -3.503  21.907  0.00  0.00    +0.000 OA
ATOM     10  N   UNL     1       7.184  -4.540  22.071  0.00  0.00    +0.000 NA
ENDBRANCH   4   7
BRANCH   5  11
ATOM     11  N   UNL     1       7.767  -0.056  19.885  0.00  0.00    +0.000 NA
ATOM     12  C   UNL     1       6.533   0.206  19.393  0.00  0.00    +0.000 C 
ATOM     13  O   UNL     1       5.979   1.256  19.640  0.00  0.00    +0.000 OA
ATOM     14  N   UNL     1       5.840  -0.950  19.341  0.00  0.00    +0.000 NA
ENDBRANCH   5  11
BRANCH   1  16
ATOM     15  O   UNL     1      10.579   0.244  24.619  0.00  0.00    +0.000 OA
ATOM     16  C   UNL     1       9.656   0.804  23.719  0.00  0.00    +0.000 C 
ENDBRANCH   1  16
TORSDOF 3
ENDMDL
MODEL 5
REMARK VINA RESULT:      -5.4      3.578      5.656
REMARK  Name = 
REMARK  3 active torsions:
REMARK  status: ('A' for Active; 'I' for Inactive)
REMARK    1  A    between atoms: C_2  and  C_3
REMARK    2  A    between atoms: C_7  and  N_8
REMARK    3  A    between atoms: C_12  and  N_15
REMARK                            x       y       z     vdW  Elec       q    Type
REMARK                         _______ _______ _______ _____ _____    ______ ____
ROOT
ATOM      1  C   UNL     1       6.702  -4.020  26.781  0.00  0.00    +0.000 C 
ATOM      2  C   UNL     1       7.498  -2.703  26.504  0.00  0.00    +0.000 C 
ATOM      3  C   UNL     1       7.784  -2.980  24.937  0.00  0.00    +0.000 C 
ATOM      4  C   UNL     1       8.752  -2.404  24.256  0.00  0.00    +0.000 C 
ATOM      5  C   UNL     1       6.526  -3.758  24.504  0.00  0.00    +0.000 C 
ATOM      6  O   UNL     1       5.893  -4.217  25.658  0.00  0.00    +0.000 OA
ENDROOT
BRANCH   4   7
ATOM      7  N   UNL     1      10.027  -2.819  23.791  0.00  0.00    +0.000 NA
ATOM      8  C   UNL     1      10.385  -1.774  22.955  0.00  0.00    +0.000 C 
ATOM      9  O   UNL     1       9.939  -1.771  21.814  0.00  0.00    +0.000 OA
ATOM     10  N   UNL     1      10.233  -0.645  23.710  0.00  0.00    +0.000 NA
ENDBRANCH   4   7
BRANCH   5  11
ATOM     11  N   UNL     1       5.684  -2.890  23.738  0.00  0.00    +0.000 NA
ATOM     12  C   UNL     1       5.388  -3.185  22.451  0.00  0.00    +0.000 C 
ATOM     13  O   UNL     1       5.042  -4.304  22.136  0.00  0.00    +0.000 OA
ATOM     14  N   UNL     1       6.191  -2.454  21.650  0.00  0.00    +0.000 NA
ENDBRANCH   5  11
BRANCH   1  16
ATOM     15  O   UNL     1       7.341  -5.987  27.947  0.00  0.00    +0.000 OA
ATOM     16  C   UNL     1       7.698  -5.151  26.875  0.00  0.00    +0.000 C 
ENDBRANCH   1  16
TORSDOF 3
ENDMDL
MODEL 6
REMARK VINA RESULT:      -5.4      4.102      6.377
REMARK  Name = 
REMARK  3 active torsions:
REMARK  status: ('A' for Active; 'I' for Inactive)
REMARK    1  A    between atoms: C_2  and  C_3
REMARK    2  A    between atoms: C_7  and  N_8
REMARK    3  A    between atoms: C_12  and  N_15
REMARK                            x       y       z     vdW  Elec       q    Type
REMARK                         _______ _______ _______ _____ _____    ______ ____
ROOT
ATOM      1  C   UNL     1       9.403  -2.662  23.943  0.00  0.00    +0.000 C 
ATOM      2  C   UNL     1       9.283  -3.972  24.787  0.00  0.00    +0.000 C 
ATOM      3  C   UNL     1       7.692  -4.181  24.587  0.00  0.00    +0.000 C 
ATOM      4  C   UNL     1       6.941  -4.905  25.390  0.00  0.00    +0.000 C 
ATOM      5  C   UNL     1       7.460  -3.618  23.171  0.00  0.00    +0.000 C 
ATOM      6  O   UNL     1       8.573  -2.848  22.834  0.00  0.00    +0.000 OA
ENDROOT
BRANCH   4   7
ATOM      7  N   UNL     1       6.013  -4.609  26.422  0.00  0.00    +0.000 NA
ATOM      8  C   UNL     1       6.143  -5.711  27.252  0.00  0.00    +0.000 C 
ATOM      9  O   UNL     1       5.532  -6.730  26.956  0.00  0.00    +0.000 OA
ATOM     10  N   UNL     1       7.483  -5.812  27.504  0.00  0.00    +0.000 NA
ENDBRANCH   4   7
BRANCH   5  11
ATOM     11  N   UNL     1       7.267  -4.708  22.264  0.00  0.00    +0.000 NA
ATOM     12  C   UNL     1       6.137  -4.787  21.522  0.00  0.00    +0.000 C 
ATOM     13  O   UNL     1       5.715  -3.816  20.930  0.00  0.00    +0.000 OA
ATOM     14  N   UNL     1       5.295  -5.657  22.118  0.00  0.00    +0.000 NA
ENDBRANCH   5  11
BRANCH   1  16
ATOM     15  O   UNL     1       9.910  -0.622  25.047  0.00  0.00    +0.000 OA
ATOM     16  C   UNL     1       8.866  -1.523  24.776  0.00  0.00    +0.000 C 
ENDBRANCH   1  16
TORSDOF 3
ENDMDL
MODEL 7
REMARK VINA RESULT:      -5.3      4.156      6.501
REMARK  Name = 
REMARK  3 active torsions:
REMARK  status: ('A' for Active; 'I' for Inactive)
REMARK    1  A    between atoms: C_2  and  C_3
REMARK    2  A    between atoms: C_7  and  N_8
REMARK    3  A    between atoms: C_12  and  N_15
REMARK                            x       y       z     vdW  Elec       q    Type
REMARK                         _______ _______ _______ _____ _____    ______ ____
ROOT
ATOM      1  C   UNL     1       5.513  -5.708  23.054  0.00  0.00    +0.000 C 
ATOM      2  C   UNL     1       6.882  -5.341  22.397  0.00  0.00    +0.000 C 
ATOM      3  C   UNL     1       7.359  -4.288  23.528  0.00  0.00    +0.000 C 
ATOM      4  C   UNL     1       8.264  -3.354  23.326  0.00  0.00    +0.000 C 
ATOM      5  C   UNL     1       6.742  -4.879  24.811  0.00  0.00    +0.000 C 
ATOM      6  O   UNL     1       5.761  -5.793  24.427  0.00  0.00    +0.000 OA
ENDROOT
BRANCH   4   7
ATOM      7  N   UNL     1       8.219  -1.953  23.108  0.00  0.00    +0.000 NA
ATOM      8  C   UNL     1       9.462  -1.548  23.566  0.00  0.00    +0.000 C 
ATOM      9  O   UNL     1       9.607  -1.385  24.771  0.00  0.00    +0.000 OA
ATOM     10  N   UNL     1      10.360  -2.343  22.910  0.00  0.00    +0.000 NA
ENDBRANCH   4   7
BRANCH   5  11
ATOM     11  N   UNL     1       7.778  -5.496  25.583  0.00  0.00    +0.000 NA
ATOM     12  C   UNL     1       8.017  -5.090  26.853  0.00  0.00    +0.000 C 
ATOM     13  O   UNL     1       7.104  -4.932  27.635  0.00  0.00    +0.000 OA
ATOM     14  N   UNL     1       9.075  -4.253  26.841  0.00  0.00    +0.000 NA
ENDBRANCH   5  11
BRANCH   1  16
ATOM     15  O   UNL     1       3.237  -5.044  22.920  0.00  0.00    +0.000 OA
ATOM     16  C   UNL     1       4.555  -4.570  22.796  0.00  0.00    +0.000 C 
ENDBRANCH   1  16
TORSDOF 3
ENDMDL
MODEL 8
REMARK VINA RESULT:      -5.3      2.272      4.338
REMARK  Name = 
REMARK  3 active torsions:
REMARK  status: ('A' for Active; 'I' for Inactive)
REMARK    1  A    between atoms: C_2  and  C_3
REMARK    2  A    between atoms: C_7  and  N_8
REMARK    3  A    between atoms: C_12  and  N_15
REMARK                            x       y       z     vdW  Elec       q    Type
REMARK                         _______ _______ _______ _____ _____    ______ ____
ROOT
ATOM      1  C   UNL     1       6.183  -0.523  18.807  0.00  0.00    +0.000 C 
ATOM      2  C   UNL     1       7.676  -0.089  18.972  0.00  0.00    +0.000 C 
ATOM      3  C   UNL     1       7.620   0.176  20.566  0.00  0.00    +0.000 C 
ATOM      4  C   UNL     1       8.477   0.938  21.213  0.00  0.00    +0.000 C 
ATOM      5  C   UNL     1       6.596  -0.873  21.041  0.00  0.00    +0.000 C 
ATOM      6  O   UNL     1       5.893  -1.315  19.922  0.00  0.00    +0.000 OA
ENDROOT
BRANCH   4   7
ATOM      7  N   UNL     1       8.435   2.251  21.750  0.00  0.00    +0.000 NA
ATOM      8  C   UNL     1       8.797   2.036  23.070  0.00  0.00    +0.000 C 
ATOM      9  O   UNL     1       7.932   1.658  23.850  0.00  0.00    +0.000 OA
ATOM     10  N   UNL     1       9.964   1.327  23.009  0.00  0.00    +0.000 NA
ENDBRANCH   4   7
BRANCH   5  11
ATOM     11  N   UNL     1       7.293  -1.940  21.694  0.00  0.00    +0.000 NA
ATOM     12  C   UNL     1       6.947  -2.316  22.948  0.00  0.00    +0.000 C 
ATOM     13  O   UNL     1       5.783  -2.481  23.246  0.00  0.00    +0.000 OA
ATOM     14  N   UNL     1       7.814  -1.754  23.816  0.00  0.00    +0.000 NA
ENDBRANCH   5  11
BRANCH   1  16
ATOM     15  O   UNL     1       5.718   1.580  17.808  0.00  0.00    +0.000 OA
ATOM     16  C   UNL     1       5.331   0.722  18.852  0.00  0.00    +0.000 C 
ENDBRANCH   1  16
TORSDOF 3
ENDMDL
MODEL 9
REMARK VINA RESULT:      -5.2      1.871      4.429
REMARK  Name = 
REMARK  3 active torsions:
REMARK  status: ('A' for Active; 'I' for Inactive)
REMARK    1  A    between atoms: C_2  and  C_3
REMARK    2  A    between atoms: C_7  and  N_8
REMARK    3  A    between atoms: C_12  and  N_15
REMARK                            x       y       z     vdW  Elec       q    Type
REMARK                         _______ _______ _______ _____ _____    ______ ____
ROOT
ATOM      1  C   UNL     1       9.570   1.714  22.172  0.00  0.00    +0.000 C 
ATOM      2  C   UNL     1      10.042   0.225  22.246  0.00  0.00    +0.000 C 
ATOM      3  C   UNL     1       8.572  -0.443  22.156  0.00  0.00    +0.000 C 
ATOM      4  C   UNL     1       8.296  -1.664  22.564  0.00  0.00    +0.000 C 
ATOM      5  C   UNL     1       7.811   0.551  21.258  0.00  0.00    +0.000 C 
ATOM      6  O   UNL     1       8.540   1.739  21.228  0.00  0.00    +0.000 OA
ENDROOT
BRANCH   4   7
ATOM      7  N   UNL     1       7.653  -2.211  23.705  0.00  0.00    +0.000 NA
ATOM      8  C   UNL     1       8.294  -3.432  23.841  0.00  0.00    +0.000 C 
ATOM      9  O   UNL     1       7.912  -4.363  23.143  0.00  0.00    +0.000 OA
ATOM     10  N   UNL     1       9.629  -3.136  23.846  0.00  0.00    +0.000 NA
ENDBRANCH   4   7
BRANCH   5  11
ATOM     11  N   UNL     1       7.662  -0.021  19.954  0.00  0.00    +0.000 NA
ATOM     12  C   UNL     1       6.482   0.073  19.297  0.00  0.00    +0.000 C 
ATOM     13  O   UNL     1       5.888   1.129  19.239  0.00  0.00    +0.000 OA
ATOM     14  N   UNL     1       5.817  -1.092  19.445  0.00  0.00    +0.000 NA
ENDBRANCH   5  11
BRANCH   1  16
ATOM     15  O   UNL     1      10.007   1.913  24.497  0.00  0.00    +0.000 OA
ATOM     16  C   UNL     1       9.010   2.090  23.523  0.00  0.00    +0.000 C 
ENDBRANCH   1  16
TORSDOF 3
ENDMDL
