MODEL 1
REMARK VINA RESULT:      -9.1      0.000      0.000
REMARK  Name = 
REMARK  3 active torsions:
REMARK  status: ('A' for Active; 'I' for Inactive)
REMARK    1  A    between atoms: C_5  and  C_7
REMARK    2  A    between atoms: C_12  and  N_13
REMARK    3  A    between atoms: C_19  and  S_24
REMARK                            x       y       z     vdW  Elec       q    Type
REMARK                         _______ _______ _______ _____ _____    ______ ____
ROOT
ATOM      1  N   UNL     1       7.564  -1.249  24.743  0.00  0.00    +0.000 N 
ATOM      2  C   UNL     1       8.307  -1.234  25.966  0.00  0.00    +0.000 C 
ATOM      3  C   UNL     1       8.421  -2.661  26.491  0.00  0.00    +0.000 C 
ATOM      4  C   UNL     1       8.288  -3.647  25.337  0.00  0.00    +0.000 C 
ATOM      5  N   UNL     1       6.988  -3.520  24.724  0.00  0.00    +0.000 N 
ATOM      6  C   UNL     1       6.420  -2.160  24.609  0.00  0.00    +0.000 C 
ATOM      7  C   UNL     1       6.029  -4.528  24.961  0.00  0.00    +0.000 C 
ATOM      8  C   UNL     1       6.064  -5.367  26.013  0.00  0.00    +0.000 C 
ATOM      9  C   UNL     1       7.443  -5.398  26.883  0.00  0.00    +0.000 C 
ATOM     10  C   UNL     1       8.510  -5.059  25.846  0.00  0.00    +0.000 C 
ATOM     11  C   UNL     1       4.945  -5.401  27.189  0.00  0.00    +0.000 C 
ENDROOT
BRANCH   1  17
ATOM     12  C   UNL     1       7.578  -0.058  22.645  0.00  0.00    +0.000 C 
ATOM     13  C   UNL     1       8.309   1.243  22.797  0.00  0.00    +0.000 C 
ATOM     14  C   UNL     1       9.768   1.076  22.660  0.00  0.00    +0.000 C 
ATOM     15  C   UNL     1      10.495  -0.042  23.021  0.00  0.00    +0.000 C 
ATOM     16  C   UNL     1       9.693  -1.259  23.432  0.00  0.00    +0.000 C 
ATOM     17  C   UNL     1       8.318  -1.138  23.505  0.00  0.00    +0.000 C 
ATOM     18  O   UNL     1      10.463  -2.417  23.023  0.00  0.00    +0.000 OA
ATOM     19  F   UNL     1      10.396   1.797  21.715  0.00  0.00    +0.000 F 
BRANCH  12  24
ATOM     20  C   UNL     1       5.866   1.091  19.605  0.00  0.00    +0.000 C 
ATOM     21  C   UNL     1       7.192   0.437  19.296  0.00  0.00    +0.000 C 
ATOM     22  O   UNL     1       7.488   0.082  18.178  0.00  0.00    +0.000 OA
ATOM     23  N   UNL     1       8.078   0.384  20.311  0.00  0.00    +0.000 NA
ATOM     24  C   UNL     1       7.639  -0.520  21.219  0.00  0.00    +0.000 C 
ATOM     25  O   UNL     1       7.015  -1.500  20.840  0.00  0.00    +0.000 OA
ENDBRANCH  12  24
ENDBRANCH   1  17
BRANCH   7  26
ATOM     26  S   UNL     1       5.677  -5.191  23.304  0.00  0.00    +0.000 S 
ATOM     27  O   UNL     1       6.854  -4.961  22.514  0.00  0.00    +0.000 OA
ATOM     28  O   UNL     1       5.279  -6.544  23.483  0.00  0.00    +0.000 OA
ATOM     29  N   UNL     1       4.435  -4.319  22.684  0.00  0.00    +0.000 NA
ENDBRANCH   7  26
TORSDOF 3
ENDMDL
MODEL 2
REMARK VINA RESULT:      -8.0      3.366      7.108
REMARK  Name = 
REMARK  3 active torsions:
REMARK  status: ('A' for Active; 'I' for Inactive)
REMARK    1  A    between atoms: C_5  and  C_7
REMARK    2  A    between atoms: C_12  and  N_13
REMARK    3  A    between atoms: C_19  and  S_24
REMARK                            x       y       z     vdW  Elec       q    Type
REMARK                         _______ _______ _______ _____ _____    ______ ____
ROOT
ATOM      1  N   UNL     1       5.864  -2.545  22.832  0.00  0.00    +0.000 N 
ATOM      2  C   UNL     1       5.794  -2.383  21.411  0.00  0.00    +0.000 C 
ATOM      3  C   UNL     1       6.986  -1.551  20.951  0.00  0.00    +0.000 C 
ATOM      4  C   UNL     1       8.126  -1.683  21.953  0.00  0.00    +0.000 C 
ATOM      5  N   UNL     1       7.718  -1.171  23.239  0.00  0.00    +0.000 N 
ATOM      6  C   UNL     1       6.324  -1.423  23.660  0.00  0.00    +0.000 C 
ATOM      7  C   UNL     1       8.233   0.073  23.663  0.00  0.00    +0.000 C 
ATOM      8  C   UNL     1       8.732   1.006  22.829  0.00  0.00    +0.000 C 
ATOM      9  C   UNL     1       9.014   0.540  21.292  0.00  0.00    +0.000 C 
ATOM     10  C   UNL     1       9.346  -0.942  21.438  0.00  0.00    +0.000 C 
ATOM     11  C   UNL     1       8.071   2.471  22.602  0.00  0.00    +0.000 C 
ENDROOT
BRANCH   1  17
ATOM     12  C   UNL     1       5.572  -4.078  24.671  0.00  0.00    +0.000 C 
ATOM     13  C   UNL     1       4.436  -5.015  24.384  0.00  0.00    +0.000 C 
ATOM     14  C   UNL     1       4.860  -6.160  23.557  0.00  0.00    +0.000 C 
ATOM     15  C   UNL     1       5.854  -6.145  22.597  0.00  0.00    +0.000 C 
ATOM     16  C   UNL     1       6.690  -4.885  22.518  0.00  0.00    +0.000 C 
ATOM     17  C   UNL     1       6.344  -3.823  23.333  0.00  0.00    +0.000 C 
ATOM     18  O   UNL     1       8.018  -5.296  22.109  0.00  0.00    +0.000 OA
ATOM     19  F   UNL     1       4.652  -7.396  24.043  0.00  0.00    +0.000 F 
BRANCH  12  24
ATOM     20  C   UNL     1       5.587  -4.420  28.328  0.00  0.00    +0.000 C 
ATOM     21  C   UNL     1       6.367  -5.524  27.652  0.00  0.00    +0.000 C 
ATOM     22  O   UNL     1       7.132  -6.236  28.262  0.00  0.00    +0.000 OA
ATOM     23  N   UNL     1       6.070  -5.752  26.357  0.00  0.00    +0.000 NA
ATOM     24  C   UNL     1       6.542  -4.720  25.618  0.00  0.00    +0.000 C 
ATOM     25  O   UNL     1       7.564  -4.148  25.967  0.00  0.00    +0.000 OA
ENDBRANCH  12  24
ENDBRANCH   1  17
BRANCH   7  26
ATOM     26  S   UNL     1       9.135  -0.329  25.191  0.00  0.00    +0.000 S 
ATOM     27  O   UNL     1       8.347   0.182  26.277  0.00  0.00    +0.000 OA
ATOM     28  O   UNL     1       9.366  -1.733  25.170  0.00  0.00    +0.000 OA
ATOM     29  N   UNL     1      10.564   0.474  25.139  0.00  0.00    +0.000 NA
ENDBRANCH   7  26
TORSDOF 3
ENDMDL
MODEL 3
REMARK VINA RESULT:      -7.7      3.672      6.563
REMARK  Name = 
REMARK  3 active torsions:
REMARK  status: ('A' for Active; 'I' for Inactive)
REMARK    1  A    between atoms: C_5  and  C_7
REMARK    2  A    between atoms: C_12  and  N_13
REMARK    3  A    between atoms: C_19  and  S_24
REMARK                            x       y       z     vdW  Elec       q    Type
REMARK                         _______ _______ _______ _____ _____    ______ ____
ROOT
ATOM      1  N   UNL     1       7.688  -1.810  22.692  0.00  0.00    +0.000 N 
ATOM      2  C   UNL     1       8.914  -1.754  21.955  0.00  0.00    +0.000 C 
ATOM      3  C   UNL     1       9.858  -0.773  22.641  0.00  0.00    +0.000 C 
ATOM      4  C   UNL     1       9.496  -0.654  24.116  0.00  0.00    +0.000 C 
ATOM      5  N   UNL     1       8.158  -0.131  24.258  0.00  0.00    +0.000 N 
ATOM      6  C   UNL     1       7.146  -0.577  23.277  0.00  0.00    +0.000 C 
ATOM      7  C   UNL     1       7.999   1.205  24.685  0.00  0.00    +0.000 C 
ATOM      8  C   UNL     1       8.953   2.149  24.579  0.00  0.00    +0.000 C 
ATOM      9  C   UNL     1      10.455   1.635  24.205  0.00  0.00    +0.000 C 
ATOM     10  C   UNL     1      10.503   0.239  24.817  0.00  0.00    +0.000 C 
ATOM     11  C   UNL     1       8.826   3.471  23.645  0.00  0.00    +0.000 C 
ENDROOT
BRANCH   1  17
ATOM     12  C   UNL     1       5.951  -2.997  23.872  0.00  0.00    +0.000 C 
ATOM     13  C   UNL     1       5.317  -4.012  22.967  0.00  0.00    +0.000 C 
ATOM     14  C   UNL     1       6.085  -5.271  22.924  0.00  0.00    +0.000 C 
ATOM     15  C   UNL     1       7.455  -5.391  23.058  0.00  0.00    +0.000 C 
ATOM     16  C   UNL     1       8.202  -4.135  23.455  0.00  0.00    +0.000 C 
ATOM     17  C   UNL     1       7.486  -2.958  23.561  0.00  0.00    +0.000 C 
ATOM     18  O   UNL     1       9.332  -4.563  24.255  0.00  0.00    +0.000 OA
ATOM     19  F   UNL     1       5.448  -6.406  23.259  0.00  0.00    +0.000 F 
BRANCH  12  24
ATOM     20  C   UNL     1       3.565  -2.046  26.498  0.00  0.00    +0.000 C 
ATOM     21  C   UNL     1       4.133  -3.429  26.721  0.00  0.00    +0.000 C 
ATOM     22  O   UNL     1       4.031  -4.002  27.782  0.00  0.00    +0.000 OA
ATOM     23  N   UNL     1       4.649  -4.040  25.635  0.00  0.00    +0.000 NA
ATOM     24  C   UNL     1       5.807  -3.422  25.303  0.00  0.00    +0.000 C 
ATOM     25  O   UNL     1       6.507  -2.943  26.183  0.00  0.00    +0.000 OA
ENDBRANCH  12  24
ENDBRANCH   1  17
BRANCH   7  26
ATOM     26  S   UNL     1       7.065   1.054  26.240  0.00  0.00    +0.000 S 
ATOM     27  O   UNL     1       5.716   0.723  25.875  0.00  0.00    +0.000 OA
ATOM     28  O   UNL     1       7.763   0.111  27.044  0.00  0.00    +0.000 OA
ATOM     29  N   UNL     1       7.081   2.526  26.962  0.00  0.00    +0.000 NA
ENDBRANCH   7  26
TORSDOF 3
ENDMDL
MODEL 4
REMARK VINA RESULT:      -7.6      2.963      3.707
REMARK  Name = 
REMARK  3 active torsions:
REMARK  status: ('A' for Active; 'I' for Inactive)
REMARK    1  A    between atoms: C_5  and  C_7
REMARK    2  A    between atoms: C_12  and  N_13
REMARK    3  A    between atoms: C_19  and  S_24
REMARK                            x       y       z     vdW  Elec       q    Type
REMARK                         _______ _______ _______ _____ _____    ______ ____
ROOT
ATOM      1  N   UNL     1       8.974  -1.907  24.755  0.00  0.00    +0.000 N 
ATOM      2  C   UNL     1       9.517  -3.109  24.200  0.00  0.00    +0.000 C 
ATOM      3  C   UNL     1       8.460  -4.206  24.272  0.00  0.00    +0.000 C 
ATOM      4  C   UNL     1       7.070  -3.582  24.309  0.00  0.00    +0.000 C 
ATOM      5  N   UNL     1       6.924  -2.768  25.493  0.00  0.00    +0.000 N 
ATOM      6  C   UNL     1       8.101  -1.990  25.933  0.00  0.00    +0.000 C 
ATOM      7  C   UNL     1       6.125  -3.254  26.549  0.00  0.00    +0.000 C 
ATOM      8  C   UNL     1       5.826  -4.554  26.732  0.00  0.00    +0.000 C 
ATOM      9  C   UNL     1       6.171  -5.566  25.501  0.00  0.00    +0.000 C 
ATOM     10  C   UNL     1       6.019  -4.675  24.272  0.00  0.00    +0.000 C 
ATOM     11  C   UNL     1       6.313  -5.429  28.010  0.00  0.00    +0.000 C 
ENDROOT
BRANCH   1  17
ATOM     12  C   UNL     1       8.900   0.489  24.482  0.00  0.00    +0.000 C 
ATOM     13  C   UNL     1      10.179   0.976  23.866  0.00  0.00    +0.000 C 
ATOM     14  C   UNL     1      10.165   0.854  22.396  0.00  0.00    +0.000 C 
ATOM     15  C   UNL     1       9.505  -0.118  21.668  0.00  0.00    +0.000 C 
ATOM     16  C   UNL     1       8.579  -1.027  22.448  0.00  0.00    +0.000 C 
ATOM     17  C   UNL     1       8.532  -0.883  23.822  0.00  0.00    +0.000 C 
ATOM     18  O   UNL     1       7.493  -1.376  21.553  0.00  0.00    +0.000 OA
ATOM     19  F   UNL     1      10.373   1.967  21.671  0.00  0.00    +0.000 F 
BRANCH  12  24
ATOM     20  C   UNL     1       7.306   3.159  26.438  0.00  0.00    +0.000 C 
ATOM     21  C   UNL     1       7.194   3.401  24.950  0.00  0.00    +0.000 C 
ATOM     22  O   UNL     1       6.422   4.210  24.487  0.00  0.00    +0.000 OA
ATOM     23  N   UNL     1       8.090   2.757  24.175  0.00  0.00    +0.000 NA
ATOM     24  C   UNL     1       7.782   1.438  24.166  0.00  0.00    +0.000 C 
ATOM     25  O   UNL     1       6.613   1.093  24.245  0.00  0.00    +0.000 OA
ENDBRANCH  12  24
ENDBRANCH   1  17
BRANCH   7  26
ATOM     26  S   UNL     1       4.808  -2.008  26.705  0.00  0.00    +0.000 S 
ATOM     27  O   UNL     1       5.202  -1.127  27.769  0.00  0.00    +0.000 OA
ATOM     28  O   UNL     1       4.643  -1.426  25.417  0.00  0.00    +0.000 OA
ATOM     29  N   UNL     1       3.438  -2.798  27.141  0.00  0.00    +0.000 NA
ENDBRANCH   7  26
TORSDOF 3
ENDMDL
MODEL 5
REMARK VINA RESULT:      -7.5      3.326      7.065
REMARK  Name = 
REMARK  3 active torsions:
REMARK  status: ('A' for Active; 'I' for Inactive)
REMARK    1  A    between atoms: C_5  and  C_7
REMARK    2  A    between atoms: C_12  and  N_13
REMARK    3  A    between atoms: C_19  and  S_24
REMARK                            x       y       z     vdW  Elec       q    Type
REMARK                         _______ _______ _______ _____ _____    ______ ____
ROOT
ATOM      1  N   UNL     1       5.965  -2.135  24.293  0.00  0.00    +0.000 N 
ATOM      2  C   UNL     1       5.689  -2.739  23.025  0.00  0.00    +0.000 C 
ATOM      3  C   UNL     1       6.621  -2.136  21.979  0.00  0.00    +0.000 C 
ATOM      4  C   UNL     1       7.879  -1.603  22.654  0.00  0.00    +0.000 C 
ATOM      5  N   UNL     1       7.535  -0.550  23.580  0.00  0.00    +0.000 N 
ATOM      6  C   UNL     1       6.285  -0.704  24.353  0.00  0.00    +0.000 C 
ATOM      7  C   UNL     1       7.835   0.783  23.225  0.00  0.00    +0.000 C 
ATOM      8  C   UNL     1       8.027   1.201  21.960  0.00  0.00    +0.000 C 
ATOM      9  C   UNL     1       8.207   0.043  20.825  0.00  0.00    +0.000 C 
ATOM     10  C   UNL     1       8.849  -1.102  21.601  0.00  0.00    +0.000 C 
ATOM     11  C   UNL     1       7.060   2.253  21.191  0.00  0.00    +0.000 C 
ENDROOT
BRANCH   1  17
ATOM     12  C   UNL     1       6.271  -4.391  25.092  0.00  0.00    +0.000 C 
ATOM     13  C   UNL     1       7.252  -5.117  24.220  0.00  0.00    +0.000 C 
ATOM     14  C   UNL     1       8.648  -4.839  24.609  0.00  0.00    +0.000 C 
ATOM     15  C   UNL     1       9.119  -3.660  25.154  0.00  0.00    +0.000 C 
ATOM     16  C   UNL     1       8.074  -2.635  25.541  0.00  0.00    +0.000 C 
ATOM     17  C   UNL     1       6.753  -2.908  25.240  0.00  0.00    +0.000 C 
ATOM     18  O   UNL     1       8.595  -1.929  26.694  0.00  0.00    +0.000 OA
ATOM     19  F   UNL     1       9.432  -5.884  24.924  0.00  0.00    +0.000 F 
BRANCH  12  24
ATOM     20  C   UNL     1       3.840  -6.508  26.854  0.00  0.00    +0.000 C 
ATOM     21  C   UNL     1       5.246  -6.707  27.372  0.00  0.00    +0.000 C 
ATOM     22  O   UNL     1       5.471  -7.265  28.422  0.00  0.00    +0.000 OA
ATOM     23  N   UNL     1       6.242  -6.339  26.540  0.00  0.00    +0.000 NA
ATOM     24  C   UNL     1       6.266  -4.987  26.469  0.00  0.00    +0.000 C 
ATOM     25  O   UNL     1       5.950  -4.327  27.447  0.00  0.00    +0.000 OA
ENDBRANCH  12  24
ENDBRANCH   1  17
BRANCH   7  26
ATOM     26  S   UNL     1       8.981   1.331  24.528  0.00  0.00    +0.000 S 
ATOM     27  O   UNL     1       8.171   1.718  25.649  0.00  0.00    +0.000 OA
ATOM     28  O   UNL     1       9.900   0.266  24.736  0.00  0.00    +0.000 OA
ATOM     29  N   UNL     1       9.772   2.650  23.957  0.00  0.00    +0.000 NA
ENDBRANCH   7  26
TORSDOF 3
ENDMDL
MODEL 6
REMARK VINA RESULT:      -7.5      2.936      6.224
REMARK  Name = 
REMARK  3 active torsions:
REMARK  status: ('A' for Active; 'I' for Inactive)
REMARK    1  A    between atoms: C_5  and  C_7
REMARK    2  A    between atoms: C_12  and  N_13
REMARK    3  A    between atoms: C_19  and  S_24
REMARK                            x       y       z     vdW  Elec       q    Type
REMARK                         _______ _______ _______ _____ _____    ______ ____
ROOT
ATOM      1  N   UNL     1       8.311  -1.818  26.025  0.00  0.00    +0.000 N 
ATOM      2  C   UNL     1       8.319  -0.758  26.987  0.00  0.00    +0.000 C 
ATOM      3  C   UNL     1       8.062   0.562  26.268  0.00  0.00    +0.000 C 
ATOM      4  C   UNL     1       7.304   0.305  24.971  0.00  0.00    +0.000 C 
ATOM      5  N   UNL     1       8.097  -0.517  24.088  0.00  0.00    +0.000 N 
ATOM      6  C   UNL     1       8.906  -1.591  24.702  0.00  0.00    +0.000 C 
ATOM      7  C   UNL     1       8.697   0.087  22.963  0.00  0.00    +0.000 C 
ATOM      8  C   UNL     1       8.943   1.407  22.859  0.00  0.00    +0.000 C 
ATOM      9  C   UNL     1       8.242   2.374  23.969  0.00  0.00    +0.000 C 
ATOM     10  C   UNL     1       6.957   1.627  24.313  0.00  0.00    +0.000 C 
ATOM     11  C   UNL     1      10.430   2.053  22.767  0.00  0.00    +0.000 C 
ENDROOT
BRANCH   1  17
ATOM     12  C   UNL     1       7.498  -3.881  25.077  0.00  0.00    +0.000 C 
ATOM     13  C   UNL     1       7.800  -5.025  26.000  0.00  0.00    +0.000 C 
ATOM     14  C   UNL     1       6.781  -5.164  27.058  0.00  0.00    +0.000 C 
ATOM     15  C   UNL     1       6.058  -4.134  27.629  0.00  0.00    +0.000 C 
ATOM     16  C   UNL     1       6.209  -2.772  26.985  0.00  0.00    +0.000 C 
ATOM     17  C   UNL     1       7.114  -2.638  25.949  0.00  0.00    +0.000 C 
ATOM     18  O   UNL     1       4.936  -2.097  27.146  0.00  0.00    +0.000 OA
ATOM     19  F   UNL     1       6.143  -6.342  27.164  0.00  0.00    +0.000 F 
BRANCH  12  24
ATOM     20  C   UNL     1       7.182  -5.314  21.709  0.00  0.00    +0.000 C 
ATOM     21  C   UNL     1       5.961  -5.585  22.558  0.00  0.00    +0.000 C 
ATOM     22  O   UNL     1       4.916  -5.961  22.079  0.00  0.00    +0.000 OA
ATOM     23  N   UNL     1       6.138  -5.506  23.893  0.00  0.00    +0.000 NA
ATOM     24  C   UNL     1       6.304  -4.205  24.228  0.00  0.00    +0.000 C 
ATOM     25  O   UNL     1       5.724  -3.339  23.590  0.00  0.00    +0.000 OA
ENDBRANCH  12  24
ENDBRANCH   1  17
BRANCH   7  26
ATOM     26  S   UNL     1       7.963  -0.796  21.552  0.00  0.00    +0.000 S 
ATOM     27  O   UNL     1       8.576  -2.094  21.519  0.00  0.00    +0.000 OA
ATOM     28  O   UNL     1       6.553  -0.757  21.737  0.00  0.00    +0.000 OA
ATOM     29  N   UNL     1       8.373   0.027  20.195  0.00  0.00    +0.000 NA
ENDBRANCH   7  26
TORSDOF 3
ENDMDL
MODEL 7
REMARK VINA RESULT:      -7.1      2.772      4.174
REMARK  Name = 
REMARK  3 active torsions:
REMARK  status: ('A' for Active; 'I' for Inactive)
REMARK    1  A    between atoms: C_5  and  C_7
REMARK    2  A    between atoms: C_12  and  N_13
REMARK    3  A    between atoms: C_19  and  S_24
REMARK                            x       y       z     vdW  Elec       q    Type
REMARK                         _______ _______ _______ _____ _____    ______ ____
ROOT
ATOM      1  N   UNL     1       7.779  -3.438  23.338  0.00  0.00    +0.000 N 
ATOM      2  C   UNL     1       7.546  -4.416  22.319  0.00  0.00    +0.000 C 
ATOM      3  C   UNL     1       6.162  -5.021  22.523  0.00  0.00    +0.000 C 
ATOM      4  C   UNL     1       5.275  -4.039  23.279  0.00  0.00    +0.000 C 
ATOM      5  N   UNL     1       5.827  -3.781  24.588  0.00  0.00    +0.000 N 
ATOM      6  C   UNL     1       7.298  -3.695  24.702  0.00  0.00    +0.000 C 
ATOM      7  C   UNL     1       5.193  -4.354  25.711  0.00  0.00    +0.000 C 
ATOM      8  C   UNL     1       4.389  -5.433  25.653  0.00  0.00    +0.000 C 
ATOM      9  C   UNL     1       3.903  -5.907  24.170  0.00  0.00    +0.000 C 
ATOM     10  C   UNL     1       3.869  -4.599  23.386  0.00  0.00    +0.000 C 
ATOM     11  C   UNL     1       4.727  -6.860  26.349  0.00  0.00    +0.000 C 
ENDROOT
BRANCH   1  17
ATOM     12  C   UNL     1       8.392  -1.221  24.063  0.00  0.00    +0.000 C 
ATOM     13  C   UNL     1       9.746  -0.861  23.527  0.00  0.00    +0.000 C 
ATOM     14  C   UNL     1       9.674  -0.340  22.148  0.00  0.00    +0.000 C 
ATOM     15  C   UNL     1       8.750  -0.709  21.189  0.00  0.00    +0.000 C 
ATOM     16  C   UNL     1       7.615  -1.595  21.657  0.00  0.00    +0.000 C 
ATOM     17  C   UNL     1       7.634  -2.041  22.965  0.00  0.00    +0.000 C 
ATOM     18  O   UNL     1       6.460  -1.243  20.854  0.00  0.00    +0.000 OA
ATOM     19  F   UNL     1      10.181   0.882  21.912  0.00  0.00    +0.000 F 
BRANCH  12  24
ATOM     20  C   UNL     1       7.488   0.555  27.149  0.00  0.00    +0.000 C 
ATOM     21  C   UNL     1       7.517   1.477  25.952  0.00  0.00    +0.000 C 
ATOM     22  O   UNL     1       7.016   2.578  25.976  0.00  0.00    +0.000 OA
ATOM     23  N   UNL     1       8.242   1.054  24.896  0.00  0.00    +0.000 NA
ATOM     24  C   UNL     1       7.590   0.022  24.312  0.00  0.00    +0.000 C 
ATOM     25  O   UNL     1       6.368  -0.001  24.321  0.00  0.00    +0.000 OA
ENDBRANCH  12  24
ENDBRANCH   1  17
BRANCH   7  26
ATOM     26  S   UNL     1       4.684  -2.917  26.703  0.00  0.00    +0.000 S 
ATOM     27  O   UNL     1       3.745  -3.403  27.675  0.00  0.00    +0.000 OA
ATOM     28  O   UNL     1       5.877  -2.324  27.203  0.00  0.00    +0.000 OA
ATOM     29  N   UNL     1       3.921  -1.873  25.694  0.00  0.00    +0.000 NA
ENDBRANCH   7  26
TORSDOF 3
ENDMDL
MODEL 8
REMARK VINA RESULT:      -6.9      3.431      5.560
REMARK  Name = 
REMARK  3 active torsions:
REMARK  status: ('A' for Active; 'I' for Inactive)
REMARK    1  A    between atoms: C_5  and  C_7
REMARK    2  A    between atoms: C_12  and  N_13
REMARK    3  A    between atoms: C_19  and  S_24
REMARK                            x       y       z     vdW  Elec       q    Type
REMARK                         _______ _______ _______ _____ _____    ______ ____
ROOT
ATOM      1  N   UNL     1       5.626  -5.564  25.635  0.00  0.00    +0.000 N 
ATOM      2  C   UNL     1       4.773  -6.662  25.974  0.00  0.00    +0.000 C 
ATOM      3  C   UNL     1       3.593  -6.137  26.785  0.00  0.00    +0.000 C 
ATOM      4  C   UNL     1       3.360  -4.666  26.464  0.00  0.00    +0.000 C 
ATOM      5  N   UNL     1       4.517  -3.888  26.838  0.00  0.00    +0.000 N 
ATOM      6  C   UNL     1       5.846  -4.496  26.618  0.00  0.00    +0.000 C 
ATOM      7  C   UNL     1       4.437  -3.074  27.988  0.00  0.00    +0.000 C 
ATOM      8  C   UNL     1       3.552  -3.262  28.985  0.00  0.00    +0.000 C 
ATOM      9  C   UNL     1       2.332  -4.304  28.695  0.00  0.00    +0.000 C 
ATOM     10  C   UNL     1       2.121  -4.176  27.190  0.00  0.00    +0.000 C 
ATOM     11  C   UNL     1       3.961  -3.664  30.504  0.00  0.00    +0.000 C 
ENDROOT
BRANCH   1  17
ATOM     12  C   UNL     1       6.930  -4.398  23.975  0.00  0.00    +0.000 C 
ATOM     13  C   UNL     1       7.736  -5.377  23.172  0.00  0.00    +0.000 C 
ATOM     14  C   UNL     1       6.950  -5.970  22.073  0.00  0.00    +0.000 C 
ATOM     15  C   UNL     1       5.590  -6.213  22.087  0.00  0.00    +0.000 C 
ATOM     16  C   UNL     1       4.822  -5.660  23.270  0.00  0.00    +0.000 C 
ATOM     17  C   UNL     1       5.537  -5.046  24.280  0.00  0.00    +0.000 C 
ATOM     18  O   UNL     1       3.501  -5.318  22.780  0.00  0.00    +0.000 OA
ATOM     19  F   UNL     1       7.422  -5.836  20.822  0.00  0.00    +0.000 F 
BRANCH  12  24
ATOM     20  C   UNL     1       8.529  -1.091  23.937  0.00  0.00    +0.000 C 
ATOM     21  C   UNL     1       7.891  -1.428  22.608  0.00  0.00    +0.000 C 
ATOM     22  O   UNL     1       7.687  -0.588  21.762  0.00  0.00    +0.000 OA
ATOM     23  N   UNL     1       7.678  -2.738  22.369  0.00  0.00    +0.000 NA
ATOM     24  C   UNL     1       6.668  -3.162  23.166  0.00  0.00    +0.000 C 
ATOM     25  O   UNL     1       5.765  -2.392  23.455  0.00  0.00    +0.000 OA
ENDBRANCH  12  24
ENDBRANCH   1  17
BRANCH   7  26
ATOM     26  S   UNL     1       4.715  -1.393  27.349  0.00  0.00    +0.000 S 
ATOM     27  O   UNL     1       6.135  -1.242  27.200  0.00  0.00    +0.000 OA
ATOM     28  O   UNL     1       3.929  -1.270  26.171  0.00  0.00    +0.000 OA
ATOM     29  N   UNL     1       4.181  -0.343  28.491  0.00  0.00    +0.000 NA
ENDBRANCH   7  26
TORSDOF 3
ENDMDL
MODEL 9
REMARK VINA RESULT:      -6.8      3.102      7.019
REMARK  Name = 
REMARK  3 active torsions:
REMARK  status: ('A' for Active; 'I' for Inactive)
REMARK    1  A    between atoms: C_5  and  C_7
REMARK    2  A    between atoms: C_12  and  N_13
REMARK    3  A    between atoms: C_19  and  S_24
REMARK                            x       y       z     vdW  Elec       q    Type
REMARK                         _______ _______ _______ _____ _____    ______ ____
ROOT
ATOM      1  N   UNL     1       8.309  -2.050  26.373  0.00  0.00    +0.000 N 
ATOM      2  C   UNL     1       7.429  -1.223  27.142  0.00  0.00    +0.000 C 
ATOM      3  C   UNL     1       6.828  -0.160  26.228  0.00  0.00    +0.000 C 
ATOM      4  C   UNL     1       6.838  -0.654  24.786  0.00  0.00    +0.000 C 
ATOM      5  N   UNL     1       8.195  -0.877  24.348  0.00  0.00    +0.000 N 
ATOM      6  C   UNL     1       9.144  -1.437  25.333  0.00  0.00    +0.000 C 
ATOM      7  C   UNL     1       8.773   0.044  23.449  0.00  0.00    +0.000 C 
ATOM      8  C   UNL     1       8.340   1.309  23.284  0.00  0.00    +0.000 C 
ATOM      9  C   UNL     1       6.898   1.683  23.948  0.00  0.00    +0.000 C 
ATOM     10  C   UNL     1       6.142   0.359  23.896  0.00  0.00    +0.000 C 
ATOM     11  C   UNL     1       9.213   2.626  23.654  0.00  0.00    +0.000 C 
ENDROOT
BRANCH   1  17
ATOM     12  C   UNL     1       6.594  -3.659  26.909  0.00  0.00    +0.000 C 
ATOM     13  C   UNL     1       5.335  -3.339  26.158  0.00  0.00    +0.000 C 
ATOM     14  C   UNL     1       5.355  -3.885  24.787  0.00  0.00    +0.000 C 
ATOM     15  C   UNL     1       6.475  -4.050  23.995  0.00  0.00    +0.000 C 
ATOM     16  C   UNL     1       7.812  -3.808  24.666  0.00  0.00    +0.000 C 
ATOM     17  C   UNL     1       7.812  -3.356  25.972  0.00  0.00    +0.000 C 
ATOM     18  O   UNL     1       8.758  -4.708  24.036  0.00  0.00    +0.000 OA
ATOM     19  F   UNL     1       4.361  -4.716  24.428  0.00  0.00    +0.000 F 
BRANCH  12  24
ATOM     20  C   UNL     1       5.687  -5.559  29.919  0.00  0.00    +0.000 C 
ATOM     21  C   UNL     1       5.585  -6.399  28.667  0.00  0.00    +0.000 C 
ATOM     22  O   UNL     1       5.507  -7.606  28.706  0.00  0.00    +0.000 OA
ATOM     23  N   UNL     1       5.460  -5.721  27.507  0.00  0.00    +0.000 NA
ATOM     24  C   UNL     1       6.643  -5.124  27.228  0.00  0.00    +0.000 C 
ATOM     25  O   UNL     1       7.686  -5.668  27.562  0.00  0.00    +0.000 OA
ENDBRANCH  12  24
ENDBRANCH   1  17
BRANCH   7  26
ATOM     26  S   UNL     1       9.159  -0.963  21.984  0.00  0.00    +0.000 S 
ATOM     27  O   UNL     1       8.131  -1.962  21.893  0.00  0.00    +0.000 OA
ATOM     28  O   UNL     1       9.277  -0.063  20.890  0.00  0.00    +0.000 OA
ATOM     29  N   UNL     1      10.598  -1.698  22.263  0.00  0.00    +0.000 NA
ENDBRANCH   7  26
TORSDOF 3
ENDMDL
