MODEL 1
REMARK VINA RESULT:      -6.9      0.000      0.000
REMARK  Name = 
REMARK  5 active torsions:
REMARK  status: ('A' for Active; 'I' for Inactive)
REMARK    1  A    between atoms: C_2  and  C_3
REMARK    2  A    between atoms: N_5  and  C_6
REMARK    3  A    between atoms: C_6  and  C_7
REMARK    4  A    between atoms: C_7  and  S_8
REMARK    5  A    between atoms: C_18  and  C_19
REMARK                            x       y       z     vdW  Elec       q    Type
REMARK                         _______ _______ _______ _____ _____    ______ ____
ROOT
ATOM      1  C   UNL     1       9.608   0.121  22.657  0.00  0.00    +0.000 C 
ATOM      2  C   UNL     1       9.267  -0.242  21.230  0.00  0.00    +0.000 C 
ATOM      3  N   UNL     1       8.064  -0.953  21.134  0.00  0.00    +0.000 NA
ATOM      4  C   UNL     1       7.755  -1.839  22.110  0.00  0.00    +0.000 C 
ATOM      5  N   UNL     1       8.711  -2.075  23.169  0.00  0.00    +0.000 N 
ATOM      6  C   UNL     1       9.779  -1.162  23.462  0.00  0.00    +0.000 C 
ATOM      7  C   UNL     1       9.890  -0.823  24.930  0.00  0.00    +0.000 C 
ATOM      8  C   UNL     1       8.480  -0.502  25.487  0.00  0.00    +0.000 C 
ATOM      9  C   UNL     1       7.799  -1.972  25.390  0.00  0.00    +0.000 C 
ATOM     10  C   UNL     1       8.125  -2.741  24.307  0.00  0.00    +0.000 C 
ATOM     11  C   UNL     1       6.403  -1.789  26.064  0.00  0.00    +0.000 C 
ENDROOT
BRANCH  10  12
ATOM     12  C   UNL     1       8.846  -4.017  24.357  0.00  0.00    +0.000 C 
ATOM     13  O   UNL     1       9.968  -4.149  24.705  0.00  0.00    +0.000 OA
ATOM     14  N   UNL     1       7.891  -4.946  24.647  0.00  0.00    +0.000 NA
ATOM     15  C   UNL     1       6.703  -5.038  23.824  0.00  0.00    +0.000 C 
ENDBRANCH  10  12
BRANCH   1  17
ATOM     16  O   UNL     1       8.669   2.297  22.783  0.00  0.00    +0.000 OA
ATOM     17  C   UNL     1       8.544   0.994  23.277  0.00  0.00    +0.000 C 
ENDBRANCH   1  17
BRANCH   3  18
ATOM     18  C   UNL     1       7.003  -0.064  20.791  0.00  0.00    +0.000 C 
BRANCH  18  19
ATOM     19  C   UNL     1       7.319   0.767  19.573  0.00  0.00    +0.000 C 
BRANCH  19  20
ATOM     20  S   UNL     1       6.030   0.585  18.352  0.00  0.00    +0.000 S 
ATOM     21  O   UNL     1       4.780   0.874  18.996  0.00  0.00    +0.000 OA
ATOM     22  O   UNL     1       6.377   1.432  17.243  0.00  0.00    +0.000 OA
ATOM     23  N   UNL     1       6.005  -0.977  17.831  0.00  0.00    +0.000 NA
ENDBRANCH  19  20
ENDBRANCH  18  19
ENDBRANCH   3  18
TORSDOF 5
ENDMDL
MODEL 2
REMARK VINA RESULT:      -6.8      2.298      4.427
REMARK  Name = 
REMARK  5 active torsions:
REMARK  status: ('A' for Active; 'I' for Inactive)
REMARK    1  A    between atoms: C_2  and  C_3
REMARK    2  A    between atoms: N_5  and  C_6
REMARK    3  A    between atoms: C_6  and  C_7
REMARK    4  A    between atoms: C_7  and  S_8
REMARK    5  A    between atoms: C_18  and  C_19
REMARK                            x       y       z     vdW  Elec       q    Type
REMARK                         _______ _______ _______ _____ _____    ______ ____
ROOT
ATOM      1  C   UNL     1       8.464  -1.347  23.508  0.00  0.00    +0.000 C 
ATOM      2  C   UNL     1       7.232  -1.443  22.638  0.00  0.00    +0.000 C 
ATOM      3  N   UNL     1       7.043  -0.298  21.853  0.00  0.00    +0.000 NA
ATOM      4  C   UNL     1       7.361   0.908  22.379  0.00  0.00    +0.000 C 
ATOM      5  N   UNL     1       7.807   0.976  23.753  0.00  0.00    +0.000 N 
ATOM      6  C   UNL     1       8.300  -0.170  24.462  0.00  0.00    +0.000 C 
ATOM      7  C   UNL     1       9.606   0.084  25.177  0.00  0.00    +0.000 C 
ATOM      8  C   UNL     1      10.575   0.823  24.219  0.00  0.00    +0.000 C 
ATOM      9  C   UNL     1       9.814   2.252  24.098  0.00  0.00    +0.000 C 
ATOM     10  C   UNL     1       8.447   2.231  24.067  0.00  0.00    +0.000 C 
ATOM     11  C   UNL     1      10.789   3.132  23.254  0.00  0.00    +0.000 C 
ENDROOT
BRANCH  10  12
ATOM     12  C   UNL     1       7.565   2.813  25.084  0.00  0.00    +0.000 C 
ATOM     13  O   UNL     1       7.509   2.464  26.212  0.00  0.00    +0.000 OA
ATOM     14  N   UNL     1       7.441   4.123  24.731  0.00  0.00    +0.000 NA
ATOM     15  C   UNL     1       7.012   4.470  23.392  0.00  0.00    +0.000 C 
ENDBRANCH  10  12
BRANCH   1  17
ATOM     16  O   UNL     1      10.472  -2.358  22.747  0.00  0.00    +0.000 OA
ATOM     17  C   UNL     1       9.716  -1.183  22.681  0.00  0.00    +0.000 C 
ENDBRANCH   1  17
BRANCH   3  18
ATOM     18  C   UNL     1       7.558  -0.520  20.541  0.00  0.00    +0.000 C 
BRANCH  18  19
ATOM     19  C   UNL     1       7.463   0.708  19.670  0.00  0.00    +0.000 C 
BRANCH  19  20
ATOM     20  S   UNL     1       6.146   0.519  18.481  0.00  0.00    +0.000 S 
ATOM     21  O   UNL     1       4.909   0.800  19.155  0.00  0.00    +0.000 OA
ATOM     22  O   UNL     1       6.460   1.368  17.364  0.00  0.00    +0.000 OA
ATOM     23  N   UNL     1       6.118  -1.043  17.961  0.00  0.00    +0.000 NA
ENDBRANCH  19  20
ENDBRANCH  18  19
ENDBRANCH   3  18
TORSDOF 5
ENDMDL
MODEL 3
REMARK VINA RESULT:      -6.5      2.928      5.448
REMARK  Name = 
REMARK  5 active torsions:
REMARK  status: ('A' for Active; 'I' for Inactive)
REMARK    1  A    between atoms: C_2  and  C_3
REMARK    2  A    between atoms: N_5  and  C_6
REMARK    3  A    between atoms: C_6  and  C_7
REMARK    4  A    between atoms: C_7  and  S_8
REMARK    5  A    between atoms: C_18  and  C_19
REMARK                            x       y       z     vdW  Elec       q    Type
REMARK                         _______ _______ _______ _____ _____    ______ ____
ROOT
ATOM      1  C   UNL     1       9.574  -0.981  24.612  0.00  0.00    +0.000 C 
ATOM      2  C   UNL     1       8.485  -1.170  25.643  0.00  0.00    +0.000 C 
ATOM      3  N   UNL     1       7.202  -1.068  25.089  0.00  0.00    +0.000 NA
ATOM      4  C   UNL     1       6.995  -0.169  24.099  0.00  0.00    +0.000 C 
ATOM      5  N   UNL     1       8.080   0.703  23.705  0.00  0.00    +0.000 N 
ATOM      6  C   UNL     1       9.451   0.418  24.020  0.00  0.00    +0.000 C 
ATOM      7  C   UNL     1      10.376   0.545  22.833  0.00  0.00    +0.000 C 
ATOM      8  C   UNL     1       9.742  -0.172  21.614  0.00  0.00    +0.000 C 
ATOM      9  C   UNL     1       8.479   0.809  21.338  0.00  0.00    +0.000 C 
ATOM     10  C   UNL     1       7.848   1.337  22.431  0.00  0.00    +0.000 C 
ATOM     11  C   UNL     1       7.842   0.249  20.028  0.00  0.00    +0.000 C 
ENDROOT
BRANCH  10  12
ATOM     12  C   UNL     1       7.788   2.763  22.771  0.00  0.00    +0.000 C 
ATOM     13  O   UNL     1       8.713   3.420  23.102  0.00  0.00    +0.000 OA
ATOM     14  N   UNL     1       6.793   3.267  21.988  0.00  0.00    +0.000 NA
ATOM     15  C   UNL     1       5.479   2.658  22.011  0.00  0.00    +0.000 C 
ENDBRANCH  10  12
BRANCH   1  17
ATOM     16  O   UNL     1      10.073  -3.212  23.975  0.00  0.00    +0.000 OA
ATOM     17  C   UNL     1       9.493  -2.022  23.522  0.00  0.00    +0.000 C 
ENDBRANCH   1  17
BRANCH   3  18
ATOM     18  C   UNL     1       6.687  -2.369  24.818  0.00  0.00    +0.000 C 
BRANCH  18  19
ATOM     19  C   UNL     1       5.480  -2.333  23.914  0.00  0.00    +0.000 C 
BRANCH  19  20
ATOM     20  S   UNL     1       5.632  -3.568  22.634  0.00  0.00    +0.000 S 
ATOM     21  O   UNL     1       6.844  -4.298  22.879  0.00  0.00    +0.000 OA
ATOM     22  O   UNL     1       4.420  -4.340  22.646  0.00  0.00    +0.000 OA
ATOM     23  N   UNL     1       5.759  -2.812  21.177  0.00  0.00    +0.000 NA
ENDBRANCH  19  20
ENDBRANCH  18  19
ENDBRANCH   3  18
TORSDOF 5
ENDMDL
MODEL 4
REMARK VINA RESULT:      -6.4      3.410      6.404
REMARK  Name = 
REMARK  5 active torsions:
REMARK  status: ('A' for Active; 'I' for Inactive)
REMARK    1  A    between atoms: C_2  and  C_3
REMARK    2  A    between atoms: N_5  and  C_6
REMARK    3  A    between atoms: C_6  and  C_7
REMARK    4  A    between atoms: C_7  and  S_8
REMARK    5  A    between atoms: C_18  and  C_19
REMARK                            x       y       z     vdW  Elec       q    Type
REMARK                         _______ _______ _______ _____ _____    ______ ____
ROOT
ATOM      1  C   UNL     1       9.648  -0.915  24.635  0.00  0.00    +0.000 C 
ATOM      2  C   UNL     1       8.599  -1.077  25.711  0.00  0.00    +0.000 C 
ATOM      3  N   UNL     1       7.297  -0.959  25.208  0.00  0.00    +0.000 NA
ATOM      4  C   UNL     1       7.064  -0.066  24.218  0.00  0.00    +0.000 C 
ATOM      5  N   UNL     1       8.146   0.785  23.773  0.00  0.00    +0.000 N 
ATOM      6  C   UNL     1       9.524   0.481  24.035  0.00  0.00    +0.000 C 
ATOM      7  C   UNL     1      10.403   0.582  22.811  0.00  0.00    +0.000 C 
ATOM      8  C   UNL     1       9.709  -0.135  21.625  0.00  0.00    +0.000 C 
ATOM      9  C   UNL     1       8.451   0.864  21.391  0.00  0.00    +0.000 C 
ATOM     10  C   UNL     1       7.873   1.412  22.503  0.00  0.00    +0.000 C 
ATOM     11  C   UNL     1       7.753   0.302  20.112  0.00  0.00    +0.000 C 
ENDROOT
BRANCH  10  12
ATOM     12  C   UNL     1       7.850   2.841  22.832  0.00  0.00    +0.000 C 
ATOM     13  O   UNL     1       8.797   3.485  23.122  0.00  0.00    +0.000 OA
ATOM     14  N   UNL     1       6.835   3.355  22.081  0.00  0.00    +0.000 NA
ATOM     15  C   UNL     1       5.512   2.769  22.159  0.00  0.00    +0.000 C 
ENDBRANCH  10  12
BRANCH   1  17
ATOM     16  O   UNL     1      10.243  -3.098  23.920  0.00  0.00    +0.000 OA
ATOM     17  C   UNL     1       9.507  -1.964  23.559  0.00  0.00    +0.000 C 
ENDBRANCH   1  17
BRANCH   3  18
ATOM     18  C   UNL     1       6.750  -2.254  24.970  0.00  0.00    +0.000 C 
BRANCH  18  19
ATOM     19  C   UNL     1       6.693  -3.094  26.222  0.00  0.00    +0.000 C 
BRANCH  19  20
ATOM     20  S   UNL     1       7.539  -4.644  25.963  0.00  0.00    +0.000 S 
ATOM     21  O   UNL     1       7.545  -4.904  24.551  0.00  0.00    +0.000 OA
ATOM     22  O   UNL     1       8.829  -4.529  26.586  0.00  0.00    +0.000 OA
ATOM     23  N   UNL     1       6.698  -5.843  26.715  0.00  0.00    +0.000 NA
ENDBRANCH  19  20
ENDBRANCH  18  19
ENDBRANCH   3  18
TORSDOF 5
ENDMDL
MODEL 5
REMARK VINA RESULT:      -6.3      3.472      6.360
REMARK  Name = 
REMARK  5 active torsions:
REMARK  status: ('A' for Active; 'I' for Inactive)
REMARK    1  A    between atoms: C_2  and  C_3
REMARK    2  A    between atoms: N_5  and  C_6
REMARK    3  A    between atoms: C_6  and  C_7
REMARK    4  A    between atoms: C_7  and  S_8
REMARK    5  A    between atoms: C_18  and  C_19
REMARK                            x       y       z     vdW  Elec       q    Type
REMARK                         _______ _______ _______ _____ _____    ______ ____
ROOT
ATOM      1  C   UNL     1       9.403  -1.683  22.572  0.00  0.00    +0.000 C 
ATOM      2  C   UNL     1       9.780  -2.180  23.949  0.00  0.00    +0.000 C 
ATOM      3  N   UNL     1       9.075  -1.522  24.965  0.00  0.00    +0.000 NA
ATOM      4  C   UNL     1       8.800  -0.206  24.814  0.00  0.00    +0.000 C 
ATOM      5  N   UNL     1       9.310   0.488  23.652  0.00  0.00    +0.000 N 
ATOM      6  C   UNL     1       9.749  -0.203  22.473  0.00  0.00    +0.000 C 
ATOM      7  C   UNL     1       9.172   0.364  21.198  0.00  0.00    +0.000 C 
ATOM      8  C   UNL     1       7.651   0.595  21.385  0.00  0.00    +0.000 C 
ATOM      9  C   UNL     1       7.683   1.803  22.469  0.00  0.00    +0.000 C 
ATOM     10  C   UNL     1       8.655   1.754  23.430  0.00  0.00    +0.000 C 
ATOM     11  C   UNL     1       6.184   2.211  22.627  0.00  0.00    +0.000 C 
ENDROOT
BRANCH  10  12
ATOM     12  C   UNL     1       9.742   2.727  23.588  0.00  0.00    +0.000 C 
ATOM     13  O   UNL     1      10.698   2.794  22.896  0.00  0.00    +0.000 OA
ATOM     14  N   UNL     1       9.143   3.840  24.095  0.00  0.00    +0.000 NA
ATOM     15  C   UNL     1       8.336   3.743  25.294  0.00  0.00    +0.000 C 
ENDBRANCH  10  12
BRANCH   1  17
ATOM     16  O   UNL     1       7.711  -3.258  22.031  0.00  0.00    +0.000 OA
ATOM     17  C   UNL     1       7.936  -1.901  22.287  0.00  0.00    +0.000 C 
ENDBRANCH   1  17
BRANCH   3  18
ATOM     18  C   UNL     1       7.960  -2.312  25.370  0.00  0.00    +0.000 C 
BRANCH  18  19
ATOM     19  C   UNL     1       8.345  -3.395  26.347  0.00  0.00    +0.000 C 
BRANCH  19  20
ATOM     20  S   UNL     1       7.952  -5.001  25.674  0.00  0.00    +0.000 S 
ATOM     21  O   UNL     1       7.723  -5.889  26.779  0.00  0.00    +0.000 OA
ATOM     22  O   UNL     1       6.848  -4.821  24.772  0.00  0.00    +0.000 OA
ATOM     23  N   UNL     1       9.246  -5.551  24.816  0.00  0.00    +0.000 NA
ENDBRANCH  19  20
ENDBRANCH  18  19
ENDBRANCH   3  18
TORSDOF 5
ENDMDL
MODEL 6
REMARK VINA RESULT:      -6.2      3.515      6.415
REMARK  Name = 
REMARK  5 active torsions:
REMARK  status: ('A' for Active; 'I' for Inactive)
REMARK    1  A    between atoms: C_2  and  C_3
REMARK    2  A    between atoms: N_5  and  C_6
REMARK    3  A    between atoms: C_6  and  C_7
REMARK    4  A    between atoms: C_7  and  S_8
REMARK    5  A    between atoms: C_18  and  C_19
REMARK                            x       y       z     vdW  Elec       q    Type
REMARK                         _______ _______ _______ _____ _____    ______ ____
ROOT
ATOM      1  C   UNL     1      10.285  -0.080  23.624  0.00  0.00    +0.000 C 
ATOM      2  C   UNL     1      10.026  -0.603  25.018  0.00  0.00    +0.000 C 
ATOM      3  N   UNL     1       8.721  -0.337  25.455  0.00  0.00    +0.000 NA
ATOM      4  C   UNL     1       8.144   0.833  25.093  0.00  0.00    +0.000 C 
ATOM      5  N   UNL     1       8.920   1.793  24.340  0.00  0.00    +0.000 N 
ATOM      6  C   UNL     1      10.112   1.434  23.628  0.00  0.00    +0.000 C 
ATOM      7  C   UNL     1      10.138   1.946  22.207  0.00  0.00    +0.000 C 
ATOM      8  C   UNL     1       8.771   1.658  21.537  0.00  0.00    +0.000 C 
ATOM      9  C   UNL     1       7.824   2.665  22.387  0.00  0.00    +0.000 C 
ATOM     10  C   UNL     1       8.099   2.805  23.720  0.00  0.00    +0.000 C 
ATOM     11  C   UNL     1       6.430   2.554  21.692  0.00  0.00    +0.000 C 
ENDROOT
BRANCH  10  12
ATOM     12  C   UNL     1       8.542   4.043  24.370  0.00  0.00    +0.000 C 
ATOM     13  O   UNL     1       9.549   4.613  24.128  0.00  0.00    +0.000 OA
ATOM     14  N   UNL     1       7.392   4.711  24.668  0.00  0.00    +0.000 NA
ATOM     15  C   UNL     1       6.352   4.051  25.431  0.00  0.00    +0.000 C 
ENDBRANCH  10  12
BRANCH   1  17
ATOM     16  O   UNL     1       9.985  -1.827  22.045  0.00  0.00    +0.000 OA
ATOM     17  C   UNL     1       9.358  -0.713  22.614  0.00  0.00    +0.000 C 
ENDBRANCH   1  17
BRANCH   3  18
ATOM     18  C   UNL     1       7.900  -1.485  25.251  0.00  0.00    +0.000 C 
BRANCH  18  19
ATOM     19  C   UNL     1       8.397  -2.690  26.010  0.00  0.00    +0.000 C 
BRANCH  19  20
ATOM     20  S   UNL     1       8.636  -4.064  24.896  0.00  0.00    +0.000 S 
ATOM     21  O   UNL     1      10.011  -4.051  24.481  0.00  0.00    +0.000 OA
ATOM     22  O   UNL     1       8.199  -5.247  25.585  0.00  0.00    +0.000 OA
ATOM     23  N   UNL     1       7.684  -3.846  23.570  0.00  0.00    +0.000 NA
ENDBRANCH  19  20
ENDBRANCH  18  19
ENDBRANCH   3  18
TORSDOF 5
ENDMDL
MODEL 7
REMARK VINA RESULT:      -6.1      3.498      5.663
REMARK  Name = 
REMARK  5 active torsions:
REMARK  status: ('A' for Active; 'I' for Inactive)
REMARK    1  A    between atoms: C_2  and  C_3
REMARK    2  A    between atoms: N_5  and  C_6
REMARK    3  A    between atoms: C_6  and  C_7
REMARK    4  A    between atoms: C_7  and  S_8
REMARK    5  A    between atoms: C_18  and  C_19
REMARK                            x       y       z     vdW  Elec       q    Type
REMARK                         _______ _______ _______ _____ _____    ______ ____
ROOT
ATOM      1  C   UNL     1       8.667  -3.113  23.795  0.00  0.00    +0.000 C 
ATOM      2  C   UNL     1       7.727  -3.178  24.977  0.00  0.00    +0.000 C 
ATOM      3  N   UNL     1       6.866  -2.075  25.035  0.00  0.00    +0.000 NA
ATOM      4  C   UNL     1       7.340  -0.863  24.662  0.00  0.00    +0.000 C 
ATOM      5  N   UNL     1       8.733  -0.739  24.294  0.00  0.00    +0.000 N 
ATOM      6  C   UNL     1       9.538  -1.870  23.930  0.00  0.00    +0.000 C 
ATOM      7  C   UNL     1      10.318  -1.661  22.653  0.00  0.00    +0.000 C 
ATOM      8  C   UNL     1       9.383  -1.053  21.578  0.00  0.00    +0.000 C 
ATOM      9  C   UNL     1       9.130   0.414  22.224  0.00  0.00    +0.000 C 
ATOM     10  C   UNL     1       9.012   0.485  23.585  0.00  0.00    +0.000 C 
ATOM     11  C   UNL     1       8.300   1.169  21.138  0.00  0.00    +0.000 C 
ENDROOT
BRANCH  10  12
ATOM     12  C   UNL     1       9.935   1.190  24.481  0.00  0.00    +0.000 C 
ATOM     13  O   UNL     1      11.080   0.929  24.617  0.00  0.00    +0.000 OA
ATOM     14  N   UNL     1       9.484   2.476  24.505  0.00  0.00    +0.000 NA
ATOM     15  C   UNL     1       8.102   2.749  24.841  0.00  0.00    +0.000 C 
ENDBRANCH  10  12
BRANCH   1  17
ATOM     16  O   UNL     1       7.571  -4.396  22.126  0.00  0.00    +0.000 OA
ATOM     17  C   UNL     1       7.913  -3.088  22.488  0.00  0.00    +0.000 C 
ENDBRANCH   1  17
BRANCH   3  18
ATOM     18  C   UNL     1       5.605  -2.414  24.460  0.00  0.00    +0.000 C 
BRANCH  18  19
ATOM     19  C   UNL     1       5.001  -3.647  25.086  0.00  0.00    +0.000 C 
BRANCH  19  20
ATOM     20  S   UNL     1       4.362  -4.730  23.819  0.00  0.00    +0.000 S 
ATOM     21  O   UNL     1       4.480  -4.044  22.563  0.00  0.00    +0.000 OA
ATOM     22  O   UNL     1       5.076  -5.973  23.926  0.00  0.00    +0.000 OA
ATOM     23  N   UNL     1       2.767  -5.014  24.115  0.00  0.00    +0.000 NA
ENDBRANCH  19  20
ENDBRANCH  18  19
ENDBRANCH   3  18
TORSDOF 5
ENDMDL
MODEL 8
REMARK VINA RESULT:      -6.1      3.900      6.508
REMARK  Name = 
REMARK  5 active torsions:
REMARK  status: ('A' for Active; 'I' for Inactive)
REMARK    1  A    between atoms: C_2  and  C_3
REMARK    2  A    between atoms: N_5  and  C_6
REMARK    3  A    between atoms: C_6  and  C_7
REMARK    4  A    between atoms: C_7  and  S_8
REMARK    5  A    between atoms: C_18  and  C_19
REMARK                            x       y       z     vdW  Elec       q    Type
REMARK                         _______ _______ _______ _____ _____    ______ ____
ROOT
ATOM      1  C   UNL     1       9.259  -2.973  23.964  0.00  0.00    +0.000 C 
ATOM      2  C   UNL     1       8.815  -3.195  25.391  0.00  0.00    +0.000 C 
ATOM      3  N   UNL     1       7.839  -2.274  25.796  0.00  0.00    +0.000 NA
ATOM      4  C   UNL     1       7.923  -1.001  25.342  0.00  0.00    +0.000 C 
ATOM      5  N   UNL     1       9.055  -0.622  24.526  0.00  0.00    +0.000 N 
ATOM      6  C   UNL     1       9.878  -1.585  23.852  0.00  0.00    +0.000 C 
ATOM      7  C   UNL     1      10.115  -1.256  22.397  0.00  0.00    +0.000 C 
ATOM      8  C   UNL     1       8.770  -0.856  21.739  0.00  0.00    +0.000 C 
ATOM      9  C   UNL     1       8.491   0.548  22.504  0.00  0.00    +0.000 C 
ATOM     10  C   UNL     1       8.840   0.621  23.824  0.00  0.00    +0.000 C 
ATOM     11  C   UNL     1       7.212   1.112  21.807  0.00  0.00    +0.000 C 
ENDROOT
BRANCH  10  12
ATOM     12  C   UNL     1       9.870   1.504  24.383  0.00  0.00    +0.000 C 
ATOM     13  O   UNL     1      11.025   1.434  24.143  0.00  0.00    +0.000 OA
ATOM     14  N   UNL     1       9.244   2.702  24.558  0.00  0.00    +0.000 NA
ATOM     15  C   UNL     1       8.015   2.767  25.321  0.00  0.00    +0.000 C 
ENDBRANCH  10  12
BRANCH   1  17
ATOM     16  O   UNL     1       7.817  -4.474  22.822  0.00  0.00    +0.000 OA
ATOM     17  C   UNL     1       8.108  -3.116  22.997  0.00  0.00    +0.000 C 
ENDBRANCH   1  17
BRANCH   3  18
ATOM     18  C   UNL     1       6.544  -2.856  25.673  0.00  0.00    +0.000 C 
BRANCH  18  19
ATOM     19  C   UNL     1       6.041  -3.422  26.978  0.00  0.00    +0.000 C 
BRANCH  19  20
ATOM     20  S   UNL     1       6.014  -5.206  26.906  0.00  0.00    +0.000 S 
ATOM     21  O   UNL     1       4.808  -5.647  27.548  0.00  0.00    +0.000 OA
ATOM     22  O   UNL     1       6.162  -5.575  25.525  0.00  0.00    +0.000 OA
ATOM     23  N   UNL     1       7.302  -5.793  27.746  0.00  0.00    +0.000 NA
ENDBRANCH  19  20
ENDBRANCH  18  19
ENDBRANCH   3  18
TORSDOF 5
ENDMDL
MODEL 9
REMARK VINA RESULT:      -6.0      3.802      6.816
REMARK  Name = 
REMARK  5 active torsions:
REMARK  status: ('A' for Active; 'I' for Inactive)
REMARK    1  A    between atoms: C_2  and  C_3
REMARK    2  A    between atoms: N_5  and  C_6
REMARK    3  A    between atoms: C_6  and  C_7
REMARK    4  A    between atoms: C_7  and  S_8
REMARK    5  A    between atoms: C_18  and  C_19
REMARK                            x       y       z     vdW  Elec       q    Type
REMARK                         _______ _______ _______ _____ _____    ______ ____
ROOT
ATOM      1  C   UNL     1       7.503  -4.108  23.456  0.00  0.00    +0.000 C 
ATOM      2  C   UNL     1       8.480  -4.702  24.444  0.00  0.00    +0.000 C 
ATOM      3  N   UNL     1       8.881  -3.778  25.419  0.00  0.00    +0.000 NA
ATOM      4  C   UNL     1       9.045  -2.485  25.056  0.00  0.00    +0.000 C 
ATOM      5  N   UNL     1       8.878  -2.121  23.667  0.00  0.00    +0.000 N 
ATOM      6  C   UNL     1       8.181  -2.954  22.729  0.00  0.00    +0.000 C 
ATOM      7  C   UNL     1       7.157  -2.204  21.910  0.00  0.00    +0.000 C 
ATOM      8  C   UNL     1       6.319  -1.298  22.847  0.00  0.00    +0.000 C 
ATOM      9  C   UNL     1       7.453  -0.224  23.286  0.00  0.00    +0.000 C 
ATOM     10  C   UNL     1       8.721  -0.699  23.481  0.00  0.00    +0.000 C 
ATOM     11  C   UNL     1       6.671   0.829  24.133  0.00  0.00    +0.000 C 
ENDROOT
BRANCH  10  12
ATOM     12  C   UNL     1       9.897  -0.331  22.685  0.00  0.00    +0.000 C 
ATOM     13  O   UNL     1       9.987  -0.452  21.513  0.00  0.00    +0.000 OA
ATOM     14  N   UNL     1      10.445   0.730  23.342  0.00  0.00    +0.000 NA
ATOM     15  C   UNL     1      10.768   0.618  24.750  0.00  0.00    +0.000 C 
ENDBRANCH  10  12
BRANCH   1  17
ATOM     16  O   UNL     1       5.351  -4.704  24.261  0.00  0.00    +0.000 OA
ATOM     17  C   UNL     1       6.244  -3.633  24.139  0.00  0.00    +0.000 C 
ENDBRANCH   1  17
BRANCH   3  18
ATOM     18  C   UNL     1       8.110  -3.962  26.605  0.00  0.00    +0.000 C 
BRANCH  18  19
ATOM     19  C   UNL     1       7.889  -5.420  26.927  0.00  0.00    +0.000 C 
BRANCH  19  20
ATOM     20  S   UNL     1       6.323  -5.636  27.755  0.00  0.00    +0.000 S 
ATOM     21  O   UNL     1       5.594  -6.649  27.045  0.00  0.00    +0.000 OA
ATOM     22  O   UNL     1       6.610  -5.918  29.135  0.00  0.00    +0.000 OA
ATOM     23  N   UNL     1       5.477  -4.225  27.674  0.00  0.00    +0.000 NA
ENDBRANCH  19  20
ENDBRANCH  18  19
ENDBRANCH   3  18
TORSDOF 5
ENDMDL
