MODEL 1
REMARK VINA RESULT:      -7.0      0.000      0.000
REMARK  Name = 
REMARK  6 active torsions:
REMARK  status: ('A' for Active; 'I' for Inactive)
REMARK    1  A    between atoms: C_2  and  N_3
REMARK    2  A    between atoms: N_3  and  C_4
REMARK    3  A    between atoms: CA_5  and  C_6
REMARK    4  A    between atoms: C_18  and  C_19
REMARK    5  A    between atoms: C_19  and  C_20
REMARK    6  A    between atoms: C_20  and  C_26
REMARK                            x       y       z     vdW  Elec       q    Type
REMARK                         _______ _______ _______ _____ _____    ______ ____
ROOT
ATOM      1  N   UNL     1       6.773  -3.964  25.304  0.00  0.00    +0.000 N 
ATOM      2  C   UNL     1       6.153  -2.816  25.380  0.00  0.00    +0.000 C 
ATOM      3  N   UNL     1       4.945  -2.824  25.516  0.00  0.00    +0.000 NA
ATOM      4  C   UNL     1       4.290  -2.169  26.573  0.00  0.00    +0.000 C 
ATOM      5  C   UNL     1       5.136  -0.880  26.547  0.00  0.00    +0.000 C 
ATOM      6  C   UNL     1       5.873  -0.487  25.296  0.00  0.00    +0.000 C 
ATOM      7  C   UNL     1       6.976  -1.548  24.943  0.00  0.00    +0.000 C 
ENDROOT
BRANCH   1   8
ATOM      8  C   UNL     1       6.356  -4.911  24.296  0.00  0.00    +0.000 C 
ATOM      9  CA  UNL     1       5.165  -4.912  23.665  0.00  0.00    +0.000 C 
ATOM     10  N   UNL     1       4.845  -4.350  22.287  0.00  0.00    +0.000 NA
ATOM     11  C   UNL     1       6.133  -4.870  21.801  0.00  0.00    +0.000 C 
ATOM     12  O   UNL     1       5.977  -5.475  20.731  0.00  0.00    +0.000 OA
ATOM     13  C   UNL     1       7.458  -4.479  22.304  0.00  0.00    +0.000 C 
ATOM     14  C   UNL     1       7.839  -5.294  23.639  0.00  0.00    +0.000 C 
BRANCH   9  15
ATOM     15  C   UNL     1       3.992  -5.943  23.913  0.00  0.00    +0.000 C 
ATOM     16  O   UNL     1       4.630  -7.173  24.156  0.00  0.00    +0.000 OA
ENDBRANCH   9  15
ENDBRANCH   1   8
BRANCH   1  18
ATOM     17  C   UNL     1       6.831  -5.328  27.296  0.00  0.00    +0.000 C 
ATOM     18  C   UNL     1       7.655  -4.494  26.315  0.00  0.00    +0.000 C 
ENDBRANCH   1  18
BRANCH   7  19
ATOM     19  C   UNL     1       7.172  -1.613  23.450  0.00  0.00    +0.000 C 
BRANCH  19  20
ATOM     20  C   UNL     1       8.530  -1.121  23.080  0.00  0.00    +0.000 C 
ATOM     21  C   UNL     1       8.604   0.422  23.203  0.00  0.00    +0.000 C 
ATOM     22  C   UNL     1       9.183   0.878  21.840  0.00  0.00    +0.000 C 
ATOM     23  N   UNL     1       8.987  -0.195  20.895  0.00  0.00    +0.000 NA
ATOM     24  C   UNL     1       8.862  -1.436  21.624  0.00  0.00    +0.000 C 
ATOM     25  C   UNL     1       7.732   0.045  20.229  0.00  0.00    +0.000 C 
BRANCH  20  26
ATOM     26  C   UNL     1       9.595  -1.697  23.952  0.00  0.00    +0.000 C 
ATOM     27  O   UNL     1      10.217  -2.700  23.633  0.00  0.00    +0.000 OA
ATOM     28  O   UNL     1      10.232  -0.669  24.535  0.00  0.00    +0.000 OA
ENDBRANCH  20  26
ENDBRANCH  19  20
ENDBRANCH   7  19
TORSDOF 6
ENDMDL
MODEL 2
REMARK VINA RESULT:      -6.8      2.350      6.048
REMARK  Name = 
REMARK  6 active torsions:
REMARK  status: ('A' for Active; 'I' for Inactive)
REMARK    1  A    between atoms: C_2  and  N_3
REMARK    2  A    between atoms: N_3  and  C_4
REMARK    3  A    between atoms: CA_5  and  C_6
REMARK    4  A    between atoms: C_18  and  C_19
REMARK    5  A    between atoms: C_19  and  C_20
REMARK    6  A    between atoms: C_20  and  C_26
REMARK                            x       y       z     vdW  Elec       q    Type
REMARK                         _______ _______ _______ _____ _____    ______ ____
ROOT
ATOM      1  N   UNL     1       8.601  -0.087  24.395  0.00  0.00    +0.000 N 
ATOM      2  C   UNL     1       8.120   0.006  23.184  0.00  0.00    +0.000 C 
ATOM      3  N   UNL     1       7.759   1.098  22.792  0.00  0.00    +0.000 NA
ATOM      4  C   UNL     1       8.254   1.692  21.619  0.00  0.00    +0.000 C 
ATOM      5  C   UNL     1       8.233   0.422  20.743  0.00  0.00    +0.000 C 
ATOM      6  C   UNL     1       7.324  -0.723  21.099  0.00  0.00    +0.000 C 
ATOM      7  C   UNL     1       7.733  -1.348  22.481  0.00  0.00    +0.000 C 
ENDROOT
BRANCH   1   8
ATOM      8  C   UNL     1       7.797   0.386  25.498  0.00  0.00    +0.000 C 
ATOM      9  CA  UNL     1       6.572   0.938  25.397  0.00  0.00    +0.000 C 
ATOM     10  N   UNL     1       5.227   0.257  25.606  0.00  0.00    +0.000 NA
ATOM     11  C   UNL     1       5.802  -0.479  26.742  0.00  0.00    +0.000 C 
ATOM     12  O   UNL     1       5.043  -0.420  27.721  0.00  0.00    +0.000 OA
ATOM     13  C   UNL     1       6.933  -1.416  26.672  0.00  0.00    +0.000 C 
ATOM     14  C   UNL     1       8.340  -0.635  26.699  0.00  0.00    +0.000 C 
BRANCH   9  15
ATOM     15  C   UNL     1       6.233   2.470  25.595  0.00  0.00    +0.000 C 
ATOM     16  O   UNL     1       7.471   3.091  25.841  0.00  0.00    +0.000 OA
ENDBRANCH   9  15
ENDBRANCH   1   8
BRANCH   1  18
ATOM     17  C   UNL     1      10.814   0.880  24.396  0.00  0.00    +0.000 C 
ATOM     18  C   UNL     1       9.981  -0.361  24.716  0.00  0.00    +0.000 C 
ENDBRANCH   1  18
BRANCH   7  19
ATOM     19  C   UNL     1       6.517  -1.902  23.177  0.00  0.00    +0.000 C 
BRANCH  19  20
ATOM     20  C   UNL     1       6.482  -3.389  23.064  0.00  0.00    +0.000 C 
ATOM     21  C   UNL     1       6.058  -4.028  24.411  0.00  0.00    +0.000 C 
ATOM     22  C   UNL     1       7.151  -5.093  24.678  0.00  0.00    +0.000 C 
ATOM     23  N   UNL     1       8.300  -4.761  23.871  0.00  0.00    +0.000 NA
ATOM     24  C   UNL     1       7.862  -3.960  22.751  0.00  0.00    +0.000 C 
ATOM     25  C   UNL     1       9.168  -3.941  24.678  0.00  0.00    +0.000 C 
BRANCH  20  26
ATOM     26  C   UNL     1       5.522  -3.853  22.020  0.00  0.00    +0.000 C 
ATOM     27  O   UNL     1       5.897  -4.433  21.012  0.00  0.00    +0.000 OA
ATOM     28  O   UNL     1       4.409  -4.256  22.652  0.00  0.00    +0.000 OA
ENDBRANCH  20  26
ENDBRANCH  19  20
ENDBRANCH   7  19
TORSDOF 6
ENDMDL
MODEL 3
REMARK VINA RESULT:      -6.7      1.533      2.042
REMARK  Name = 
REMARK  6 active torsions:
REMARK  status: ('A' for Active; 'I' for Inactive)
REMARK    1  A    between atoms: C_2  and  N_3
REMARK    2  A    between atoms: N_3  and  C_4
REMARK    3  A    between atoms: CA_5  and  C_6
REMARK    4  A    between atoms: C_18  and  C_19
REMARK    5  A    between atoms: C_19  and  C_20
REMARK    6  A    between atoms: C_20  and  C_26
REMARK                            x       y       z     vdW  Elec       q    Type
REMARK                         _______ _______ _______ _____ _____    ______ ____
ROOT
ATOM      1  N   UNL     1       6.807  -3.979  25.240  0.00  0.00    +0.000 N 
ATOM      2  C   UNL     1       6.034  -2.962  25.515  0.00  0.00    +0.000 C 
ATOM      3  N   UNL     1       4.884  -3.186  25.841  0.00  0.00    +0.000 NA
ATOM      4  C   UNL     1       4.324  -2.720  27.042  0.00  0.00    +0.000 C 
ATOM      5  C   UNL     1       4.937  -1.305  26.998  0.00  0.00    +0.000 C 
ATOM      6  C   UNL     1       5.375  -0.715  25.685  0.00  0.00    +0.000 C 
ATOM      7  C   UNL     1       6.556  -1.546  25.068  0.00  0.00    +0.000 C 
ENDROOT
BRANCH   1   8
ATOM      8  C   UNL     1       6.379  -4.920  24.231  0.00  0.00    +0.000 C 
ATOM      9  CA  UNL     1       5.171  -4.937  23.634  0.00  0.00    +0.000 C 
ATOM     10  N   UNL     1       4.800  -4.363  22.274  0.00  0.00    +0.000 NA
ATOM     11  C   UNL     1       6.084  -4.849  21.744  0.00  0.00    +0.000 C 
ATOM     12  O   UNL     1       5.908  -5.443  20.670  0.00  0.00    +0.000 OA
ATOM     13  C   UNL     1       7.414  -4.438  22.215  0.00  0.00    +0.000 C 
ATOM     14  C   UNL     1       7.850  -5.264  23.526  0.00  0.00    +0.000 C 
BRANCH   9  15
ATOM     15  C   UNL     1       4.026  -5.995  23.901  0.00  0.00    +0.000 C 
ATOM     16  O   UNL     1       4.590  -6.930  24.788  0.00  0.00    +0.000 OA
ENDBRANCH   9  15
ENDBRANCH   1   8
BRANCH   1  18
ATOM     17  C   UNL     1       7.401  -5.325  27.154  0.00  0.00    +0.000 C 
ATOM     18  C   UNL     1       7.922  -4.409  26.046  0.00  0.00    +0.000 C 
ENDBRANCH   1  18
BRANCH   7  19
ATOM     19  C   UNL     1       6.500  -1.485  23.563  0.00  0.00    +0.000 C 
BRANCH  19  20
ATOM     20  C   UNL     1       7.522  -0.533  23.041  0.00  0.00    +0.000 C 
ATOM     21  C   UNL     1       8.079  -1.024  21.680  0.00  0.00    +0.000 C 
ATOM     22  C   UNL     1       9.617  -0.979  21.869  0.00  0.00    +0.000 C 
ATOM     23  N   UNL     1       9.888  -0.958  23.286  0.00  0.00    +0.000 NA
ATOM     24  C   UNL     1       8.728  -0.439  23.971  0.00  0.00    +0.000 C 
ATOM     25  C   UNL     1      10.066  -2.325  23.707  0.00  0.00    +0.000 C 
BRANCH  20  26
ATOM     26  C   UNL     1       6.965   0.836  22.836  0.00  0.00    +0.000 C 
ATOM     27  O   UNL     1       7.301   1.780  23.535  0.00  0.00    +0.000 OA
ATOM     28  O   UNL     1       6.797   1.005  21.515  0.00  0.00    +0.000 OA
ENDBRANCH  20  26
ENDBRANCH  19  20
ENDBRANCH   7  19
TORSDOF 6
ENDMDL
MODEL 4
REMARK VINA RESULT:      -6.4      2.845      6.326
REMARK  Name = 
REMARK  6 active torsions:
REMARK  status: ('A' for Active; 'I' for Inactive)
REMARK    1  A    between atoms: C_2  and  N_3
REMARK    2  A    between atoms: N_3  and  C_4
REMARK    3  A    between atoms: CA_5  and  C_6
REMARK    4  A    between atoms: C_18  and  C_19
REMARK    5  A    between atoms: C_19  and  C_20
REMARK    6  A    between atoms: C_20  and  C_26
REMARK                            x       y       z     vdW  Elec       q    Type
REMARK                         _______ _______ _______ _____ _____    ______ ____
ROOT
ATOM      1  N   UNL     1       7.378   1.786  24.196  0.00  0.00    +0.000 N 
ATOM      2  C   UNL     1       6.832   0.827  24.895  0.00  0.00    +0.000 C 
ATOM      3  N   UNL     1       6.828   0.929  26.106  0.00  0.00    +0.000 NA
ATOM      4  C   UNL     1       5.654   0.867  26.876  0.00  0.00    +0.000 C 
ATOM      5  C   UNL     1       4.995  -0.303  26.117  0.00  0.00    +0.000 C 
ATOM      6  C   UNL     1       5.843  -1.259  25.323  0.00  0.00    +0.000 C 
ATOM      7  C   UNL     1       6.547  -0.519  24.129  0.00  0.00    +0.000 C 
ENDROOT
BRANCH   1   8
ATOM      8  C   UNL     1       8.745   2.156  24.478  0.00  0.00    +0.000 C 
ATOM      9  CA  UNL     1       9.830   1.728  23.804  0.00  0.00    +0.000 C 
ATOM     10  N   UNL     1      10.585   2.456  22.701  0.00  0.00    +0.000 NA
ATOM     11  C   UNL     1      10.415   3.713  23.447  0.00  0.00    +0.000 C 
ATOM     12  O   UNL     1      11.492   4.323  23.513  0.00  0.00    +0.000 OA
ATOM     13  C   UNL     1       9.129   4.336  23.792  0.00  0.00    +0.000 C 
ATOM     14  C   UNL     1       8.499   3.676  25.118  0.00  0.00    +0.000 C 
BRANCH   9  15
ATOM     15  C   UNL     1      10.893   0.683  24.336  0.00  0.00    +0.000 C 
ATOM     16  O   UNL     1      10.373   0.222  25.559  0.00  0.00    +0.000 OA
ENDBRANCH   9  15
ENDBRANCH   1   8
BRANCH   1  18
ATOM     17  C   UNL     1       6.822   2.274  21.898  0.00  0.00    +0.000 C 
ATOM     18  C   UNL     1       6.655   2.707  23.354  0.00  0.00    +0.000 C 
ENDBRANCH   1  18
BRANCH   7  19
ATOM     19  C   UNL     1       7.871  -1.171  23.826  0.00  0.00    +0.000 C 
BRANCH  19  20
ATOM     20  C   UNL     1       7.854  -1.779  22.465  0.00  0.00    +0.000 C 
ATOM     21  C   UNL     1       6.593  -1.332  21.683  0.00  0.00    +0.000 C 
ATOM     22  C   UNL     1       5.981  -2.661  21.171  0.00  0.00    +0.000 C 
ATOM     23  N   UNL     1       6.524  -3.734  21.970  0.00  0.00    +0.000 NA
ATOM     24  C   UNL     1       7.782  -3.302  22.532  0.00  0.00    +0.000 C 
ATOM     25  C   UNL     1       5.612  -3.956  23.064  0.00  0.00    +0.000 C 
BRANCH  20  26
ATOM     26  C   UNL     1       9.048  -1.390  21.659  0.00  0.00    +0.000 C 
ATOM     27  O   UNL     1       9.128  -0.302  21.108  0.00  0.00    +0.000 OA
ATOM     28  O   UNL     1      10.125  -1.919  22.260  0.00  0.00    +0.000 OA
ENDBRANCH  20  26
ENDBRANCH  19  20
ENDBRANCH   7  19
TORSDOF 6
ENDMDL
MODEL 5
REMARK VINA RESULT:      -6.4      1.754      2.738
REMARK  Name = 
REMARK  6 active torsions:
REMARK  status: ('A' for Active; 'I' for Inactive)
REMARK    1  A    between atoms: C_2  and  N_3
REMARK    2  A    between atoms: N_3  and  C_4
REMARK    3  A    between atoms: CA_5  and  C_6
REMARK    4  A    between atoms: C_18  and  C_19
REMARK    5  A    between atoms: C_19  and  C_20
REMARK    6  A    between atoms: C_20  and  C_26
REMARK                            x       y       z     vdW  Elec       q    Type
REMARK                         _______ _______ _______ _____ _____    ______ ____
ROOT
ATOM      1  N   UNL     1       6.407  -2.386  25.609  0.00  0.00    +0.000 N 
ATOM      2  C   UNL     1       6.177  -1.101  25.557  0.00  0.00    +0.000 C 
ATOM      3  N   UNL     1       5.021  -0.725  25.540  0.00  0.00    +0.000 NA
ATOM      4  C   UNL     1       4.496   0.182  26.477  0.00  0.00    +0.000 C 
ATOM      5  C   UNL     1       5.704   1.141  26.505  0.00  0.00    +0.000 C 
ATOM      6  C   UNL     1       6.656   1.188  25.341  0.00  0.00    +0.000 C 
ATOM      7  C   UNL     1       7.400  -0.186  25.175  0.00  0.00    +0.000 C 
ENDROOT
BRANCH   1   8
ATOM      8  C   UNL     1       5.822  -3.234  24.596  0.00  0.00    +0.000 C 
ATOM      9  CA  UNL     1       6.502  -3.914  23.652  0.00  0.00    +0.000 C 
ATOM     10  N   UNL     1       6.903  -5.382  23.673  0.00  0.00    +0.000 NA
ATOM     11  C   UNL     1       5.595  -5.707  24.264  0.00  0.00    +0.000 C 
ATOM     12  O   UNL     1       5.079  -6.663  23.666  0.00  0.00    +0.000 OA
ATOM     13  C   UNL     1       5.092  -5.214  25.554  0.00  0.00    +0.000 C 
ATOM     14  C   UNL     1       4.458  -3.741  25.409  0.00  0.00    +0.000 C 
BRANCH   9  15
ATOM     15  C   UNL     1       6.556  -3.550  22.114  0.00  0.00    +0.000 C 
ATOM     16  O   UNL     1       5.219  -3.312  21.746  0.00  0.00    +0.000 OA
ENDBRANCH   9  15
ENDBRANCH   1   8
BRANCH   1  18
ATOM     17  C   UNL     1       8.436  -3.376  26.464  0.00  0.00    +0.000 C 
ATOM     18  C   UNL     1       6.963  -3.080  26.744  0.00  0.00    +0.000 C 
ENDBRANCH   1  18
BRANCH   7  19
ATOM     19  C   UNL     1       7.723  -0.426  23.724  0.00  0.00    +0.000 C 
BRANCH  19  20
ATOM     20  C   UNL     1       9.200  -0.462  23.516  0.00  0.00    +0.000 C 
ATOM     21  C   UNL     1       9.943  -0.369  24.873  0.00  0.00    +0.000 C 
ATOM     22  C   UNL     1      10.967   0.775  24.659  0.00  0.00    +0.000 C 
ATOM     23  N   UNL     1      10.527   1.557  23.528  0.00  0.00    +0.000 NA
ATOM     24  C   UNL     1       9.680   0.733  22.698  0.00  0.00    +0.000 C 
ATOM     25  C   UNL     1       9.717   2.633  24.042  0.00  0.00    +0.000 C 
BRANCH  20  26
ATOM     26  C   UNL     1       9.644  -1.716  22.841  0.00  0.00    +0.000 C 
ATOM     27  O   UNL     1      10.160  -1.704  21.733  0.00  0.00    +0.000 OA
ATOM     28  O   UNL     1      10.117  -2.536  23.793  0.00  0.00    +0.000 OA
ENDBRANCH  20  26
ENDBRANCH  19  20
ENDBRANCH   7  19
TORSDOF 6
ENDMDL
MODEL 6
REMARK VINA RESULT:      -6.3      2.618      5.470
REMARK  Name = 
REMARK  6 active torsions:
REMARK  status: ('A' for Active; 'I' for Inactive)
REMARK    1  A    between atoms: C_2  and  N_3
REMARK    2  A    between atoms: N_3  and  C_4
REMARK    3  A    between atoms: CA_5  and  C_6
REMARK    4  A    between atoms: C_18  and  C_19
REMARK    5  A    between atoms: C_19  and  C_20
REMARK    6  A    between atoms: C_20  and  C_26
REMARK                            x       y       z     vdW  Elec       q    Type
REMARK                         _______ _______ _______ _____ _____    ______ ____
ROOT
ATOM      1  N   UNL     1       8.609  -2.620  23.357  0.00  0.00    +0.000 N 
ATOM      2  C   UNL     1       7.514  -3.324  23.244  0.00  0.00    +0.000 C 
ATOM      3  N   UNL     1       7.255  -3.815  22.163  0.00  0.00    +0.000 NA
ATOM      4  C   UNL     1       7.027  -5.189  21.980  0.00  0.00    +0.000 C 
ATOM      5  C   UNL     1       6.167  -5.405  23.242  0.00  0.00    +0.000 C 
ATOM      6  C   UNL     1       5.446  -4.244  23.870  0.00  0.00    +0.000 C 
ATOM      7  C   UNL     1       6.469  -3.182  24.413  0.00  0.00    +0.000 C 
ENDROOT
BRANCH   1   8
ATOM      8  C   UNL     1       8.811  -1.508  22.458  0.00  0.00    +0.000 C 
ATOM      9  CA  UNL     1       7.981  -0.457  22.308  0.00  0.00    +0.000 C 
ATOM     10  N   UNL     1       8.105   0.922  22.941  0.00  0.00    +0.000 NA
ATOM     11  C   UNL     1       9.557   0.870  22.712  0.00  0.00    +0.000 C 
ATOM     12  O   UNL     1       9.950   1.929  22.200  0.00  0.00    +0.000 OA
ATOM     13  C   UNL     1      10.479  -0.124  23.279  0.00  0.00    +0.000 C 
ATOM     14  C   UNL     1      10.478  -1.482  22.414  0.00  0.00    +0.000 C 
BRANCH   9  15
ATOM     15  C   UNL     1       7.039  -0.197  21.064  0.00  0.00    +0.000 C 
ATOM     16  O   UNL     1       7.895  -0.199  19.949  0.00  0.00    +0.000 OA
ENDBRANCH   9  15
ENDBRANCH   1   8
BRANCH   1  18
ATOM     17  C   UNL     1       9.444  -4.299  24.878  0.00  0.00    +0.000 C 
ATOM     18  C   UNL     1       9.772  -3.018  24.112  0.00  0.00    +0.000 C 
ENDBRANCH   1  18
BRANCH   7  19
ATOM     19  C   UNL     1       5.871  -1.802  24.336  0.00  0.00    +0.000 C 
BRANCH  19  20
ATOM     20  C   UNL     1       5.633  -1.259  25.705  0.00  0.00    +0.000 C 
ATOM     21  C   UNL     1       5.671   0.290  25.691  0.00  0.00    +0.000 C 
ATOM     22  C   UNL     1       6.661   0.649  26.829  0.00  0.00    +0.000 C 
ATOM     23  N   UNL     1       7.457  -0.522  27.107  0.00  0.00    +0.000 NA
ATOM     24  C   UNL     1       6.726  -1.691  26.677  0.00  0.00    +0.000 C 
ATOM     25  C   UNL     1       8.647  -0.432  26.300  0.00  0.00    +0.000 C 
BRANCH  20  26
ATOM     26  C   UNL     1       4.309  -1.675  26.254  0.00  0.00    +0.000 C 
ATOM     27  O   UNL     1       4.209  -2.552  27.099  0.00  0.00    +0.000 OA
ATOM     28  O   UNL     1       3.547  -0.573  26.336  0.00  0.00    +0.000 OA
ENDBRANCH  20  26
ENDBRANCH  19  20
ENDBRANCH   7  19
TORSDOF 6
ENDMDL
MODEL 7
REMARK VINA RESULT:      -6.2      2.538      4.936
REMARK  Name = 
REMARK  6 active torsions:
REMARK  status: ('A' for Active; 'I' for Inactive)
REMARK    1  A    between atoms: C_2  and  N_3
REMARK    2  A    between atoms: N_3  and  C_4
REMARK    3  A    between atoms: CA_5  and  C_6
REMARK    4  A    between atoms: C_18  and  C_19
REMARK    5  A    between atoms: C_19  and  C_20
REMARK    6  A    between atoms: C_20  and  C_26
REMARK                            x       y       z     vdW  Elec       q    Type
REMARK                         _______ _______ _______ _____ _____    ______ ____
ROOT
ATOM      1  N   UNL     1       7.545  -2.944  23.378  0.00  0.00    +0.000 N 
ATOM      2  C   UNL     1       8.425  -1.997  23.563  0.00  0.00    +0.000 C 
ATOM      3  N   UNL     1       9.602  -2.272  23.431  0.00  0.00    +0.000 NA
ATOM      4  C   UNL     1      10.455  -1.586  22.551  0.00  0.00    +0.000 C 
ATOM      5  C   UNL     1       9.941  -0.165  22.862  0.00  0.00    +0.000 C 
ATOM      6  C   UNL     1       9.249   0.117  24.168  0.00  0.00    +0.000 C 
ATOM      7  C   UNL     1       7.905  -0.690  24.271  0.00  0.00    +0.000 C 
ENDROOT
BRANCH   1   8
ATOM      8  C   UNL     1       7.665  -4.160  24.149  0.00  0.00    +0.000 C 
ATOM      9  CA  UNL     1       7.952  -4.231  25.464  0.00  0.00    +0.000 C 
ATOM     10  N   UNL     1       6.975  -4.410  26.618  0.00  0.00    +0.000 NA
ATOM     11  C   UNL     1       6.218  -5.369  25.798  0.00  0.00    +0.000 C 
ATOM     12  O   UNL     1       5.967  -6.391  26.454  0.00  0.00    +0.000 OA
ATOM     13  C   UNL     1       5.566  -5.071  24.515  0.00  0.00    +0.000 C 
ATOM     14  C   UNL     1       6.616  -5.137  23.297  0.00  0.00    +0.000 C 
BRANCH   9  15
ATOM     15  C   UNL     1       9.328  -4.704  26.082  0.00  0.00    +0.000 C 
ATOM     16  O   UNL     1      10.075  -5.184  24.991  0.00  0.00    +0.000 OA
ENDBRANCH   9  15
ENDBRANCH   1   8
BRANCH   1  18
ATOM     17  C   UNL     1       6.707  -1.700  21.486  0.00  0.00    +0.000 C 
ATOM     18  C   UNL     1       6.622  -3.009  22.271  0.00  0.00    +0.000 C 
ENDBRANCH   1  18
BRANCH   7  19
ATOM     19  C   UNL     1       7.614  -1.026  25.710  0.00  0.00    +0.000 C 
BRANCH  19  20
ATOM     20  C   UNL     1       6.300  -0.455  26.124  0.00  0.00    +0.000 C 
ATOM     21  C   UNL     1       5.659   0.340  24.959  0.00  0.00    +0.000 C 
ATOM     22  C   UNL     1       5.300   1.707  25.594  0.00  0.00    +0.000 C 
ATOM     23  N   UNL     1       6.081   1.854  26.799  0.00  0.00    +0.000 NA
ATOM     24  C   UNL     1       6.458   0.541  27.269  0.00  0.00    +0.000 C 
ATOM     25  C   UNL     1       7.291   2.551  26.442  0.00  0.00    +0.000 C 
BRANCH  20  26
ATOM     26  C   UNL     1       5.331  -1.513  26.539  0.00  0.00    +0.000 C 
ATOM     27  O   UNL     1       4.803  -1.507  27.640  0.00  0.00    +0.000 OA
ATOM     28  O   UNL     1       4.616  -1.846  25.452  0.00  0.00    +0.000 OA
ENDBRANCH  20  26
ENDBRANCH  19  20
ENDBRANCH   7  19
TORSDOF 6
ENDMDL
MODEL 8
REMARK VINA RESULT:      -6.2      2.491      3.650
REMARK  Name = 
REMARK  6 active torsions:
REMARK  status: ('A' for Active; 'I' for Inactive)
REMARK    1  A    between atoms: C_2  and  N_3
REMARK    2  A    between atoms: N_3  and  C_4
REMARK    3  A    between atoms: CA_5  and  C_6
REMARK    4  A    between atoms: C_18  and  C_19
REMARK    5  A    between atoms: C_19  and  C_20
REMARK    6  A    between atoms: C_20  and  C_26
REMARK                            x       y       z     vdW  Elec       q    Type
REMARK                         _______ _______ _______ _____ _____    ______ ____
ROOT
ATOM      1  N   UNL     1       8.008  -3.635  24.412  0.00  0.00    +0.000 N 
ATOM      2  C   UNL     1       7.096  -3.766  25.338  0.00  0.00    +0.000 C 
ATOM      3  N   UNL     1       6.451  -4.796  25.368  0.00  0.00    +0.000 NA
ATOM      4  C   UNL     1       6.368  -5.616  26.506  0.00  0.00    +0.000 C 
ATOM      5  C   UNL     1       6.212  -4.483  27.541  0.00  0.00    +0.000 C 
ATOM      6  C   UNL     1       5.692  -3.138  27.113  0.00  0.00    +0.000 C 
ATOM      7  C   UNL     1       6.684  -2.454  26.104  0.00  0.00    +0.000 C 
ENDROOT
BRANCH   1   8
ATOM      8  C   UNL     1       7.618  -3.793  23.030  0.00  0.00    +0.000 C 
ATOM      9  CA  UNL     1       6.478  -4.365  22.596  0.00  0.00    +0.000 C 
ATOM     10  N   UNL     1       5.197  -3.667  22.161  0.00  0.00    +0.000 NA
ATOM     11  C   UNL     1       6.012  -2.639  21.493  0.00  0.00    +0.000 C 
ATOM     12  O   UNL     1       5.588  -2.433  20.346  0.00  0.00    +0.000 OA
ATOM     13  C   UNL     1       6.974  -1.746  22.154  0.00  0.00    +0.000 C 
ATOM     14  C   UNL     1       8.394  -2.475  22.367  0.00  0.00    +0.000 C 
BRANCH   9  15
ATOM     15  C   UNL     1       6.362  -5.785  21.911  0.00  0.00    +0.000 C 
ATOM     16  O   UNL     1       5.011  -5.904  21.538  0.00  0.00    +0.000 OA
ENDBRANCH   9  15
ENDBRANCH   1   8
BRANCH   1  18
ATOM     17  C   UNL     1       9.826  -4.937  25.324  0.00  0.00    +0.000 C 
ATOM     18  C   UNL     1       9.430  -3.623  24.650  0.00  0.00    +0.000 C 
ENDBRANCH   1  18
BRANCH   7  19
ATOM     19  C   UNL     1       5.922  -1.577  25.145  0.00  0.00    +0.000 C 
BRANCH  19  20
ATOM     20  C   UNL     1       6.012  -0.148  25.560  0.00  0.00    +0.000 C 
ATOM     21  C   UNL     1       6.075   0.777  24.318  0.00  0.00    +0.000 C 
ATOM     22  C   UNL     1       7.305   1.682  24.590  0.00  0.00    +0.000 C 
ATOM     23  N   UNL     1       8.120   1.031  25.587  0.00  0.00    +0.000 NA
ATOM     24  C   UNL     1       7.289   0.128  26.348  0.00  0.00    +0.000 C 
ATOM     25  C   UNL     1       9.098   0.235  24.887  0.00  0.00    +0.000 C 
BRANCH  20  26
ATOM     26  C   UNL     1       4.839   0.276  26.381  0.00  0.00    +0.000 C 
ATOM     27  O   UNL     1       4.925   0.445  27.588  0.00  0.00    +0.000 OA
ATOM     28  O   UNL     1       4.114   1.123  25.634  0.00  0.00    +0.000 OA
ENDBRANCH  20  26
ENDBRANCH  19  20
ENDBRANCH   7  19
TORSDOF 6
ENDMDL
MODEL 9
REMARK VINA RESULT:      -6.1      2.327      5.862
REMARK  Name = 
REMARK  6 active torsions:
REMARK  status: ('A' for Active; 'I' for Inactive)
REMARK    1  A    between atoms: C_2  and  N_3
REMARK    2  A    between atoms: N_3  and  C_4
REMARK    3  A    between atoms: CA_5  and  C_6
REMARK    4  A    between atoms: C_18  and  C_19
REMARK    5  A    between atoms: C_19  and  C_20
REMARK    6  A    between atoms: C_20  and  C_26
REMARK                            x       y       z     vdW  Elec       q    Type
REMARK                         _______ _______ _______ _____ _____    ______ ____
ROOT
ATOM      1  N   UNL     1       8.191  -0.596  23.682  0.00  0.00    +0.000 N 
ATOM      2  C   UNL     1       7.521  -0.600  22.561  0.00  0.00    +0.000 C 
ATOM      3  N   UNL     1       7.076   0.456  22.154  0.00  0.00    +0.000 NA
ATOM      4  C   UNL     1       7.362   0.967  20.877  0.00  0.00    +0.000 C 
ATOM      5  C   UNL     1       7.233  -0.365  20.109  0.00  0.00    +0.000 C 
ATOM      6  C   UNL     1       6.422  -1.492  20.687  0.00  0.00    +0.000 C 
ATOM      7  C   UNL     1       7.060  -2.007  22.027  0.00  0.00    +0.000 C 
ENDROOT
BRANCH   1   8
ATOM      8  C   UNL     1       7.561  -0.052  24.863  0.00  0.00    +0.000 C 
ATOM      9  CA  UNL     1       6.274   0.335  24.959  0.00  0.00    +0.000 C 
ATOM     10  N   UNL     1       5.109  -0.454  25.539  0.00  0.00    +0.000 NA
ATOM     11  C   UNL     1       5.997  -0.934  26.609  0.00  0.00    +0.000 C 
ATOM     12  O   UNL     1       5.446  -0.811  27.713  0.00  0.00    +0.000 OA
ATOM     13  C   UNL     1       7.214  -1.736  26.416  0.00  0.00    +0.000 C 
ATOM     14  C   UNL     1       8.472  -0.806  26.039  0.00  0.00    +0.000 C 
BRANCH   9  15
ATOM     15  C   UNL     1       5.765   1.831  25.029  0.00  0.00    +0.000 C 
ATOM     16  O   UNL     1       4.384   1.761  24.767  0.00  0.00    +0.000 OA
ENDBRANCH   9  15
ENDBRANCH   1   8
BRANCH   1  18
ATOM     17  C   UNL     1      10.160  -1.188  22.416  0.00  0.00    +0.000 C 
ATOM     18  C   UNL     1       9.610  -0.827  23.796  0.00  0.00    +0.000 C 
ENDBRANCH   1  18
BRANCH   7  19
ATOM     19  C   UNL     1       5.985  -2.523  22.947  0.00  0.00    +0.000 C 
BRANCH  19  20
ATOM     20  C   UNL     1       6.218  -3.960  23.269  0.00  0.00    +0.000 C 
ATOM     21  C   UNL     1       5.602  -4.871  22.177  0.00  0.00    +0.000 C 
ATOM     22  C   UNL     1       4.746  -5.885  22.977  0.00  0.00    +0.000 C 
ATOM     23  N   UNL     1       4.501  -5.324  24.284  0.00  0.00    +0.000 NA
ATOM     24  C   UNL     1       5.537  -4.360  24.575  0.00  0.00    +0.000 C 
ATOM     25  C   UNL     1       3.251  -4.610  24.216  0.00  0.00    +0.000 C 
BRANCH  20  26
ATOM     26  C   UNL     1       7.671  -4.288  23.366  0.00  0.00    +0.000 C 
ATOM     27  O   UNL     1       8.289  -4.175  24.414  0.00  0.00    +0.000 OA
ATOM     28  O   UNL     1       7.897  -5.339  22.562  0.00  0.00    +0.000 OA
ENDBRANCH  20  26
ENDBRANCH  19  20
ENDBRANCH   7  19
TORSDOF 6
ENDMDL
