MODEL 1
REMARK VINA RESULT:      -7.0      0.000      0.000
REMARK  Name = 
REMARK  7 active torsions:
REMARK  status: ('A' for Active; 'I' for Inactive)
REMARK    1  A    between atoms: C_2  and  N_3
REMARK    2  A    between atoms: C_10  and  C_11
REMARK    3  A    between atoms: C_11  and  C_12
REMARK    4  A    between atoms: C_11  and  C_26
REMARK    5  A    between atoms: C_12  and  C_13
REMARK    6  A    between atoms: C_13  and  C_16
REMARK    7  A    between atoms: CA_17  and  C_18
REMARK                            x       y       z     vdW  Elec       q    Type
REMARK                         _______ _______ _______ _____ _____    ______ ____
ROOT
ATOM      1  C   UNL     1       8.814  -2.517  23.530  0.00  0.00    +0.000 C 
ATOM      2  O   UNL     1       9.912  -3.203  23.893  0.00  0.00    +0.000 OA
ENDROOT
BRANCH   1   3
ATOM      3  C   UNL     1       7.753  -3.355  22.869  0.00  0.00    +0.000 C 
ATOM      4  C   UNL     1       6.992  -3.186  21.799  0.00  0.00    +0.000 C 
ATOM      5  C   UNL     1       5.692  -2.577  21.322  0.00  0.00    +0.000 C 
BRANCH   3   6
ATOM      6  C   UNL     1       7.798  -4.768  23.556  0.00  0.00    +0.000 C 
ATOM      7  CA  UNL     1       7.382  -4.982  24.836  0.00  0.00    +0.000 C 
ATOM      8  N   UNL     1       5.972  -5.333  25.310  0.00  0.00    +0.000 NA
ATOM      9  C   UNL     1       5.529  -5.567  23.929  0.00  0.00    +0.000 C 
ATOM     10  O   UNL     1       4.469  -4.975  23.700  0.00  0.00    +0.000 OA
ATOM     11  C   UNL     1       6.205  -6.429  22.949  0.00  0.00    +0.000 C 
ATOM     12  C   UNL     1       7.467  -5.739  22.254  0.00  0.00    +0.000 C 
BRANCH   7  13
ATOM     13  C   UNL     1       8.291  -5.267  26.058  0.00  0.00    +0.000 C 
ATOM     14  O   UNL     1       7.499  -5.875  27.039  0.00  0.00    +0.000 OA
ENDBRANCH   7  13
ENDBRANCH   3   6
ENDBRANCH   1   3
BRANCH   1  15
ATOM     15  C   UNL     1       8.378  -1.384  24.313  0.00  0.00    +0.000 C 
BRANCH  15  23
ATOM     16  N   UNL     1       8.498  -0.406  21.244  0.00  0.00    +0.000 NA
ATOM     17  C   UNL     1       9.147   0.010  22.359  0.00  0.00    +0.000 C 
ATOM     18  N   UNL     1      10.150   0.637  22.198  0.00  0.00    +0.000 NA
ATOM     19  C   UNL     1      10.415   1.979  22.465  0.00  0.00    +0.000 C 
ATOM     20  C   UNL     1       9.337   2.219  23.539  0.00  0.00    +0.000 C 
ATOM     21  C   UNL     1       9.087   1.036  24.414  0.00  0.00    +0.000 C 
ATOM     22  C   UNL     1      10.357   0.585  24.953  0.00  0.00    +0.000 C 
ATOM     23  C   UNL     1       8.278  -0.089  23.660  0.00  0.00    +0.000 C 
BRANCH  16  25
ATOM     24  C   UNL     1       7.551   0.087  19.057  0.00  0.00    +0.000 C 
ATOM     25  C   UNL     1       7.710   0.563  20.490  0.00  0.00    +0.000 C 
ENDBRANCH  16  25
ENDBRANCH  15  23
BRANCH  15  26
ATOM     26  C   UNL     1       7.175  -1.746  25.184  0.00  0.00    +0.000 C 
ATOM     27  C   UNL     1       5.993  -0.865  24.814  0.00  0.00    +0.000 C 
ENDBRANCH  15  26
ENDBRANCH   1  15
TORSDOF 7
ENDMDL
MODEL 2
REMARK VINA RESULT:      -6.7      1.369      2.602
REMARK  Name = 
REMARK  7 active torsions:
REMARK  status: ('A' for Active; 'I' for Inactive)
REMARK    1  A    between atoms: C_2  and  N_3
REMARK    2  A    between atoms: C_10  and  C_11
REMARK    3  A    between atoms: C_11  and  C_12
REMARK    4  A    between atoms: C_11  and  C_26
REMARK    5  A    between atoms: C_12  and  C_13
REMARK    6  A    between atoms: C_13  and  C_16
REMARK    7  A    between atoms: CA_17  and  C_18
REMARK                            x       y       z     vdW  Elec       q    Type
REMARK                         _______ _______ _______ _____ _____    ______ ____
ROOT
ATOM      1  C   UNL     1       8.927  -2.729  24.302  0.00  0.00    +0.000 C 
ATOM      2  O   UNL     1      10.054  -3.353  23.916  0.00  0.00    +0.000 OA
ENDROOT
BRANCH   1   3
ATOM      3  C   UNL     1       7.837  -3.656  24.769  0.00  0.00    +0.000 C 
ATOM      4  C   UNL     1       7.501  -4.147  25.951  0.00  0.00    +0.000 C 
ATOM      5  C   UNL     1       7.786  -5.273  26.920  0.00  0.00    +0.000 C 
BRANCH   3   6
ATOM      6  C   UNL     1       6.850  -3.841  23.559  0.00  0.00    +0.000 C 
ATOM      7  CA  UNL     1       6.570  -5.057  23.012  0.00  0.00    +0.000 C 
ATOM      8  N   UNL     1       5.472  -6.035  23.429  0.00  0.00    +0.000 NA
ATOM      9  C   UNL     1       4.859  -5.026  24.303  0.00  0.00    +0.000 C 
ATOM     10  O   UNL     1       4.628  -5.495  25.423  0.00  0.00    +0.000 OA
ATOM     11  C   UNL     1       4.503  -3.655  23.908  0.00  0.00    +0.000 C 
ATOM     12  C   UNL     1       5.746  -2.652  23.896  0.00  0.00    +0.000 C 
BRANCH   7  13
ATOM     13  C   UNL     1       7.055  -5.575  21.634  0.00  0.00    +0.000 C 
ATOM     14  O   UNL     1       6.029  -5.340  20.710  0.00  0.00    +0.000 OA
ENDBRANCH   7  13
ENDBRANCH   3   6
ENDBRANCH   1   3
BRANCH   1  15
ATOM     15  C   UNL     1       8.998  -1.422  24.913  0.00  0.00    +0.000 C 
BRANCH  15  23
ATOM     16  N   UNL     1       8.210  -0.987  21.819  0.00  0.00    +0.000 NA
ATOM     17  C   UNL     1       9.086  -0.351  22.634  0.00  0.00    +0.000 C 
ATOM     18  N   UNL     1       9.945   0.291  22.108  0.00  0.00    +0.000 NA
ATOM     19  C   UNL     1      10.139   1.671  22.083  0.00  0.00    +0.000 C 
ATOM     20  C   UNL     1       9.365   2.037  23.364  0.00  0.00    +0.000 C 
ATOM     21  C   UNL     1       9.471   1.012  24.444  0.00  0.00    +0.000 C 
ATOM     22  C   UNL     1      10.875   0.728  24.674  0.00  0.00    +0.000 C 
ATOM     23  C   UNL     1       8.604  -0.267  24.123  0.00  0.00    +0.000 C 
BRANCH  16  25
ATOM     24  C   UNL     1       7.543   0.067  19.729  0.00  0.00    +0.000 C 
ATOM     25  C   UNL     1       7.161  -0.205  21.172  0.00  0.00    +0.000 C 
ENDBRANCH  16  25
ENDBRANCH  15  23
BRANCH  15  26
ATOM     26  C   UNL     1       8.425  -1.443  26.330  0.00  0.00    +0.000 C 
ATOM     27  C   UNL     1       7.276  -0.453  26.430  0.00  0.00    +0.000 C 
ENDBRANCH  15  26
ENDBRANCH   1  15
TORSDOF 7
ENDMDL
MODEL 3
REMARK VINA RESULT:      -6.5      2.505      6.669
REMARK  Name = 
REMARK  7 active torsions:
REMARK  status: ('A' for Active; 'I' for Inactive)
REMARK    1  A    between atoms: C_2  and  N_3
REMARK    2  A    between atoms: C_10  and  C_11
REMARK    3  A    between atoms: C_11  and  C_12
REMARK    4  A    between atoms: C_11  and  C_26
REMARK    5  A    between atoms: C_12  and  C_13
REMARK    6  A    between atoms: C_13  and  C_16
REMARK    7  A    between atoms: CA_17  and  C_18
REMARK                            x       y       z     vdW  Elec       q    Type
REMARK                         _______ _______ _______ _____ _____    ______ ____
ROOT
ATOM      1  C   UNL     1       6.388  -3.112  22.642  0.00  0.00    +0.000 C 
ATOM      2  O   UNL     1       5.207  -3.265  22.018  0.00  0.00    +0.000 OA
ENDROOT
BRANCH   1   3
ATOM      3  C   UNL     1       6.804  -1.678  22.831  0.00  0.00    +0.000 C 
ATOM      4  C   UNL     1       6.787  -0.852  23.866  0.00  0.00    +0.000 C 
ATOM      5  C   UNL     1       5.915   0.128  24.620  0.00  0.00    +0.000 C 
BRANCH   3   6
ATOM      6  C   UNL     1       7.583  -1.257  21.533  0.00  0.00    +0.000 C 
ATOM      7  CA  UNL     1       7.227  -0.184  20.771  0.00  0.00    +0.000 C 
ATOM      8  N   UNL     1       7.686   1.265  20.932  0.00  0.00    +0.000 NA
ATOM      9  C   UNL     1       8.709   0.869  21.909  0.00  0.00    +0.000 C 
ATOM     10  O   UNL     1       8.660   1.586  22.914  0.00  0.00    +0.000 OA
ATOM     11  C   UNL     1       9.705  -0.195  21.719  0.00  0.00    +0.000 C 
ATOM     12  C   UNL     1       9.129  -1.663  21.972  0.00  0.00    +0.000 C 
BRANCH   7  13
ATOM     13  C   UNL     1       6.567  -0.235  19.370  0.00  0.00    +0.000 C 
ATOM     14  O   UNL     1       7.564   0.033  18.424  0.00  0.00    +0.000 OA
ENDBRANCH   7  13
ENDBRANCH   3   6
ENDBRANCH   1   3
BRANCH   1  15
ATOM     15  C   UNL     1       6.805  -4.065  23.644  0.00  0.00    +0.000 C 
BRANCH  15  23
ATOM     16  N   UNL     1       4.035  -3.014  24.912  0.00  0.00    +0.000 NA
ATOM     17  C   UNL     1       5.108  -3.636  25.457  0.00  0.00    +0.000 C 
ATOM     18  N   UNL     1       5.240  -3.549  26.641  0.00  0.00    +0.000 NA
ATOM     19  C   UNL     1       5.129  -4.530  27.625  0.00  0.00    +0.000 C 
ATOM     20  C   UNL     1       5.412  -5.767  26.753  0.00  0.00    +0.000 C 
ATOM     21  C   UNL     1       6.406  -5.522  25.666  0.00  0.00    +0.000 C 
ATOM     22  C   UNL     1       7.597  -4.939  26.254  0.00  0.00    +0.000 C 
ATOM     23  C   UNL     1       5.789  -4.667  24.491  0.00  0.00    +0.000 C 
BRANCH  16  25
ATOM     24  C   UNL     1       2.568  -4.743  24.029  0.00  0.00    +0.000 C 
ATOM     25  C   UNL     1       2.721  -3.633  25.053  0.00  0.00    +0.000 C 
ENDBRANCH  16  25
ENDBRANCH  15  23
BRANCH  15  26
ATOM     26  C   UNL     1       7.819  -5.057  23.074  0.00  0.00    +0.000 C 
ATOM     27  C   UNL     1       7.137  -5.954  22.054  0.00  0.00    +0.000 C 
ENDBRANCH  15  26
ENDBRANCH   1  15
TORSDOF 7
ENDMDL
MODEL 4
REMARK VINA RESULT:      -6.4      2.076      4.009
REMARK  Name = 
REMARK  7 active torsions:
REMARK  status: ('A' for Active; 'I' for Inactive)
REMARK    1  A    between atoms: C_2  and  N_3
REMARK    2  A    between atoms: C_10  and  C_11
REMARK    3  A    between atoms: C_11  and  C_12
REMARK    4  A    between atoms: C_11  and  C_26
REMARK    5  A    between atoms: C_12  and  C_13
REMARK    6  A    between atoms: C_13  and  C_16
REMARK    7  A    between atoms: CA_17  and  C_18
REMARK                            x       y       z     vdW  Elec       q    Type
REMARK                         _______ _______ _______ _____ _____    ______ ____
ROOT
ATOM      1  C   UNL     1       6.669  -1.892  23.372  0.00  0.00    +0.000 C 
ATOM      2  O   UNL     1       5.676  -2.577  22.779  0.00  0.00    +0.000 OA
ENDROOT
BRANCH   1   3
ATOM      3  C   UNL     1       7.124  -2.475  24.684  0.00  0.00    +0.000 C 
ATOM      4  C   UNL     1       7.476  -1.945  25.844  0.00  0.00    +0.000 C 
ATOM      5  C   UNL     1       8.646  -1.358  26.603  0.00  0.00    +0.000 C 
BRANCH   3   6
ATOM      6  C   UNL     1       6.896  -4.028  24.593  0.00  0.00    +0.000 C 
ATOM      7  CA  UNL     1       7.744  -4.862  23.928  0.00  0.00    +0.000 C 
ATOM      8  N   UNL     1       8.982  -5.565  24.483  0.00  0.00    +0.000 NA
ATOM      9  C   UNL     1       8.628  -5.182  25.856  0.00  0.00    +0.000 C 
ATOM     10  O   UNL     1       9.598  -4.688  26.441  0.00  0.00    +0.000 OA
ATOM     11  C   UNL     1       7.320  -5.398  26.492  0.00  0.00    +0.000 C 
ATOM     12  C   UNL     1       6.222  -4.313  26.080  0.00  0.00    +0.000 C 
BRANCH   7  13
ATOM     13  C   UNL     1       7.462  -5.569  22.578  0.00  0.00    +0.000 C 
ATOM     14  O   UNL     1       6.108  -5.926  22.564  0.00  0.00    +0.000 OA
ENDBRANCH   7  13
ENDBRANCH   3   6
ENDBRANCH   1   3
BRANCH   1  15
ATOM     15  C   UNL     1       7.655  -1.208  22.569  0.00  0.00    +0.000 C 
BRANCH  15  23
ATOM     16  N   UNL     1       6.346   1.018  24.496  0.00  0.00    +0.000 NA
ATOM     17  C   UNL     1       6.756   1.059  23.205  0.00  0.00    +0.000 C 
ATOM     18  N   UNL     1       6.324   1.943  22.528  0.00  0.00    +0.000 NA
ATOM     19  C   UNL     1       6.977   3.042  21.974  0.00  0.00    +0.000 C 
ATOM     20  C   UNL     1       8.408   2.473  21.947  0.00  0.00    +0.000 C 
ATOM     21  C   UNL     1       8.467   1.007  21.672  0.00  0.00    +0.000 C 
ATOM     22  C   UNL     1       7.709   0.735  20.464  0.00  0.00    +0.000 C 
ATOM     23  C   UNL     1       8.007   0.158  22.920  0.00  0.00    +0.000 C 
BRANCH  16  25
ATOM     24  C   UNL     1       6.440   1.642  26.847  0.00  0.00    +0.000 C 
ATOM     25  C   UNL     1       6.929   1.961  25.446  0.00  0.00    +0.000 C 
ENDBRANCH  16  25
ENDBRANCH  15  23
BRANCH  15  26
ATOM     26  C   UNL     1       8.852  -2.112  22.275  0.00  0.00    +0.000 C 
ATOM     27  C   UNL     1      10.056  -1.642  23.075  0.00  0.00    +0.000 C 
ENDBRANCH  15  26
ENDBRANCH   1  15
TORSDOF 7
ENDMDL
MODEL 5
REMARK VINA RESULT:      -6.4      1.976      3.054
REMARK  Name = 
REMARK  7 active torsions:
REMARK  status: ('A' for Active; 'I' for Inactive)
REMARK    1  A    between atoms: C_2  and  N_3
REMARK    2  A    between atoms: C_10  and  C_11
REMARK    3  A    between atoms: C_11  and  C_12
REMARK    4  A    between atoms: C_11  and  C_26
REMARK    5  A    between atoms: C_12  and  C_13
REMARK    6  A    between atoms: C_13  and  C_16
REMARK    7  A    between atoms: CA_17  and  C_18
REMARK                            x       y       z     vdW  Elec       q    Type
REMARK                         _______ _______ _______ _____ _____    ______ ____
ROOT
ATOM      1  C   UNL     1       7.631  -2.602  23.966  0.00  0.00    +0.000 C 
ATOM      2  O   UNL     1       7.986  -3.417  22.957  0.00  0.00    +0.000 OA
ENDROOT
BRANCH   1   3
ATOM      3  C   UNL     1       6.557  -3.159  24.861  0.00  0.00    +0.000 C 
ATOM      4  C   UNL     1       5.431  -2.665  25.352  0.00  0.00    +0.000 C 
ATOM      5  C   UNL     1       4.860  -1.855  26.495  0.00  0.00    +0.000 C 
BRANCH   3   6
ATOM      6  C   UNL     1       6.839  -4.699  25.003  0.00  0.00    +0.000 C 
ATOM      7  CA  UNL     1       7.899  -5.196  25.701  0.00  0.00    +0.000 C 
ATOM      8  N   UNL     1       7.956  -5.541  27.188  0.00  0.00    +0.000 NA
ATOM      9  C   UNL     1       6.501  -5.381  27.316  0.00  0.00    +0.000 C 
ATOM     10  O   UNL     1       6.219  -4.667  28.284  0.00  0.00    +0.000 OA
ATOM     11  C   UNL     1       5.493  -6.019  26.456  0.00  0.00    +0.000 C 
ATOM     12  C   UNL     1       5.287  -5.279  25.056  0.00  0.00    +0.000 C 
BRANCH   7  13
ATOM     13  C   UNL     1       9.166  -5.854  25.095  0.00  0.00    +0.000 C 
ATOM     14  O   UNL     1      10.169  -4.879  25.057  0.00  0.00    +0.000 OA
ENDBRANCH   7  13
ENDBRANCH   3   6
ENDBRANCH   1   3
BRANCH   1  15
ATOM     15  C   UNL     1       8.610  -1.725  24.564  0.00  0.00    +0.000 C 
BRANCH  15  23
ATOM     16  N   UNL     1       6.433   0.364  23.430  0.00  0.00    +0.000 NA
ATOM     17  C   UNL     1       7.645  -0.030  22.968  0.00  0.00    +0.000 C 
ATOM     18  N   UNL     1       7.875   0.171  21.813  0.00  0.00    +0.000 NA
ATOM     19  C   UNL     1       8.783   1.048  21.225  0.00  0.00    +0.000 C 
ATOM     20  C   UNL     1       9.769   1.186  22.400  0.00  0.00    +0.000 C 
ATOM     21  C   UNL     1       9.932  -0.065  23.197  0.00  0.00    +0.000 C 
ATOM     22  C   UNL     1      10.255  -1.151  22.291  0.00  0.00    +0.000 C 
ATOM     23  C   UNL     1       8.674  -0.346  24.108  0.00  0.00    +0.000 C 
BRANCH  16  25
ATOM     24  C   UNL     1       5.265   1.947  24.862  0.00  0.00    +0.000 C 
ATOM     25  C   UNL     1       6.207   1.783  23.684  0.00  0.00    +0.000 C 
ENDBRANCH  16  25
ENDBRANCH  15  23
BRANCH  15  26
ATOM     26  C   UNL     1       8.642  -1.889  26.084  0.00  0.00    +0.000 C 
ATOM     27  C   UNL     1       8.439  -0.537  26.748  0.00  0.00    +0.000 C 
ENDBRANCH  15  26
ENDBRANCH   1  15
TORSDOF 7
ENDMDL
MODEL 6
REMARK VINA RESULT:      -6.4      1.691      3.217
REMARK  Name = 
REMARK  7 active torsions:
REMARK  status: ('A' for Active; 'I' for Inactive)
REMARK    1  A    between atoms: C_2  and  N_3
REMARK    2  A    between atoms: C_10  and  C_11
REMARK    3  A    between atoms: C_11  and  C_12
REMARK    4  A    between atoms: C_11  and  C_26
REMARK    5  A    between atoms: C_12  and  C_13
REMARK    6  A    between atoms: C_13  and  C_16
REMARK    7  A    between atoms: CA_17  and  C_18
REMARK                            x       y       z     vdW  Elec       q    Type
REMARK                         _______ _______ _______ _____ _____    ______ ____
ROOT
ATOM      1  C   UNL     1       7.851  -1.677  22.065  0.00  0.00    +0.000 C 
ATOM      2  O   UNL     1       9.167  -1.935  22.154  0.00  0.00    +0.000 OA
ENDROOT
BRANCH   1   3
ATOM      3  C   UNL     1       7.013  -2.379  23.100  0.00  0.00    +0.000 C 
ATOM      4  C   UNL     1       5.940  -2.032  23.793  0.00  0.00    +0.000 C 
ATOM      5  C   UNL     1       5.485  -1.323  25.049  0.00  0.00    +0.000 C 
BRANCH   3   6
ATOM      6  C   UNL     1       7.484  -3.878  23.124  0.00  0.00    +0.000 C 
ATOM      7  CA  UNL     1       7.647  -4.584  24.279  0.00  0.00    +0.000 C 
ATOM      8  N   UNL     1       6.596  -5.408  25.022  0.00  0.00    +0.000 NA
ATOM      9  C   UNL     1       5.660  -5.294  23.895  0.00  0.00    +0.000 C 
ATOM     10  O   UNL     1       4.541  -4.945  24.284  0.00  0.00    +0.000 OA
ATOM     11  C   UNL     1       5.972  -5.603  22.491  0.00  0.00    +0.000 C 
ATOM     12  C   UNL     1       6.762  -4.436  21.741  0.00  0.00    +0.000 C 
BRANCH   7  13
ATOM     13  C   UNL     1       8.997  -5.006  24.912  0.00  0.00    +0.000 C 
ATOM     14  O   UNL     1       9.960  -4.073  24.511  0.00  0.00    +0.000 OA
ENDBRANCH   7  13
ENDBRANCH   3   6
ENDBRANCH   1   3
BRANCH   1  15
ATOM     15  C   UNL     1       7.397  -0.386  21.602  0.00  0.00    +0.000 C 
BRANCH  15  23
ATOM     16  N   UNL     1       8.557   0.534  24.465  0.00  0.00    +0.000 NA
ATOM     17  C   UNL     1       7.747   1.150  23.569  0.00  0.00    +0.000 C 
ATOM     18  N   UNL     1       7.087   2.060  23.973  0.00  0.00    +0.000 NA
ATOM     19  C   UNL     1       7.173   3.420  23.684  0.00  0.00    +0.000 C 
ATOM     20  C   UNL     1       7.873   3.324  22.316  0.00  0.00    +0.000 C 
ATOM     21  C   UNL     1       7.462   2.135  21.512  0.00  0.00    +0.000 C 
ATOM     22  C   UNL     1       6.013   2.116  21.427  0.00  0.00    +0.000 C 
ATOM     23  C   UNL     1       8.086   0.801  22.078  0.00  0.00    +0.000 C 
BRANCH  16  25
ATOM     24  C   UNL     1      10.978   0.472  24.232  0.00  0.00    +0.000 C 
ATOM     25  C   UNL     1       9.798   1.194  24.856  0.00  0.00    +0.000 C 
ENDBRANCH  16  25
ENDBRANCH  15  23
BRANCH  15  26
ATOM     26  C   UNL     1       7.133  -0.401  20.096  0.00  0.00    +0.000 C 
ATOM     27  C   UNL     1       5.888  -1.222  19.804  0.00  0.00    +0.000 C 
ENDBRANCH  15  26
ENDBRANCH   1  15
TORSDOF 7
ENDMDL
MODEL 7
REMARK VINA RESULT:      -6.3      2.283      6.669
REMARK  Name = 
REMARK  7 active torsions:
REMARK  status: ('A' for Active; 'I' for Inactive)
REMARK    1  A    between atoms: C_2  and  N_3
REMARK    2  A    between atoms: C_10  and  C_11
REMARK    3  A    between atoms: C_11  and  C_12
REMARK    4  A    between atoms: C_11  and  C_26
REMARK    5  A    between atoms: C_12  and  C_13
REMARK    6  A    between atoms: C_13  and  C_16
REMARK    7  A    between atoms: CA_17  and  C_18
REMARK                            x       y       z     vdW  Elec       q    Type
REMARK                         _______ _______ _______ _____ _____    ______ ____
ROOT
ATOM      1  C   UNL     1       8.286  -1.833  23.165  0.00  0.00    +0.000 C 
ATOM      2  O   UNL     1       8.875  -1.949  21.962  0.00  0.00    +0.000 OA
ENDROOT
BRANCH   1   3
ATOM      3  C   UNL     1       8.941  -0.833  24.079  0.00  0.00    +0.000 C 
ATOM      4  C   UNL     1       9.319  -0.867  25.347  0.00  0.00    +0.000 C 
ATOM      5  C   UNL     1       8.830  -0.657  26.763  0.00  0.00    +0.000 C 
BRANCH   3   6
ATOM      6  C   UNL     1       9.401   0.371  23.179  0.00  0.00    +0.000 C 
ATOM      7  CA  UNL     1       8.524   1.235  22.594  0.00  0.00    +0.000 C 
ATOM      8  N   UNL     1       7.955   2.525  23.185  0.00  0.00    +0.000 NA
ATOM      9  C   UNL     1       8.903   2.470  24.306  0.00  0.00    +0.000 C 
ATOM     10  O   UNL     1       8.322   2.634  25.384  0.00  0.00    +0.000 OA
ATOM     11  C   UNL     1      10.359   2.303  24.186  0.00  0.00    +0.000 C 
ATOM     12  C   UNL     1      10.810   0.789  23.945  0.00  0.00    +0.000 C 
BRANCH   7  13
ATOM     13  C   UNL     1       8.177   1.306  21.085  0.00  0.00    +0.000 C 
ATOM     14  O   UNL     1       6.960   0.639  20.901  0.00  0.00    +0.000 OA
ENDBRANCH   7  13
ENDBRANCH   3   6
ENDBRANCH   1   3
BRANCH   1  15
ATOM     15  C   UNL     1       6.859  -2.018  23.291  0.00  0.00    +0.000 C 
BRANCH  15  23
ATOM     16  N   UNL     1       8.208  -4.586  24.695  0.00  0.00    +0.000 NA
ATOM     17  C   UNL     1       7.443  -4.451  23.585  0.00  0.00    +0.000 C 
ATOM     18  N   UNL     1       7.480  -5.344  22.792  0.00  0.00    +0.000 NA
ATOM     19  C   UNL     1       6.494  -6.261  22.436  0.00  0.00    +0.000 C 
ATOM     20  C   UNL     1       5.256  -5.443  22.848  0.00  0.00    +0.000 C 
ATOM     21  C   UNL     1       5.407  -3.974  22.632  0.00  0.00    +0.000 C 
ATOM     22  C   UNL     1       5.821  -3.751  21.260  0.00  0.00    +0.000 C 
ATOM     23  C   UNL     1       6.364  -3.321  23.704  0.00  0.00    +0.000 C 
BRANCH  16  25
ATOM     24  C   UNL     1       7.316  -4.661  26.958  0.00  0.00    +0.000 C 
ATOM     25  C   UNL     1       7.753  -5.479  25.756  0.00  0.00    +0.000 C 
ENDBRANCH  16  25
ENDBRANCH  15  23
BRANCH  15  26
ATOM     26  C   UNL     1       6.212  -0.838  24.017  0.00  0.00    +0.000 C 
ATOM     27  C   UNL     1       5.449  -1.343  25.231  0.00  0.00    +0.000 C 
ENDBRANCH  15  26
ENDBRANCH   1  15
TORSDOF 7
ENDMDL
MODEL 8
REMARK VINA RESULT:      -6.2      2.189      3.995
REMARK  Name = 
REMARK  7 active torsions:
REMARK  status: ('A' for Active; 'I' for Inactive)
REMARK    1  A    between atoms: C_2  and  N_3
REMARK    2  A    between atoms: C_10  and  C_11
REMARK    3  A    between atoms: C_11  and  C_12
REMARK    4  A    between atoms: C_11  and  C_26
REMARK    5  A    between atoms: C_12  and  C_13
REMARK    6  A    between atoms: C_13  and  C_16
REMARK    7  A    between atoms: CA_17  and  C_18
REMARK                            x       y       z     vdW  Elec       q    Type
REMARK                         _______ _______ _______ _____ _____    ______ ____
ROOT
ATOM      1  C   UNL     1       6.700  -0.507  23.978  0.00  0.00    +0.000 C 
ATOM      2  O   UNL     1       5.516  -0.517  24.614  0.00  0.00    +0.000 OA
ENDROOT
BRANCH   1   3
ATOM      3  C   UNL     1       7.554  -1.718  24.242  0.00  0.00    +0.000 C 
ATOM      4  C   UNL     1       8.861  -1.915  24.315  0.00  0.00    +0.000 C 
ATOM      5  C   UNL     1      10.090  -2.208  23.484  0.00  0.00    +0.000 C 
BRANCH   3   6
ATOM      6  C   UNL     1       6.584  -2.863  24.712  0.00  0.00    +0.000 C 
ATOM      7  CA  UNL     1       6.094  -3.811  23.864  0.00  0.00    +0.000 C 
ATOM      8  N   UNL     1       6.726  -5.156  23.507  0.00  0.00    +0.000 NA
ATOM      9  C   UNL     1       7.726  -5.008  24.573  0.00  0.00    +0.000 C 
ATOM     10  O   UNL     1       8.863  -5.237  24.147  0.00  0.00    +0.000 OA
ATOM     11  C   UNL     1       7.435  -4.689  25.979  0.00  0.00    +0.000 C 
ATOM     12  C   UNL     1       7.168  -3.135  26.239  0.00  0.00    +0.000 C 
BRANCH   7  13
ATOM     13  C   UNL     1       4.637  -3.911  23.346  0.00  0.00    +0.000 C 
ATOM     14  O   UNL     1       4.631  -4.812  22.275  0.00  0.00    +0.000 OA
ENDBRANCH   7  13
ENDBRANCH   3   6
ENDBRANCH   1   3
BRANCH   1  15
ATOM     15  C   UNL     1       6.820   0.123  22.684  0.00  0.00    +0.000 C 
BRANCH  15  23
ATOM     16  N   UNL     1       9.022   1.522  24.576  0.00  0.00    +0.000 NA
ATOM     17  C   UNL     1       7.919   2.003  23.953  0.00  0.00    +0.000 C 
ATOM     18  N   UNL     1       7.471   3.031  24.364  0.00  0.00    +0.000 NA
ATOM     19  C   UNL     1       7.427   4.287  23.763  0.00  0.00    +0.000 C 
ATOM     20  C   UNL     1       7.523   3.845  22.291  0.00  0.00    +0.000 C 
ATOM     21  C   UNL     1       6.831   2.554  22.005  0.00  0.00    +0.000 C 
ATOM     22  C   UNL     1       5.469   2.643  22.498  0.00  0.00    +0.000 C 
ATOM     23  C   UNL     1       7.636   1.320  22.570  0.00  0.00    +0.000 C 
BRANCH  16  25
ATOM     24  C   UNL     1      11.393   1.074  24.263  0.00  0.00    +0.000 C 
ATOM     25  C   UNL     1      10.313   2.139  24.291  0.00  0.00    +0.000 C 
ENDBRANCH  16  25
ENDBRANCH  15  23
BRANCH  15  26
ATOM     26  C   UNL     1       7.062  -0.912  21.585  0.00  0.00    +0.000 C 
ATOM     27  C   UNL     1       8.222  -0.467  20.711  0.00  0.00    +0.000 C 
ENDBRANCH  15  26
ENDBRANCH   1  15
TORSDOF 7
ENDMDL
MODEL 9
REMARK VINA RESULT:      -6.2      1.641      2.879
REMARK  Name = 
REMARK  7 active torsions:
REMARK  status: ('A' for Active; 'I' for Inactive)
REMARK    1  A    between atoms: C_2  and  N_3
REMARK    2  A    between atoms: C_10  and  C_11
REMARK    3  A    between atoms: C_11  and  C_12
REMARK    4  A    between atoms: C_11  and  C_26
REMARK    5  A    between atoms: C_12  and  C_13
REMARK    6  A    between atoms: C_13  and  C_16
REMARK    7  A    between atoms: CA_17  and  C_18
REMARK                            x       y       z     vdW  Elec       q    Type
REMARK                         _______ _______ _______ _____ _____    ______ ____
ROOT
ATOM      1  C   UNL     1       6.716  -1.708  23.580  0.00  0.00    +0.000 C 
ATOM      2  O   UNL     1       6.015  -2.051  22.485  0.00  0.00    +0.000 OA
ENDROOT
BRANCH   1   3
ATOM      3  C   UNL     1       7.893  -2.603  23.864  0.00  0.00    +0.000 C 
ATOM      4  C   UNL     1       9.175  -2.375  24.103  0.00  0.00    +0.000 C 
ATOM      5  C   UNL     1      10.511  -2.153  23.430  0.00  0.00    +0.000 C 
BRANCH   3   6
ATOM      6  C   UNL     1       7.319  -4.046  24.102  0.00  0.00    +0.000 C 
ATOM      7  CA  UNL     1       7.755  -5.139  23.413  0.00  0.00    +0.000 C 
ATOM      8  N   UNL     1       8.915  -6.065  23.776  0.00  0.00    +0.000 NA
ATOM      9  C   UNL     1       9.034  -5.452  25.105  0.00  0.00    +0.000 C 
ATOM     10  O   UNL     1      10.208  -5.157  25.352  0.00  0.00    +0.000 OA
ATOM     11  C   UNL     1       7.931  -5.256  26.058  0.00  0.00    +0.000 C 
ATOM     12  C   UNL     1       7.024  -3.982  25.731  0.00  0.00    +0.000 C 
BRANCH   7  13
ATOM     13  C   UNL     1       6.974  -5.898  22.311  0.00  0.00    +0.000 C 
ATOM     14  O   UNL     1       5.746  -6.288  22.857  0.00  0.00    +0.000 OA
ENDBRANCH   7  13
ENDBRANCH   3   6
ENDBRANCH   1   3
BRANCH   1  15
ATOM     15  C   UNL     1       6.824  -0.320  23.964  0.00  0.00    +0.000 C 
BRANCH  15  23
ATOM     16  N   UNL     1       8.011  -0.480  20.972  0.00  0.00    +0.000 NA
ATOM     17  C   UNL     1       8.327   0.297  22.037  0.00  0.00    +0.000 C 
ATOM     18  N   UNL     1       9.400   0.822  22.024  0.00  0.00    +0.000 NA
ATOM     19  C   UNL     1       9.729   2.171  21.908  0.00  0.00    +0.000 C 
ATOM     20  C   UNL     1       8.409   2.778  22.419  0.00  0.00    +0.000 C 
ATOM     21  C   UNL     1       7.757   1.978  23.496  0.00  0.00    +0.000 C 
ATOM     22  C   UNL     1       8.731   1.737  24.545  0.00  0.00    +0.000 C 
ATOM     23  C   UNL     1       7.091   0.665  22.929  0.00  0.00    +0.000 C 
BRANCH  16  25
ATOM     24  C   UNL     1       6.259  -0.339  19.289  0.00  0.00    +0.000 C 
ATOM     25  C   UNL     1       7.622   0.169  19.724  0.00  0.00    +0.000 C 
ENDBRANCH  16  25
ENDBRANCH  15  23
BRANCH  15  26
ATOM     26  C   UNL     1       5.712   0.072  24.937  0.00  0.00    +0.000 C 
ATOM     27  C   UNL     1       6.075  -0.386  26.339  0.00  0.00    +0.000 C 
ENDBRANCH  15  26
ENDBRANCH   1  15
TORSDOF 7
ENDMDL
