MODEL 1
REMARK VINA RESULT:      -6.3      0.000      0.000
REMARK  Name = 
REMARK  7 active torsions:
REMARK  status: ('A' for Active; 'I' for Inactive)
REMARK    1  A    between atoms: C_2  and  C_3
REMARK    2  A    between atoms: C_3  and  C_4
REMARK    3  A    between atoms: C_3  and  C_19
REMARK    4  A    between atoms: C_4  and  C_5
REMARK    5  A    between atoms: C_5  and  C_9
REMARK    6  A    between atoms: CA_10  and  C_11
REMARK    7  A    between atoms: C_23  and  C_24
REMARK                            x       y       z     vdW  Elec       q    Type
REMARK                         _______ _______ _______ _____ _____    ______ ____
ROOT
ATOM      1  C   UNL     1       7.700  -3.026  24.208  0.00  0.00    +0.000 C 
ATOM      2  C   UNL     1       7.178  -3.336  23.064  0.00  0.00    +0.000 C 
ATOM      3 CL   UNL     1       7.473  -4.866  22.126  0.00  0.00    +0.000 Cl
ATOM      4  C   UNL     1       6.299  -2.470  22.053  0.00  0.00    +0.000 C 
ENDROOT
BRANCH   1   5
ATOM      5  C   UNL     1       7.067  -3.366  25.632  0.00  0.00    +0.000 C 
ATOM      6  CA  UNL     1       5.781  -3.753  25.702  0.00  0.00    +0.000 C 
ATOM      7  N   UNL     1       5.227  -5.164  25.762  0.00  0.00    +0.000 NA
ATOM      8  C   UNL     1       6.375  -5.577  26.590  0.00  0.00    +0.000 C 
ATOM      9  O   UNL     1       5.987  -6.534  27.317  0.00  0.00    +0.000 OA
ATOM     10  C   UNL     1       7.796  -5.472  26.216  0.00  0.00    +0.000 C 
ATOM     11  C   UNL     1       8.360  -3.976  26.457  0.00  0.00    +0.000 C 
BRANCH   6  12
ATOM     12  C   UNL     1       4.620  -2.877  26.343  0.00  0.00    +0.000 C 
ATOM     13  O   UNL     1       4.397  -1.846  25.407  0.00  0.00    +0.000 OA
ENDBRANCH   6  12
ENDBRANCH   1   5
BRANCH   1  14
ATOM     14  C   UNL     1       9.149  -2.426  24.637  0.00  0.00    +0.000 C 
ATOM     15  O   UNL     1       9.917  -2.851  23.498  0.00  0.00    +0.000 OA
BRANCH  14  16
ATOM     16  C   UNL     1       9.019  -0.930  24.520  0.00  0.00    +0.000 C 
BRANCH  16  17
ATOM     17  C   UNL     1      10.069  -0.401  23.574  0.00  0.00    +0.000 C 
ATOM     18  N   UNL     1      10.909   0.602  24.218  0.00  0.00    +0.000 NA
ATOM     19  C   UNL     1      10.682   1.817  23.810  0.00  0.00    +0.000 C 
ATOM     20  C   UNL     1       9.891   1.743  22.498  0.00  0.00    +0.000 C 
ATOM     21  C   UNL     1       9.344   0.382  22.446  0.00  0.00    +0.000 C 
BRANCH  21  22
ATOM     22  C   UNL     1       9.170  -0.332  21.142  0.00  0.00    +0.000 C 
ATOM     23  O   UNL     1       8.254   0.388  20.345  0.00  0.00    +0.000 OA
ENDBRANCH  21  22
ENDBRANCH  16  17
BRANCH  16  25
ATOM     24  C   UNL     1       7.775   0.339  26.261  0.00  0.00    +0.000 C 
ATOM     25  C   UNL     1       9.120  -0.234  25.852  0.00  0.00    +0.000 C 
ENDBRANCH  16  25
ENDBRANCH  14  16
ENDBRANCH   1  14
TORSDOF 7
ENDMDL
MODEL 2
REMARK VINA RESULT:      -6.0      2.416      3.580
REMARK  Name = 
REMARK  7 active torsions:
REMARK  status: ('A' for Active; 'I' for Inactive)
REMARK    1  A    between atoms: C_2  and  C_3
REMARK    2  A    between atoms: C_3  and  C_4
REMARK    3  A    between atoms: C_3  and  C_19
REMARK    4  A    between atoms: C_4  and  C_5
REMARK    5  A    between atoms: C_5  and  C_9
REMARK    6  A    between atoms: CA_10  and  C_11
REMARK    7  A    between atoms: C_23  and  C_24
REMARK                            x       y       z     vdW  Elec       q    Type
REMARK                         _______ _______ _______ _____ _____    ______ ____
ROOT
ATOM      1  C   UNL     1       7.804  -1.843  24.405  0.00  0.00    +0.000 C 
ATOM      2  C   UNL     1       9.055  -1.526  24.294  0.00  0.00    +0.000 C 
ATOM      3 CL   UNL     1       9.828   0.020  24.859  0.00  0.00    +0.000 Cl
ATOM      4  C   UNL     1      10.245  -2.248  23.514  0.00  0.00    +0.000 C 
ENDROOT
BRANCH   1   5
ATOM      5  C   UNL     1       7.155  -2.616  25.640  0.00  0.00    +0.000 C 
ATOM      6  CA  UNL     1       5.895  -3.075  25.538  0.00  0.00    +0.000 C 
ATOM      7  N   UNL     1       5.431  -4.470  25.162  0.00  0.00    +0.000 NA
ATOM      8  C   UNL     1       6.579  -5.044  25.887  0.00  0.00    +0.000 C 
ATOM      9  O   UNL     1       6.233  -6.190  26.288  0.00  0.00    +0.000 OA
ATOM     10  C   UNL     1       8.001  -4.759  25.623  0.00  0.00    +0.000 C 
ATOM     11  C   UNL     1       8.461  -3.370  26.310  0.00  0.00    +0.000 C 
BRANCH   6  12
ATOM     12  C   UNL     1       4.664  -2.486  26.351  0.00  0.00    +0.000 C 
ATOM     13  O   UNL     1       3.593  -2.501  25.433  0.00  0.00    +0.000 OA
ENDBRANCH   6  12
ENDBRANCH   1   5
BRANCH   1  14
ATOM     14  C   UNL     1       6.482  -1.447  23.546  0.00  0.00    +0.000 C 
ATOM     15  O   UNL     1       6.515  -0.019  23.724  0.00  0.00    +0.000 OA
BRANCH  14  16
ATOM     16  C   UNL     1       6.845  -1.696  22.106  0.00  0.00    +0.000 C 
BRANCH  16  17
ATOM     17  C   UNL     1       6.810  -0.397  21.339  0.00  0.00    +0.000 C 
ATOM     18  N   UNL     1       5.889  -0.469  20.211  0.00  0.00    +0.000 NA
ATOM     19  C   UNL     1       6.481  -0.527  19.053  0.00  0.00    +0.000 C 
ATOM     20  C   UNL     1       7.940  -0.093  19.238  0.00  0.00    +0.000 C 
ATOM     21  C   UNL     1       8.201  -0.194  20.679  0.00  0.00    +0.000 C 
BRANCH  21  22
ATOM     22  C   UNL     1       9.135   0.753  21.366  0.00  0.00    +0.000 C 
ATOM     23  O   UNL     1       8.437   1.943  21.668  0.00  0.00    +0.000 OA
ENDBRANCH  21  22
ENDBRANCH  16  17
BRANCH  16  25
ATOM     24  C   UNL     1       6.416  -4.121  21.757  0.00  0.00    +0.000 C 
ATOM     25  C   UNL     1       5.945  -2.711  21.450  0.00  0.00    +0.000 C 
ENDBRANCH  16  25
ENDBRANCH  14  16
ENDBRANCH   1  14
TORSDOF 7
ENDMDL
MODEL 3
REMARK VINA RESULT:      -5.9      2.147      6.718
REMARK  Name = 
REMARK  7 active torsions:
REMARK  status: ('A' for Active; 'I' for Inactive)
REMARK    1  A    between atoms: C_2  and  C_3
REMARK    2  A    between atoms: C_3  and  C_4
REMARK    3  A    between atoms: C_3  and  C_19
REMARK    4  A    between atoms: C_4  and  C_5
REMARK    5  A    between atoms: C_5  and  C_9
REMARK    6  A    between atoms: CA_10  and  C_11
REMARK    7  A    between atoms: C_23  and  C_24
REMARK                            x       y       z     vdW  Elec       q    Type
REMARK                         _______ _______ _______ _____ _____    ______ ____
ROOT
ATOM      1  C   UNL     1       8.097  -1.144  24.136  0.00  0.00    +0.000 C 
ATOM      2  C   UNL     1       7.805  -0.810  25.353  0.00  0.00    +0.000 C 
ATOM      3 CL   UNL     1       8.796  -1.170  26.835  0.00  0.00    +0.000 Cl
ATOM      4  C   UNL     1       6.478  -0.171  25.965  0.00  0.00    +0.000 C 
ENDROOT
BRANCH   1   5
ATOM      5  C   UNL     1       8.940  -0.256  23.114  0.00  0.00    +0.000 C 
ATOM      6  CA  UNL     1       8.364   0.822  22.552  0.00  0.00    +0.000 C 
ATOM      7  N   UNL     1       8.456   2.271  22.991  0.00  0.00    +0.000 NA
ATOM      8  C   UNL     1       9.861   2.060  23.385  0.00  0.00    +0.000 C 
ATOM      9  O   UNL     1      10.454   3.168  23.265  0.00  0.00    +0.000 OA
ATOM     10  C   UNL     1      10.348   1.071  24.363  0.00  0.00    +0.000 C 
ATOM     11  C   UNL     1      10.475  -0.399  23.703  0.00  0.00    +0.000 C 
BRANCH   6  12
ATOM     12  C   UNL     1       7.984   0.929  21.013  0.00  0.00    +0.000 C 
ATOM     13  O   UNL     1       8.565  -0.213  20.424  0.00  0.00    +0.000 OA
ENDBRANCH   6  12
ENDBRANCH   1   5
BRANCH   1  14
ATOM     14  C   UNL     1       7.940  -2.530  23.301  0.00  0.00    +0.000 C 
ATOM     15  O   UNL     1       9.026  -3.271  23.886  0.00  0.00    +0.000 OA
BRANCH  14  16
ATOM     16  C   UNL     1       6.675  -3.169  23.811  0.00  0.00    +0.000 C 
BRANCH  16  17
ATOM     17  C   UNL     1       6.970  -4.569  24.292  0.00  0.00    +0.000 C 
ATOM     18  N   UNL     1       6.168  -5.557  23.581  0.00  0.00    +0.000 NA
ATOM     19  C   UNL     1       5.215  -6.075  24.300  0.00  0.00    +0.000 C 
ATOM     20  C   UNL     1       5.508  -5.772  25.774  0.00  0.00    +0.000 C 
ATOM     21  C   UNL     1       6.488  -4.679  25.764  0.00  0.00    +0.000 C 
BRANCH  21  22
ATOM     22  C   UNL     1       7.541  -4.574  26.823  0.00  0.00    +0.000 C 
ATOM     23  O   UNL     1       7.514  -5.744  27.612  0.00  0.00    +0.000 OA
ENDBRANCH  21  22
ENDBRANCH  16  17
BRANCH  16  25
ATOM     24  C   UNL     1       6.049  -2.541  21.487  0.00  0.00    +0.000 C 
ATOM     25  C   UNL     1       5.582  -3.195  22.775  0.00  0.00    +0.000 C 
ENDBRANCH  16  25
ENDBRANCH  14  16
ENDBRANCH   1  14
TORSDOF 7
ENDMDL
MODEL 4
REMARK VINA RESULT:      -5.8      2.658      6.432
REMARK  Name = 
REMARK  7 active torsions:
REMARK  status: ('A' for Active; 'I' for Inactive)
REMARK    1  A    between atoms: C_2  and  C_3
REMARK    2  A    between atoms: C_3  and  C_4
REMARK    3  A    between atoms: C_3  and  C_19
REMARK    4  A    between atoms: C_4  and  C_5
REMARK    5  A    between atoms: C_5  and  C_9
REMARK    6  A    between atoms: CA_10  and  C_11
REMARK    7  A    between atoms: C_23  and  C_24
REMARK                            x       y       z     vdW  Elec       q    Type
REMARK                         _______ _______ _______ _____ _____    ______ ____
ROOT
ATOM      1  C   UNL     1       8.298  -0.352  23.662  0.00  0.00    +0.000 C 
ATOM      2  C   UNL     1       9.103  -0.173  24.661  0.00  0.00    +0.000 C 
ATOM      3 CL   UNL     1      10.825   0.405  24.565  0.00  0.00    +0.000 Cl
ATOM      4  C   UNL     1       8.943  -0.545  26.204  0.00  0.00    +0.000 C 
ENDROOT
BRANCH   1   5
ATOM      5  C   UNL     1       7.313   0.751  23.063  0.00  0.00    +0.000 C 
ATOM      6  CA  UNL     1       6.826   1.706  23.876  0.00  0.00    +0.000 C 
ATOM      7  N   UNL     1       7.347   3.115  24.085  0.00  0.00    +0.000 NA
ATOM      8  C   UNL     1       7.702   3.194  22.657  0.00  0.00    +0.000 C 
ATOM      9  O   UNL     1       7.636   4.409  22.321  0.00  0.00    +0.000 OA
ATOM     10  C   UNL     1       8.612   2.285  21.938  0.00  0.00    +0.000 C 
ATOM     11  C   UNL     1       7.866   0.914  21.516  0.00  0.00    +0.000 C 
BRANCH   6  12
ATOM     12  C   UNL     1       5.303   1.809  24.317  0.00  0.00    +0.000 C 
ATOM     13  O   UNL     1       5.050   0.601  25.000  0.00  0.00    +0.000 OA
ENDBRANCH   6  12
ENDBRANCH   1   5
BRANCH   1  14
ATOM     14  C   UNL     1       8.123  -1.556  22.584  0.00  0.00    +0.000 C 
ATOM     15  O   UNL     1       9.401  -2.196  22.749  0.00  0.00    +0.000 OA
BRANCH  14  16
ATOM     16  C   UNL     1       7.107  -2.493  23.184  0.00  0.00    +0.000 C 
BRANCH  16  17
ATOM     17  C   UNL     1       7.713  -3.865  23.347  0.00  0.00    +0.000 C 
ATOM     18  N   UNL     1       6.870  -4.894  22.749  0.00  0.00    +0.000 NA
ATOM     19  C   UNL     1       6.254  -5.639  23.620  0.00  0.00    +0.000 C 
ATOM     20  C   UNL     1       6.934  -5.447  24.982  0.00  0.00    +0.000 C 
ATOM     21  C   UNL     1       7.713  -4.209  24.862  0.00  0.00    +0.000 C 
BRANCH  21  22
ATOM     22  C   UNL     1       9.012  -4.039  25.586  0.00  0.00    +0.000 C 
ATOM     23  O   UNL     1      10.033  -4.678  24.848  0.00  0.00    +0.000 OA
ENDBRANCH  21  22
ENDBRANCH  16  17
BRANCH  16  25
ATOM     24  C   UNL     1       6.103  -2.144  20.935  0.00  0.00    +0.000 C 
ATOM     25  C   UNL     1       5.844  -2.575  22.367  0.00  0.00    +0.000 C 
ENDBRANCH  16  25
ENDBRANCH  14  16
ENDBRANCH   1  14
TORSDOF 7
ENDMDL
MODEL 5
REMARK VINA RESULT:      -5.7      2.514      6.607
REMARK  Name = 
REMARK  7 active torsions:
REMARK  status: ('A' for Active; 'I' for Inactive)
REMARK    1  A    between atoms: C_2  and  C_3
REMARK    2  A    between atoms: C_3  and  C_4
REMARK    3  A    between atoms: C_3  and  C_19
REMARK    4  A    between atoms: C_4  and  C_5
REMARK    5  A    between atoms: C_5  and  C_9
REMARK    6  A    between atoms: CA_10  and  C_11
REMARK    7  A    between atoms: C_23  and  C_24
REMARK                            x       y       z     vdW  Elec       q    Type
REMARK                         _______ _______ _______ _____ _____    ______ ____
ROOT
ATOM      1  C   UNL     1       8.386  -0.305  22.779  0.00  0.00    +0.000 C 
ATOM      2  C   UNL     1       9.481  -0.644  23.382  0.00  0.00    +0.000 C 
ATOM      3 CL   UNL     1      10.702  -1.857  22.794  0.00  0.00    +0.000 Cl
ATOM      4  C   UNL     1      10.020  -0.283  24.840  0.00  0.00    +0.000 C 
ENDROOT
BRANCH   1   5
ATOM      5  C   UNL     1       8.245   0.887  21.728  0.00  0.00    +0.000 C 
ATOM      6  CA  UNL     1       7.017   1.306  21.373  0.00  0.00    +0.000 C 
ATOM      7  N   UNL     1       6.226   2.474  21.931  0.00  0.00    +0.000 NA
ATOM      8  C   UNL     1       7.473   3.247  22.075  0.00  0.00    +0.000 C 
ATOM      9  O   UNL     1       7.170   4.468  21.972  0.00  0.00    +0.000 OA
ATOM     10  C   UNL     1       8.653   2.850  22.863  0.00  0.00    +0.000 C 
ATOM     11  C   UNL     1       9.579   1.803  22.051  0.00  0.00    +0.000 C 
BRANCH   6  12
ATOM     12  C   UNL     1       6.384   1.091  19.931  0.00  0.00    +0.000 C 
ATOM     13  O   UNL     1       7.385   0.414  19.203  0.00  0.00    +0.000 OA
ENDBRANCH   6  12
ENDBRANCH   1   5
BRANCH   1  14
ATOM     14  C   UNL     1       6.919  -0.996  22.678  0.00  0.00    +0.000 C 
ATOM     15  O   UNL     1       7.230  -2.056  21.756  0.00  0.00    +0.000 OA
BRANCH  14  16
ATOM     16  C   UNL     1       6.689  -1.656  24.011  0.00  0.00    +0.000 C 
BRANCH  16  17
ATOM     17  C   UNL     1       6.205  -3.070  23.803  0.00  0.00    +0.000 C 
ATOM     18  N   UNL     1       4.834  -3.238  24.272  0.00  0.00    +0.000 NA
ATOM     19  C   UNL     1       4.737  -3.927  25.372  0.00  0.00    +0.000 C 
ATOM     20  C   UNL     1       6.059  -4.674  25.589  0.00  0.00    +0.000 C 
ATOM     21  C   UNL     1       7.037  -4.001  24.726  0.00  0.00    +0.000 C 
BRANCH  21  22
ATOM     22  C   UNL     1       8.151  -4.763  24.078  0.00  0.00    +0.000 C 
ATOM     23  O   UNL     1       8.857  -5.473  25.073  0.00  0.00    +0.000 OA
ENDBRANCH  21  22
ENDBRANCH  16  17
BRANCH  16  25
ATOM     24  C   UNL     1       6.396  -0.394  26.135  0.00  0.00    +0.000 C 
ATOM     25  C   UNL     1       5.716  -0.895  24.874  0.00  0.00    +0.000 C 
ENDBRANCH  16  25
ENDBRANCH  14  16
ENDBRANCH   1  14
TORSDOF 7
ENDMDL
MODEL 6
REMARK VINA RESULT:      -5.6      2.305      6.382
REMARK  Name = 
REMARK  7 active torsions:
REMARK  status: ('A' for Active; 'I' for Inactive)
REMARK    1  A    between atoms: C_2  and  C_3
REMARK    2  A    between atoms: C_3  and  C_4
REMARK    3  A    between atoms: C_3  and  C_19
REMARK    4  A    between atoms: C_4  and  C_5
REMARK    5  A    between atoms: C_5  and  C_9
REMARK    6  A    between atoms: CA_10  and  C_11
REMARK    7  A    between atoms: C_23  and  C_24
REMARK                            x       y       z     vdW  Elec       q    Type
REMARK                         _______ _______ _______ _____ _____    ______ ____
ROOT
ATOM      1  C   UNL     1       7.158  -3.303  22.998  0.00  0.00    +0.000 C 
ATOM      2  C   UNL     1       7.633  -4.506  23.077  0.00  0.00    +0.000 C 
ATOM      3 CL   UNL     1       7.543  -5.784  21.787  0.00  0.00    +0.000 Cl
ATOM      4  C   UNL     1       8.257  -5.298  24.313  0.00  0.00    +0.000 C 
ENDROOT
BRANCH   1   5
ATOM      5  C   UNL     1       7.955  -2.031  22.457  0.00  0.00    +0.000 C 
ATOM      6  CA  UNL     1       7.279  -0.901  22.182  0.00  0.00    +0.000 C 
ATOM      7  N   UNL     1       7.087   0.316  23.067  0.00  0.00    +0.000 NA
ATOM      8  C   UNL     1       8.455   0.148  23.591  0.00  0.00    +0.000 C 
ATOM      9  O   UNL     1       8.871   1.292  23.925  0.00  0.00    +0.000 OA
ATOM     10  C   UNL     1       8.983  -1.049  24.271  0.00  0.00    +0.000 C 
ATOM     11  C   UNL     1       9.418  -2.186  23.207  0.00  0.00    +0.000 C 
BRANCH   6  12
ATOM     12  C   UNL     1       7.061  -0.327  20.717  0.00  0.00    +0.000 C 
ATOM     13  O   UNL     1       8.360  -0.244  20.173  0.00  0.00    +0.000 OA
ENDBRANCH   6  12
ENDBRANCH   1   5
BRANCH   1  14
ATOM     14  C   UNL     1       5.665  -2.688  23.185  0.00  0.00    +0.000 C 
ATOM     15  O   UNL     1       4.949  -3.555  22.286  0.00  0.00    +0.000 OA
BRANCH  14  16
ATOM     16  C   UNL     1       5.236  -3.080  24.574  0.00  0.00    +0.000 C 
BRANCH  16  17
ATOM     17  C   UNL     1       4.002  -3.946  24.501  0.00  0.00    +0.000 C 
ATOM     18  N   UNL     1       2.944  -3.440  25.368  0.00  0.00    +0.000 NA
ATOM     19  C   UNL     1       2.748  -4.163  26.432  0.00  0.00    +0.000 C 
ATOM     20  C   UNL     1       3.416  -5.527  26.215  0.00  0.00    +0.000 C 
ATOM     21  C   UNL     1       4.355  -5.332  25.104  0.00  0.00    +0.000 C 
BRANCH  21  22
ATOM     22  C   UNL     1       4.639  -6.433  24.130  0.00  0.00    +0.000 C 
ATOM     23  O   UNL     1       4.072  -7.631  24.616  0.00  0.00    +0.000 OA
ENDBRANCH  21  22
ENDBRANCH  16  17
BRANCH  16  25
ATOM     24  C   UNL     1       6.048  -1.786  26.537  0.00  0.00    +0.000 C 
ATOM     25  C   UNL     1       4.983  -1.888  25.459  0.00  0.00    +0.000 C 
ENDBRANCH  16  25
ENDBRANCH  14  16
ENDBRANCH   1  14
TORSDOF 7
ENDMDL
MODEL 7
REMARK VINA RESULT:      -5.4      2.574      3.653
REMARK  Name = 
REMARK  7 active torsions:
REMARK  status: ('A' for Active; 'I' for Inactive)
REMARK    1  A    between atoms: C_2  and  C_3
REMARK    2  A    between atoms: C_3  and  C_4
REMARK    3  A    between atoms: C_3  and  C_19
REMARK    4  A    between atoms: C_4  and  C_5
REMARK    5  A    between atoms: C_5  and  C_9
REMARK    6  A    between atoms: CA_10  and  C_11
REMARK    7  A    between atoms: C_23  and  C_24
REMARK                            x       y       z     vdW  Elec       q    Type
REMARK                         _______ _______ _______ _____ _____    ______ ____
ROOT
ATOM      1  C   UNL     1       7.423  -3.718  24.746  0.00  0.00    +0.000 C 
ATOM      2  C   UNL     1       8.000  -4.629  25.464  0.00  0.00    +0.000 C 
ATOM      3 CL   UNL     1       7.366  -5.343  27.011  0.00  0.00    +0.000 Cl
ATOM      4  C   UNL     1       9.456  -5.272  25.352  0.00  0.00    +0.000 C 
ENDROOT
BRANCH   1   5
ATOM      5  C   UNL     1       6.401  -3.994  23.553  0.00  0.00    +0.000 C 
ATOM      6  CA  UNL     1       6.342  -5.225  23.013  0.00  0.00    +0.000 C 
ATOM      7  N   UNL     1       5.372  -6.346  23.336  0.00  0.00    +0.000 NA
ATOM      8  C   UNL     1       4.296  -5.356  23.530  0.00  0.00    +0.000 C 
ATOM      9  O   UNL     1       3.207  -5.929  23.250  0.00  0.00    +0.000 OA
ATOM     10  C   UNL     1       4.310  -4.238  24.490  0.00  0.00    +0.000 C 
ATOM     11  C   UNL     1       5.150  -2.981  23.917  0.00  0.00    +0.000 C 
BRANCH   6  12
ATOM     12  C   UNL     1       6.833  -5.577  21.544  0.00  0.00    +0.000 C 
ATOM     13  O   UNL     1       5.956  -4.867  20.697  0.00  0.00    +0.000 OA
ENDBRANCH   6  12
ENDBRANCH   1   5
BRANCH   1  14
ATOM     14  C   UNL     1       7.331  -2.100  24.877  0.00  0.00    +0.000 C 
ATOM     15  O   UNL     1       7.281  -1.991  26.311  0.00  0.00    +0.000 OA
BRANCH  14  16
ATOM     16  C   UNL     1       8.685  -1.583  24.467  0.00  0.00    +0.000 C 
BRANCH  16  17
ATOM     17  C   UNL     1       8.569  -0.144  24.028  0.00  0.00    +0.000 C 
ATOM     18  N   UNL     1       8.526   0.760  25.172  0.00  0.00    +0.000 NA
ATOM     19  C   UNL     1       7.352   1.280  25.385  0.00  0.00    +0.000 C 
ATOM     20  C   UNL     1       6.504   1.085  24.122  0.00  0.00    +0.000 C 
ATOM     21  C   UNL     1       7.184   0.038  23.349  0.00  0.00    +0.000 C 
BRANCH  21  22
ATOM     22  C   UNL     1       7.169   0.048  21.852  0.00  0.00    +0.000 C 
ATOM     23  O   UNL     1       6.725  -1.210  21.392  0.00  0.00    +0.000 OA
ENDBRANCH  21  22
ENDBRANCH  16  17
BRANCH  16  25
ATOM     24  C   UNL     1      10.396  -1.621  22.661  0.00  0.00    +0.000 C 
ATOM     25  C   UNL     1       9.314  -2.410  23.376  0.00  0.00    +0.000 C 
ENDBRANCH  16  25
ENDBRANCH  14  16
ENDBRANCH   1  14
TORSDOF 7
ENDMDL
MODEL 8
REMARK VINA RESULT:      -5.4      1.354      2.396
REMARK  Name = 
REMARK  7 active torsions:
REMARK  status: ('A' for Active; 'I' for Inactive)
REMARK    1  A    between atoms: C_2  and  C_3
REMARK    2  A    between atoms: C_3  and  C_4
REMARK    3  A    between atoms: C_3  and  C_19
REMARK    4  A    between atoms: C_4  and  C_5
REMARK    5  A    between atoms: C_5  and  C_9
REMARK    6  A    between atoms: CA_10  and  C_11
REMARK    7  A    between atoms: C_23  and  C_24
REMARK                            x       y       z     vdW  Elec       q    Type
REMARK                         _______ _______ _______ _____ _____    ______ ____
ROOT
ATOM      1  C   UNL     1       6.858  -3.750  23.856  0.00  0.00    +0.000 C 
ATOM      2  C   UNL     1       6.653  -3.979  22.598  0.00  0.00    +0.000 C 
ATOM      3 CL   UNL     1       7.360  -5.341  21.622  0.00  0.00    +0.000 Cl
ATOM      4  C   UNL     1       5.908  -3.104  21.491  0.00  0.00    +0.000 C 
ENDROOT
BRANCH   1   5
ATOM      5  C   UNL     1       5.979  -4.330  25.054  0.00  0.00    +0.000 C 
ATOM      6  CA  UNL     1       6.340  -4.064  26.322  0.00  0.00    +0.000 C 
ATOM      7  N   UNL     1       5.820  -2.970  27.236  0.00  0.00    +0.000 NA
ATOM      8  C   UNL     1       4.472  -3.134  26.662  0.00  0.00    +0.000 C 
ATOM      9  O   UNL     1       3.643  -2.803  27.554  0.00  0.00    +0.000 OA
ATOM     10  C   UNL     1       4.112  -2.992  25.240  0.00  0.00    +0.000 C 
ATOM     11  C   UNL     1       4.460  -4.333  24.407  0.00  0.00    +0.000 C 
BRANCH   6  12
ATOM     12  C   UNL     1       6.903  -5.150  27.335  0.00  0.00    +0.000 C 
ATOM     13  O   UNL     1       7.853  -5.874  26.585  0.00  0.00    +0.000 OA
ENDBRANCH   6  12
ENDBRANCH   1   5
BRANCH   1  14
ATOM     14  C   UNL     1       8.076  -3.043  24.668  0.00  0.00    +0.000 C 
ATOM     15  O   UNL     1       9.187  -3.660  23.993  0.00  0.00    +0.000 OA
BRANCH  14  16
ATOM     16  C   UNL     1       8.071  -1.601  24.232  0.00  0.00    +0.000 C 
BRANCH  16  17
ATOM     17  C   UNL     1       9.458  -1.194  23.802  0.00  0.00    +0.000 C 
ATOM     18  N   UNL     1      10.166  -0.500  24.872  0.00  0.00    +0.000 NA
ATOM     19  C   UNL     1      10.299   0.778  24.671  0.00  0.00    +0.000 C 
ATOM     20  C   UNL     1      10.023   1.062  23.189  0.00  0.00    +0.000 C 
ATOM     21  C   UNL     1       9.317  -0.123  22.686  0.00  0.00    +0.000 C 
BRANCH  21  22
ATOM     22  C   UNL     1       9.504  -0.596  21.278  0.00  0.00    +0.000 C 
ATOM     23  O   UNL     1       8.282  -0.460  20.585  0.00  0.00    +0.000 OA
ENDBRANCH  21  22
ENDBRANCH  16  17
BRANCH  16  25
ATOM     24  C   UNL     1       6.254  -0.035  24.890  0.00  0.00    +0.000 C 
ATOM     25  C   UNL     1       7.566  -0.674  25.307  0.00  0.00    +0.000 C 
ENDBRANCH  16  25
ENDBRANCH  14  16
ENDBRANCH   1  14
TORSDOF 7
ENDMDL
MODEL 9
REMARK VINA RESULT:      -5.4      2.475      3.514
REMARK  Name = 
REMARK  7 active torsions:
REMARK  status: ('A' for Active; 'I' for Inactive)
REMARK    1  A    between atoms: C_2  and  C_3
REMARK    2  A    between atoms: C_3  and  C_4
REMARK    3  A    between atoms: C_3  and  C_19
REMARK    4  A    between atoms: C_4  and  C_5
REMARK    5  A    between atoms: C_5  and  C_9
REMARK    6  A    between atoms: CA_10  and  C_11
REMARK    7  A    between atoms: C_23  and  C_24
REMARK                            x       y       z     vdW  Elec       q    Type
REMARK                         _______ _______ _______ _____ _____    ______ ____
ROOT
ATOM      1  C   UNL     1       8.135  -2.316  23.447  0.00  0.00    +0.000 C 
ATOM      2  C   UNL     1       8.638  -1.693  22.428  0.00  0.00    +0.000 C 
ATOM      3 CL   UNL     1      10.390  -1.279  22.178  0.00  0.00    +0.000 Cl
ATOM      4  C   UNL     1       7.925  -0.958  21.205  0.00  0.00    +0.000 C 
ENDROOT
BRANCH   1   5
ATOM      5  C   UNL     1       7.956  -3.897  23.563  0.00  0.00    +0.000 C 
ATOM      6  CA  UNL     1       7.800  -4.452  24.779  0.00  0.00    +0.000 C 
ATOM      7  N   UNL     1       6.509  -4.833  25.478  0.00  0.00    +0.000 NA
ATOM      8  C   UNL     1       5.931  -5.239  24.184  0.00  0.00    +0.000 C 
ATOM      9  O   UNL     1       5.080  -6.141  24.420  0.00  0.00    +0.000 OA
ATOM     10  C   UNL     1       5.775  -4.380  22.996  0.00  0.00    +0.000 C 
ATOM     11  C   UNL     1       7.158  -4.266  22.166  0.00  0.00    +0.000 C 
BRANCH   6  12
ATOM     12  C   UNL     1       8.884  -5.376  25.482  0.00  0.00    +0.000 C 
ATOM     13  O   UNL     1      10.116  -4.951  24.942  0.00  0.00    +0.000 OA
ENDBRANCH   6  12
ENDBRANCH   1   5
BRANCH   1  14
ATOM     14  C   UNL     1       7.726  -1.837  24.945  0.00  0.00    +0.000 C 
ATOM     15  O   UNL     1       9.042  -1.742  25.520  0.00  0.00    +0.000 OA
BRANCH  14  16
ATOM     16  C   UNL     1       7.232  -0.422  24.797  0.00  0.00    +0.000 C 
BRANCH  16  17
ATOM     17  C   UNL     1       8.104   0.509  25.603  0.00  0.00    +0.000 C 
ATOM     18  N   UNL     1       7.361   1.119  26.700  0.00  0.00    +0.000 NA
ATOM     19  C   UNL     1       7.093   2.378  26.516  0.00  0.00    +0.000 C 
ATOM     20  C   UNL     1       7.998   2.902  25.393  0.00  0.00    +0.000 C 
ATOM     21  C   UNL     1       8.489   1.708  24.695  0.00  0.00    +0.000 C 
BRANCH  21  22
ATOM     22  C   UNL     1       9.857   1.675  24.088  0.00  0.00    +0.000 C 
ATOM     23  O   UNL     1      10.694   0.871  24.893  0.00  0.00    +0.000 OA
ENDBRANCH  21  22
ENDBRANCH  16  17
BRANCH  16  25
ATOM     24  C   UNL     1       5.191  -1.613  25.575  0.00  0.00    +0.000 C 
ATOM     25  C   UNL     1       5.790  -0.268  25.204  0.00  0.00    +0.000 C 
ENDBRANCH  16  25
ENDBRANCH  14  16
ENDBRANCH   1  14
TORSDOF 7
ENDMDL
