MODEL 1
REMARK VINA RESULT:      -6.9      0.000      0.000
REMARK  Name = 
REMARK  7 active torsions:
REMARK  status: ('A' for Active; 'I' for Inactive)
REMARK    1  A    between atoms: C_2  and  N_3
REMARK    2  A    between atoms: C_9  and  C_10
REMARK    3  A    between atoms: C_10  and  C_11
REMARK    4  A    between atoms: C_11  and  C_18
REMARK    5  A    between atoms: C_21  and  C_23
REMARK    6  A    between atoms: C_23  and  C_24
REMARK    7  A    between atoms: C_25  and  C_26
REMARK                            x       y       z     vdW  Elec       q    Type
REMARK                         _______ _______ _______ _____ _____    ______ ____
ROOT
ATOM      1  N   UNL     1       7.432  -3.260  23.988  0.00  0.00    +0.000 N 
ATOM      2  C   UNL     1       7.034  -4.539  23.827  0.00  0.00    +0.000 C 
ATOM      3  N   UNL     1       7.665  -5.222  23.076  0.00  0.00    +0.000 NA
ATOM      4  C   UNL     1       7.160  -5.824  21.916  0.00  0.00    +0.000 C 
ATOM      5  C   UNL     1       5.757  -6.090  22.375  0.00  0.00    +0.000 C 
ATOM      6  C   UNL     1       5.150  -5.963  23.670  0.00  0.00    +0.000 C 
ATOM      7  C   UNL     1       5.820  -4.944  24.686  0.00  0.00    +0.000 C 
ATOM      8  C   UNL     1       8.634  -3.098  23.374  0.00  0.00    +0.000 C 
ATOM      9  O   UNL     1       9.656  -3.257  24.028  0.00  0.00    +0.000 OA
ENDROOT
BRANCH   1  11
ATOM     10  C   UNL     1       6.351  -1.340  25.042  0.00  0.00    +0.000 C 
ATOM     11  C   UNL     1       7.218  -2.560  25.244  0.00  0.00    +0.000 C 
ENDBRANCH   1  11
BRANCH   7  12
ATOM     12  C   UNL     1       6.196  -5.685  25.889  0.00  0.00    +0.000 C 
BRANCH  12  13
ATOM     13  C   UNL     1       5.311  -5.679  27.076  0.00  0.00    +0.000 C 
ATOM     14  C   UNL     1       4.833  -4.299  27.472  0.00  0.00    +0.000 C 
ATOM     15  N   UNL     1       3.928  -4.403  28.573  0.00  0.00    +0.000 NA
ATOM     16  C   UNL     1       2.805  -5.165  28.234  0.00  0.00    +0.000 C 
ATOM     17  N   UNL     1       2.888  -6.046  27.149  0.00  0.00    +0.000 NA
ATOM     18  C   UNL     1       4.157  -6.637  26.971  0.00  0.00    +0.000 C 
ATOM     19  C   UNL     1       1.930  -7.123  27.367  0.00  0.00    +0.000 C 
BRANCH  13  20
ATOM     20  C   UNL     1       6.176  -6.187  28.261  0.00  0.00    +0.000 C 
ATOM     21  O   UNL     1       5.918  -7.287  28.722  0.00  0.00    +0.000 OA
ATOM     22  O   UNL     1       7.437  -5.890  27.895  0.00  0.00    +0.000 OA
ENDBRANCH  13  20
ENDBRANCH  12  13
ENDBRANCH   7  12
BRANCH   8  23
ATOM     23  C   UNL     1       8.627  -2.100  22.220  0.00  0.00    +0.000 C 
BRANCH  23  24
ATOM     24  C   UNL     1       9.795  -1.140  22.465  0.00  0.00    +0.000 C 
ATOM     25  C   UNL     1       9.909   0.123  22.972  0.00  0.00    +0.000 C 
ATOM     26  F   UNL     1      10.461   0.994  22.021  0.00  0.00    +0.000 F 
BRANCH  25  27
ATOM     27  C   UNL     1      10.632   0.419  24.321  0.00  0.00    +0.000 C 
ATOM     28  N   UNL     1       9.805  -0.091  25.381  0.00  0.00    +0.000 NA
ENDBRANCH  25  27
ENDBRANCH  23  24
ENDBRANCH   8  23
TORSDOF 7
ENDMDL
MODEL 2
REMARK VINA RESULT:      -6.7      2.905      5.097
REMARK  Name = 
REMARK  7 active torsions:
REMARK  status: ('A' for Active; 'I' for Inactive)
REMARK    1  A    between atoms: C_2  and  N_3
REMARK    2  A    between atoms: C_9  and  C_10
REMARK    3  A    between atoms: C_10  and  C_11
REMARK    4  A    between atoms: C_11  and  C_18
REMARK    5  A    between atoms: C_21  and  C_23
REMARK    6  A    between atoms: C_23  and  C_24
REMARK    7  A    between atoms: C_25  and  C_26
REMARK                            x       y       z     vdW  Elec       q    Type
REMARK                         _______ _______ _______ _____ _____    ______ ____
ROOT
ATOM      1  N   UNL     1       8.978   0.475  24.288  0.00  0.00    +0.000 N 
ATOM      2  C   UNL     1       8.706  -0.118  23.108  0.00  0.00    +0.000 C 
ATOM      3  N   UNL     1       9.229   0.332  22.131  0.00  0.00    +0.000 NA
ATOM      4  C   UNL     1       8.551   0.877  21.033  0.00  0.00    +0.000 C 
ATOM      5  C   UNL     1       7.327   0.010  21.052  0.00  0.00    +0.000 C 
ATOM      6  C   UNL     1       7.015  -1.161  21.823  0.00  0.00    +0.000 C 
ATOM      7  C   UNL     1       7.771  -1.339  23.207  0.00  0.00    +0.000 C 
ATOM      8  C   UNL     1       9.985   1.371  24.104  0.00  0.00    +0.000 C 
ATOM      9  O   UNL     1      11.139   1.004  24.284  0.00  0.00    +0.000 OA
ENDROOT
BRANCH   1  11
ATOM     10  C   UNL     1       7.857   0.180  26.438  0.00  0.00    +0.000 C 
ATOM     11  C   UNL     1       8.971  -0.281  25.529  0.00  0.00    +0.000 C 
ENDBRANCH   1  11
BRANCH   7  12
ATOM     12  C   UNL     1       8.490  -2.612  23.169  0.00  0.00    +0.000 C 
BRANCH  12  13
ATOM     13  C   UNL     1       7.898  -3.822  23.782  0.00  0.00    +0.000 C 
ATOM     14  C   UNL     1       6.850  -3.523  24.832  0.00  0.00    +0.000 C 
ATOM     15  N   UNL     1       6.284  -4.746  25.306  0.00  0.00    +0.000 NA
ATOM     16  C   UNL     1       5.664  -5.452  24.270  0.00  0.00    +0.000 C 
ATOM     17  N   UNL     1       6.027  -5.169  22.948  0.00  0.00    +0.000 NA
ATOM     18  C   UNL     1       7.382  -4.815  22.776  0.00  0.00    +0.000 C 
ATOM     19  C   UNL     1       5.782  -6.363  22.148  0.00  0.00    +0.000 C 
BRANCH  13  20
ATOM     20  C   UNL     1       9.056  -4.539  24.527  0.00  0.00    +0.000 C 
ATOM     21  O   UNL     1       9.251  -5.717  24.274  0.00  0.00    +0.000 OA
ATOM     22  O   UNL     1      10.075  -3.661  24.467  0.00  0.00    +0.000 OA
ENDBRANCH  13  20
ENDBRANCH  12  13
ENDBRANCH   7  12
BRANCH   8  23
ATOM     23  C   UNL     1       9.604   2.820  24.383  0.00  0.00    +0.000 C 
BRANCH  23  24
ATOM     24  C   UNL     1      10.441   3.684  23.434  0.00  0.00    +0.000 C 
ATOM     25  C   UNL     1      11.240   4.781  23.589  0.00  0.00    +0.000 C 
ATOM     26  F   UNL     1      10.761   5.859  22.831  0.00  0.00    +0.000 F 
BRANCH  25  27
ATOM     27  C   UNL     1      12.782   4.728  23.364  0.00  0.00    +0.000 C 
ATOM     28  N   UNL     1      13.079   5.501  22.190  0.00  0.00    +0.000 NA
ENDBRANCH  25  27
ENDBRANCH  23  24
ENDBRANCH   8  23
TORSDOF 7
ENDMDL
MODEL 3
REMARK VINA RESULT:      -6.6      3.287      5.005
REMARK  Name = 
REMARK  7 active torsions:
REMARK  status: ('A' for Active; 'I' for Inactive)
REMARK    1  A    between atoms: C_2  and  N_3
REMARK    2  A    between atoms: C_9  and  C_10
REMARK    3  A    between atoms: C_10  and  C_11
REMARK    4  A    between atoms: C_11  and  C_18
REMARK    5  A    between atoms: C_21  and  C_23
REMARK    6  A    between atoms: C_23  and  C_24
REMARK    7  A    between atoms: C_25  and  C_26
REMARK                            x       y       z     vdW  Elec       q    Type
REMARK                         _______ _______ _______ _____ _____    ______ ____
ROOT
ATOM      1  N   UNL     1       7.893   0.348  22.508  0.00  0.00    +0.000 N 
ATOM      2  C   UNL     1       7.613  -0.451  21.459  0.00  0.00    +0.000 C 
ATOM      3  N   UNL     1       8.144  -0.201  20.418  0.00  0.00    +0.000 NA
ATOM      4  C   UNL     1       7.478   0.140  19.233  0.00  0.00    +0.000 C 
ATOM      5  C   UNL     1       6.239  -0.687  19.409  0.00  0.00    +0.000 C 
ATOM      6  C   UNL     1       5.905  -1.688  20.383  0.00  0.00    +0.000 C 
ATOM      7  C   UNL     1       6.656  -1.617  21.780  0.00  0.00    +0.000 C 
ATOM      8  C   UNL     1       8.915   1.176  22.164  0.00  0.00    +0.000 C 
ATOM      9  O   UNL     1      10.063   0.830  22.415  0.00  0.00    +0.000 OA
ENDROOT
BRANCH   1  11
ATOM     10  C   UNL     1       6.795   0.515  24.684  0.00  0.00    +0.000 C 
ATOM     11  C   UNL     1       7.871  -0.163  23.869  0.00  0.00    +0.000 C 
ENDBRANCH   1  11
BRANCH   7  12
ATOM     12  C   UNL     1       7.353  -2.885  21.984  0.00  0.00    +0.000 C 
BRANCH  12  13
ATOM     13  C   UNL     1       6.944  -3.794  23.079  0.00  0.00    +0.000 C 
ATOM     14  C   UNL     1       8.102  -4.321  23.898  0.00  0.00    +0.000 C 
ATOM     15  N   UNL     1       7.603  -5.120  24.973  0.00  0.00    +0.000 NA
ATOM     16  C   UNL     1       6.782  -4.371  25.822  0.00  0.00    +0.000 C 
ATOM     17  N   UNL     1       6.208  -3.190  25.338  0.00  0.00    +0.000 NA
ATOM     18  C   UNL     1       5.874  -3.220  23.968  0.00  0.00    +0.000 C 
ATOM     19  C   UNL     1       4.978  -2.948  26.082  0.00  0.00    +0.000 C 
BRANCH  13  20
ATOM     20  C   UNL     1       6.306  -5.033  22.395  0.00  0.00    +0.000 C 
ATOM     21  O   UNL     1       5.160  -4.931  21.989  0.00  0.00    +0.000 OA
ATOM     22  O   UNL     1       7.272  -5.487  21.576  0.00  0.00    +0.000 OA
ENDBRANCH  13  20
ENDBRANCH  12  13
ENDBRANCH   7  12
BRANCH   8  23
ATOM     23  C   UNL     1       8.559   2.658  22.166  0.00  0.00    +0.000 C 
BRANCH  23  24
ATOM     24  C   UNL     1       9.244   3.272  23.391  0.00  0.00    +0.000 C 
ATOM     25  C   UNL     1       9.360   4.538  23.891  0.00  0.00    +0.000 C 
ATOM     26  F   UNL     1      10.706   4.924  23.964  0.00  0.00    +0.000 F 
BRANCH  25  27
ATOM     27  C   UNL     1       8.699   4.966  25.237  0.00  0.00    +0.000 C 
ATOM     28  N   UNL     1       7.922   3.855  25.715  0.00  0.00    +0.000 NA
ENDBRANCH  25  27
ENDBRANCH  23  24
ENDBRANCH   8  23
TORSDOF 7
ENDMDL
MODEL 4
REMARK VINA RESULT:      -6.4      2.976      7.002
REMARK  Name = 
REMARK  7 active torsions:
REMARK  status: ('A' for Active; 'I' for Inactive)
REMARK    1  A    between atoms: C_2  and  N_3
REMARK    2  A    between atoms: C_9  and  C_10
REMARK    3  A    between atoms: C_10  and  C_11
REMARK    4  A    between atoms: C_11  and  C_18
REMARK    5  A    between atoms: C_21  and  C_23
REMARK    6  A    between atoms: C_23  and  C_24
REMARK    7  A    between atoms: C_25  and  C_26
REMARK                            x       y       z     vdW  Elec       q    Type
REMARK                         _______ _______ _______ _____ _____    ______ ____
ROOT
ATOM      1  N   UNL     1       6.190  -4.239  24.228  0.00  0.00    +0.000 N 
ATOM      2  C   UNL     1       7.530  -4.258  24.080  0.00  0.00    +0.000 C 
ATOM      3  N   UNL     1       8.054  -5.324  23.939  0.00  0.00    +0.000 NA
ATOM      4  C   UNL     1       9.005  -5.876  24.806  0.00  0.00    +0.000 C 
ATOM      5  C   UNL     1       9.688  -4.615  25.247  0.00  0.00    +0.000 C 
ATOM      6  C   UNL     1       9.559  -3.263  24.782  0.00  0.00    +0.000 C 
ATOM      7  C   UNL     1       8.193  -2.867  24.076  0.00  0.00    +0.000 C 
ATOM      8  C   UNL     1       5.706  -5.484  23.976  0.00  0.00    +0.000 C 
ATOM      9  O   UNL     1       5.345  -5.757  22.838  0.00  0.00    +0.000 OA
ENDROOT
BRANCH   1  11
ATOM     10  C   UNL     1       4.797  -2.364  24.943  0.00  0.00    +0.000 C 
ATOM     11  C   UNL     1       5.400  -3.106  23.774  0.00  0.00    +0.000 C 
ENDBRANCH   1  11
BRANCH   7  12
ATOM     12  C   UNL     1       8.503  -2.388  22.730  0.00  0.00    +0.000 C 
BRANCH  12  13
ATOM     13  C   UNL     1       8.508  -0.936  22.438  0.00  0.00    +0.000 C 
ATOM     14  C   UNL     1       7.987  -0.589  21.061  0.00  0.00    +0.000 C 
ATOM     15  N   UNL     1       7.957   0.831  20.903  0.00  0.00    +0.000 NA
ATOM     16  C   UNL     1       7.110   1.426  21.844  0.00  0.00    +0.000 C 
ATOM     17  N   UNL     1       6.791   0.719  23.008  0.00  0.00    +0.000 NA
ATOM     18  C   UNL     1       7.825  -0.108  23.494  0.00  0.00    +0.000 C 
ATOM     19  C   UNL     1       6.478   1.687  24.053  0.00  0.00    +0.000 C 
BRANCH  13  20
ATOM     20  C   UNL     1       9.997  -0.498  22.456  0.00  0.00    +0.000 C 
ATOM     21  O   UNL     1      10.402   0.100  23.439  0.00  0.00    +0.000 OA
ATOM     22  O   UNL     1      10.660  -1.579  22.005  0.00  0.00    +0.000 OA
ENDBRANCH  13  20
ENDBRANCH  12  13
ENDBRANCH   7  12
BRANCH   8  23
ATOM     23  C   UNL     1       5.017  -6.149  25.162  0.00  0.00    +0.000 C 
BRANCH  23  24
ATOM     24  C   UNL     1       5.949  -5.973  26.365  0.00  0.00    +0.000 C 
ATOM     25  C   UNL     1       5.912  -5.220  27.505  0.00  0.00    +0.000 C 
ATOM     26  F   UNL     1       7.010  -4.350  27.564  0.00  0.00    +0.000 F 
BRANCH  25  27
ATOM     27  C   UNL     1       5.771  -5.858  28.921  0.00  0.00    +0.000 C 
ATOM     28  N   UNL     1       5.930  -7.279  28.778  0.00  0.00    +0.000 NA
ENDBRANCH  25  27
ENDBRANCH  23  24
ENDBRANCH   8  23
TORSDOF 7
ENDMDL
MODEL 5
REMARK VINA RESULT:      -6.3      2.868      4.544
REMARK  Name = 
REMARK  7 active torsions:
REMARK  status: ('A' for Active; 'I' for Inactive)
REMARK    1  A    between atoms: C_2  and  N_3
REMARK    2  A    between atoms: C_9  and  C_10
REMARK    3  A    between atoms: C_10  and  C_11
REMARK    4  A    between atoms: C_11  and  C_18
REMARK    5  A    between atoms: C_21  and  C_23
REMARK    6  A    between atoms: C_23  and  C_24
REMARK    7  A    between atoms: C_25  and  C_26
REMARK                            x       y       z     vdW  Elec       q    Type
REMARK                         _______ _______ _______ _____ _____    ______ ____
ROOT
ATOM      1  N   UNL     1       8.921   0.096  24.467  0.00  0.00    +0.000 N 
ATOM      2  C   UNL     1       8.776  -0.722  23.405  0.00  0.00    +0.000 C 
ATOM      3  N   UNL     1       9.467  -0.516  22.452  0.00  0.00    +0.000 NA
ATOM      4  C   UNL     1       8.998  -0.186  21.173  0.00  0.00    +0.000 C 
ATOM      5  C   UNL     1       7.721  -0.972  21.176  0.00  0.00    +0.000 C 
ATOM      6  C   UNL     1       7.211  -1.936  22.110  0.00  0.00    +0.000 C 
ATOM      7  C   UNL     1       7.744  -1.850  23.603  0.00  0.00    +0.000 C 
ATOM      8  C   UNL     1      10.010   0.884  24.265  0.00  0.00    +0.000 C 
ATOM      9  O   UNL     1      11.095   0.512  24.694  0.00  0.00    +0.000 OA
ENDROOT
BRANCH   1  11
ATOM     10  C   UNL     1       7.516   0.355  26.448  0.00  0.00    +0.000 C 
ATOM     11  C   UNL     1       8.677  -0.378  25.820  0.00  0.00    +0.000 C 
ENDBRANCH   1  11
BRANCH   7  12
ATOM     12  C   UNL     1       8.361  -3.133  23.938  0.00  0.00    +0.000 C 
BRANCH  12  13
ATOM     13  C   UNL     1       7.664  -4.084  24.833  0.00  0.00    +0.000 C 
ATOM     14  C   UNL     1       8.579  -4.772  25.823  0.00  0.00    +0.000 C 
ATOM     15  N   UNL     1       7.807  -5.606  26.690  0.00  0.00    +0.000 NA
ATOM     16  C   UNL     1       6.876  -4.856  27.416  0.00  0.00    +0.000 C 
ATOM     17  N   UNL     1       6.503  -3.595  26.936  0.00  0.00    +0.000 NA
ATOM     18  C   UNL     1       6.470  -3.490  25.530  0.00  0.00    +0.000 C 
ATOM     19  C   UNL     1       5.161  -3.304  27.428  0.00  0.00    +0.000 C 
BRANCH  13  20
ATOM     20  C   UNL     1       7.103  -5.206  23.918  0.00  0.00    +0.000 C 
ATOM     21  O   UNL     1       5.946  -5.109  23.545  0.00  0.00    +0.000 OA
ATOM     22  O   UNL     1       8.084  -5.416  23.021  0.00  0.00    +0.000 OA
ENDBRANCH  13  20
ENDBRANCH  12  13
ENDBRANCH   7  12
BRANCH   8  23
ATOM     23  C   UNL     1       9.707   2.376  24.180  0.00  0.00    +0.000 C 
BRANCH  23  24
ATOM     24  C   UNL     1       8.459   2.519  23.303  0.00  0.00    +0.000 C 
ATOM     25  C   UNL     1       7.134   2.745  23.550  0.00  0.00    +0.000 C 
ATOM     26  F   UNL     1       6.349   1.687  23.070  0.00  0.00    +0.000 F 
BRANCH  25  27
ATOM     27  C   UNL     1       6.419   4.063  23.121  0.00  0.00    +0.000 C 
ATOM     28  N   UNL     1       7.224   4.686  22.106  0.00  0.00    +0.000 NA
ENDBRANCH  25  27
ENDBRANCH  23  24
ENDBRANCH   8  23
TORSDOF 7
ENDMDL
MODEL 6
REMARK VINA RESULT:      -6.2      2.248      3.105
REMARK  Name = 
REMARK  7 active torsions:
REMARK  status: ('A' for Active; 'I' for Inactive)
REMARK    1  A    between atoms: C_2  and  N_3
REMARK    2  A    between atoms: C_9  and  C_10
REMARK    3  A    between atoms: C_10  and  C_11
REMARK    4  A    between atoms: C_11  and  C_18
REMARK    5  A    between atoms: C_21  and  C_23
REMARK    6  A    between atoms: C_23  and  C_24
REMARK    7  A    between atoms: C_25  and  C_26
REMARK                            x       y       z     vdW  Elec       q    Type
REMARK                         _______ _______ _______ _____ _____    ______ ____
ROOT
ATOM      1  N   UNL     1       6.417  -3.396  23.818  0.00  0.00    +0.000 N 
ATOM      2  C   UNL     1       7.406  -3.662  24.694  0.00  0.00    +0.000 C 
ATOM      3  N   UNL     1       8.352  -2.930  24.697  0.00  0.00    +0.000 NA
ATOM      4  C   UNL     1       9.669  -3.315  24.413  0.00  0.00    +0.000 C 
ATOM      5  C   UNL     1       9.637  -4.708  24.968  0.00  0.00    +0.000 C 
ATOM      6  C   UNL     1       8.638  -5.391  25.741  0.00  0.00    +0.000 C 
ATOM      7  C   UNL     1       7.143  -4.875  25.608  0.00  0.00    +0.000 C 
ATOM      8  C   UNL     1       6.654  -2.184  23.248  0.00  0.00    +0.000 C 
ATOM      9  O   UNL     1       6.159  -1.187  23.756  0.00  0.00    +0.000 OA
ENDROOT
BRANCH   1  11
ATOM     10  C   UNL     1       4.497  -4.732  23.113  0.00  0.00    +0.000 C 
ATOM     11  C   UNL     1       5.036  -3.740  24.116  0.00  0.00    +0.000 C 
ENDBRANCH   1  11
BRANCH   7  12
ATOM     12  C   UNL     1       6.676  -4.493  26.940  0.00  0.00    +0.000 C 
BRANCH  12  13
ATOM     13  C   UNL     1       5.557  -5.224  27.576  0.00  0.00    +0.000 C 
ATOM     14  C   UNL     1       4.513  -4.321  28.197  0.00  0.00    +0.000 C 
ATOM     15  N   UNL     1       3.440  -5.111  28.713  0.00  0.00    +0.000 NA
ATOM     16  C   UNL     1       2.821  -5.847  27.698  0.00  0.00    +0.000 C 
ATOM     17  N   UNL     1       3.523  -6.084  26.510  0.00  0.00    +0.000 NA
ATOM     18  C   UNL     1       4.915  -6.244  26.675  0.00  0.00    +0.000 C 
ATOM     19  C   UNL     1       3.009  -7.314  25.919  0.00  0.00    +0.000 C 
BRANCH  13  20
ATOM     20  C   UNL     1       6.178  -6.028  28.750  0.00  0.00    +0.000 C 
ATOM     21  O   UNL     1       6.055  -5.577  29.876  0.00  0.00    +0.000 OA
ATOM     22  O   UNL     1       5.826  -7.302  28.494  0.00  0.00    +0.000 OA
ENDBRANCH  13  20
ENDBRANCH  12  13
ENDBRANCH   7  12
BRANCH   8  23
ATOM     23  C   UNL     1       6.880  -2.226  21.740  0.00  0.00    +0.000 C 
BRANCH  23  24
ATOM     24  C   UNL     1       7.099  -0.778  21.290  0.00  0.00    +0.000 C 
ATOM     25  C   UNL     1       7.806  -0.184  20.284  0.00  0.00    +0.000 C 
ATOM     26  F   UNL     1       8.769   0.694  20.802  0.00  0.00    +0.000 F 
BRANCH  25  27
ATOM     27  C   UNL     1       7.111   0.562  19.104  0.00  0.00    +0.000 C 
ATOM     28  N   UNL     1       6.529  -0.430  18.242  0.00  0.00    +0.000 NA
ENDBRANCH  25  27
ENDBRANCH  23  24
ENDBRANCH   8  23
TORSDOF 7
ENDMDL
MODEL 7
REMARK VINA RESULT:      -6.1      3.254      7.057
REMARK  Name = 
REMARK  7 active torsions:
REMARK  status: ('A' for Active; 'I' for Inactive)
REMARK    1  A    between atoms: C_2  and  N_3
REMARK    2  A    between atoms: C_9  and  C_10
REMARK    3  A    between atoms: C_10  and  C_11
REMARK    4  A    between atoms: C_11  and  C_18
REMARK    5  A    between atoms: C_21  and  C_23
REMARK    6  A    between atoms: C_23  and  C_24
REMARK    7  A    between atoms: C_25  and  C_26
REMARK                            x       y       z     vdW  Elec       q    Type
REMARK                         _______ _______ _______ _____ _____    ______ ____
ROOT
ATOM      1  N   UNL     1       6.896  -4.039  23.272  0.00  0.00    +0.000 N 
ATOM      2  C   UNL     1       7.267  -3.728  24.530  0.00  0.00    +0.000 C 
ATOM      3  N   UNL     1       7.497  -4.633  25.277  0.00  0.00    +0.000 NA
ATOM      4  C   UNL     1       6.802  -4.895  26.465  0.00  0.00    +0.000 C 
ATOM      5  C   UNL     1       6.478  -3.487  26.868  0.00  0.00    +0.000 C 
ATOM      6  C   UNL     1       6.911  -2.230  26.327  0.00  0.00    +0.000 C 
ATOM      7  C   UNL     1       7.378  -2.216  24.810  0.00  0.00    +0.000 C 
ATOM      8  C   UNL     1       7.067  -5.374  23.084  0.00  0.00    +0.000 C 
ATOM      9  O   UNL     1       8.130  -5.773  22.624  0.00  0.00    +0.000 OA
ENDROOT
BRANCH   1  11
ATOM     10  C   UNL     1       5.952  -2.559  21.573  0.00  0.00    +0.000 C 
ATOM     11  C   UNL     1       7.209  -3.158  22.158  0.00  0.00    +0.000 C 
ENDBRANCH   1  11
BRANCH   7  12
ATOM     12  C   UNL     1       8.755  -1.729  24.765  0.00  0.00    +0.000 C 
BRANCH  12  13
ATOM     13  C   UNL     1       9.092  -0.516  23.984  0.00  0.00    +0.000 C 
ATOM     14  C   UNL     1      10.029  -0.778  22.825  0.00  0.00    +0.000 C 
ATOM     15  N   UNL     1      10.231   0.430  22.089  0.00  0.00    +0.000 NA
ATOM     16  C   UNL     1       9.026   0.911  21.566  0.00  0.00    +0.000 C 
ATOM     17  N   UNL     1       7.822   0.488  22.143  0.00  0.00    +0.000 NA
ATOM     18  C   UNL     1       7.886   0.263  23.534  0.00  0.00    +0.000 C 
ATOM     19  C   UNL     1       6.822   1.523  21.912  0.00  0.00    +0.000 C 
BRANCH  13  20
ATOM     20  C   UNL     1       9.862   0.420  24.953  0.00  0.00    +0.000 C 
ATOM     21  O   UNL     1      11.074   0.495  24.828  0.00  0.00    +0.000 OA
ATOM     22  O   UNL     1       9.119   1.542  24.981  0.00  0.00    +0.000 OA
ENDBRANCH  13  20
ENDBRANCH  12  13
ENDBRANCH   7  12
BRANCH   8  23
ATOM     23  C   UNL     1       5.784  -6.143  22.788  0.00  0.00    +0.000 C 
BRANCH  23  24
ATOM     24  C   UNL     1       4.623  -5.197  23.113  0.00  0.00    +0.000 C 
ATOM     25  C   UNL     1       3.483  -5.299  23.858  0.00  0.00    +0.000 C 
ATOM     26  F   UNL     1       2.346  -5.099  23.060  0.00  0.00    +0.000 F 
BRANCH  25  27
ATOM     27  C   UNL     1       3.263  -4.474  25.163  0.00  0.00    +0.000 C 
ATOM     28  N   UNL     1       3.611  -3.109  24.880  0.00  0.00    +0.000 NA
ENDBRANCH  25  27
ENDBRANCH  23  24
ENDBRANCH   8  23
TORSDOF 7
ENDMDL
MODEL 8
REMARK VINA RESULT:      -6.1      3.002      4.763
REMARK  Name = 
REMARK  7 active torsions:
REMARK  status: ('A' for Active; 'I' for Inactive)
REMARK    1  A    between atoms: C_2  and  N_3
REMARK    2  A    between atoms: C_9  and  C_10
REMARK    3  A    between atoms: C_10  and  C_11
REMARK    4  A    between atoms: C_11  and  C_18
REMARK    5  A    between atoms: C_21  and  C_23
REMARK    6  A    between atoms: C_23  and  C_24
REMARK    7  A    between atoms: C_25  and  C_26
REMARK                            x       y       z     vdW  Elec       q    Type
REMARK                         _______ _______ _______ _____ _____    ______ ____
ROOT
ATOM      1  N   UNL     1       8.553  -0.534  22.602  0.00  0.00    +0.000 N 
ATOM      2  C   UNL     1       7.309  -0.260  23.044  0.00  0.00    +0.000 C 
ATOM      3  N   UNL     1       6.794   0.745  22.653  0.00  0.00    +0.000 NA
ATOM      4  C   UNL     1       6.388   1.813  23.465  0.00  0.00    +0.000 C 
ATOM      5  C   UNL     1       5.992   1.044  24.691  0.00  0.00    +0.000 C 
ATOM      6  C   UNL     1       5.865  -0.368  24.916  0.00  0.00    +0.000 C 
ATOM      7  C   UNL     1       6.713  -1.330  23.980  0.00  0.00    +0.000 C 
ATOM      8  C   UNL     1       8.867   0.345  21.613  0.00  0.00    +0.000 C 
ATOM      9  O   UNL     1       8.633   0.033  20.452  0.00  0.00    +0.000 OA
ENDROOT
BRANCH   1  11
ATOM     10  C   UNL     1       9.989  -2.271  23.544  0.00  0.00    +0.000 C 
ATOM     11  C   UNL     1       9.011  -1.906  22.452  0.00  0.00    +0.000 C 
ENDBRANCH   1  11
BRANCH   7  12
ATOM     12  C   UNL     1       5.785  -2.230  23.297  0.00  0.00    +0.000 C 
BRANCH  12  13
ATOM     13  C   UNL     1       5.539  -3.590  23.827  0.00  0.00    +0.000 C 
ATOM     14  C   UNL     1       6.739  -4.201  24.518  0.00  0.00    +0.000 C 
ATOM     15  N   UNL     1       6.383  -5.474  25.062  0.00  0.00    +0.000 NA
ATOM     16  C   UNL     1       5.359  -5.352  26.007  0.00  0.00    +0.000 C 
ATOM     17  N   UNL     1       4.550  -4.209  25.983  0.00  0.00    +0.000 NA
ATOM     18  C   UNL     1       4.314  -3.686  24.695  0.00  0.00    +0.000 C 
ATOM     19  C   UNL     1       3.256  -4.560  26.557  0.00  0.00    +0.000 C 
BRANCH  13  20
ATOM     20  C   UNL     1       5.254  -4.489  22.593  0.00  0.00    +0.000 C 
ATOM     21  O   UNL     1       4.221  -5.137  22.589  0.00  0.00    +0.000 OA
ATOM     22  O   UNL     1       5.561  -3.706  21.542  0.00  0.00    +0.000 OA
ENDBRANCH  13  20
ENDBRANCH  12  13
ENDBRANCH   7  12
BRANCH   8  23
ATOM     23  C   UNL     1      10.052   1.252  21.924  0.00  0.00    +0.000 C 
BRANCH  23  24
ATOM     24  C   UNL     1       9.503   2.422  22.748  0.00  0.00    +0.000 C 
ATOM     25  C   UNL     1       9.954   3.131  23.825  0.00  0.00    +0.000 C 
ATOM     26  F   UNL     1       9.063   3.022  24.902  0.00  0.00    +0.000 F 
BRANCH  25  27
ATOM     27  C   UNL     1      10.351   4.636  23.724  0.00  0.00    +0.000 C 
ATOM     28  N   UNL     1      11.755   4.698  23.423  0.00  0.00    +0.000 NA
ENDBRANCH  25  27
ENDBRANCH  23  24
ENDBRANCH   8  23
TORSDOF 7
ENDMDL
MODEL 9
REMARK VINA RESULT:      -6.0      3.376      5.824
REMARK  Name = 
REMARK  7 active torsions:
REMARK  status: ('A' for Active; 'I' for Inactive)
REMARK    1  A    between atoms: C_2  and  N_3
REMARK    2  A    between atoms: C_9  and  C_10
REMARK    3  A    between atoms: C_10  and  C_11
REMARK    4  A    between atoms: C_11  and  C_18
REMARK    5  A    between atoms: C_21  and  C_23
REMARK    6  A    between atoms: C_23  and  C_24
REMARK    7  A    between atoms: C_25  and  C_26
REMARK                            x       y       z     vdW  Elec       q    Type
REMARK                         _______ _______ _______ _____ _____    ______ ____
ROOT
ATOM      1  N   UNL     1       7.585   1.177  22.596  0.00  0.00    +0.000 N 
ATOM      2  C   UNL     1       6.908   0.685  23.653  0.00  0.00    +0.000 C 
ATOM      3  N   UNL     1       5.865   1.200  23.929  0.00  0.00    +0.000 NA
ATOM      4  C   UNL     1       5.579   1.843  25.140  0.00  0.00    +0.000 C 
ATOM      5  C   UNL     1       6.412   1.002  26.061  0.00  0.00    +0.000 C 
ATOM      6  C   UNL     1       7.131  -0.219  25.829  0.00  0.00    +0.000 C 
ATOM      7  C   UNL     1       7.581  -0.522  24.337  0.00  0.00    +0.000 C 
ATOM      8  C   UNL     1       6.787   2.064  21.943  0.00  0.00    +0.000 C 
ATOM      9  O   UNL     1       6.092   1.661  21.019  0.00  0.00    +0.000 OA
ENDROOT
BRANCH   1  11
ATOM     10  C   UNL     1       9.896   0.691  21.974  0.00  0.00    +0.000 C 
ATOM     11  C   UNL     1       8.443   0.325  21.789  0.00  0.00    +0.000 C 
ENDBRANCH   1  11
BRANCH   7  12
ATOM     12  C   UNL     1       6.996  -1.801  23.938  0.00  0.00    +0.000 C 
BRANCH  12  13
ATOM     13  C   UNL     1       7.756  -3.058  24.124  0.00  0.00    +0.000 C 
ATOM     14  C   UNL     1       9.250  -2.856  24.243  0.00  0.00    +0.000 C 
ATOM     15  N   UNL     1       9.886  -4.110  24.498  0.00  0.00    +0.000 NA
ATOM     16  C   UNL     1       9.432  -4.673  25.695  0.00  0.00    +0.000 C 
ATOM     17  N   UNL     1       8.206  -4.248  26.220  0.00  0.00    +0.000 NA
ATOM     18  C   UNL     1       7.239  -3.913  25.250  0.00  0.00    +0.000 C 
ATOM     19  C   UNL     1       7.659  -5.333  27.026  0.00  0.00    +0.000 C 
BRANCH  13  20
ATOM     20  C   UNL     1       7.539  -3.888  22.830  0.00  0.00    +0.000 C 
ATOM     21  O   UNL     1       7.010  -4.982  22.939  0.00  0.00    +0.000 OA
ATOM     22  O   UNL     1       7.059  -2.994  21.946  0.00  0.00    +0.000 OA
ENDBRANCH  13  20
ENDBRANCH  12  13
ENDBRANCH   7  12
BRANCH   8  23
ATOM     23  C   UNL     1       7.315   3.494  21.919  0.00  0.00    +0.000 C 
BRANCH  23  24
ATOM     24  C   UNL     1       8.062   3.706  23.240  0.00  0.00    +0.000 C 
ATOM     25  C   UNL     1       9.368   3.923  23.578  0.00  0.00    +0.000 C 
ATOM     26  F   UNL     1       9.840   2.906  24.420  0.00  0.00    +0.000 F 
BRANCH  25  27
ATOM     27  C   UNL     1       9.858   5.272  24.189  0.00  0.00    +0.000 C 
ATOM     28  N   UNL     1      11.232   5.450  23.806  0.00  0.00    +0.000 NA
ENDBRANCH  25  27
ENDBRANCH  23  24
ENDBRANCH   8  23
TORSDOF 7
ENDMDL
