MODEL 1
REMARK VINA RESULT:      -7.0      0.000      0.000
REMARK  Name = 
REMARK  5 active torsions:
REMARK  status: ('A' for Active; 'I' for Inactive)
REMARK    1  A    between atoms: C_2  and  C_3
REMARK    2  A    between atoms: C_4  and  N_18
REMARK    3  A    between atoms: C_5  and  N_10
REMARK    4  A    between atoms: N_10  and  C_11
REMARK    5  A    between atoms: N_21  and  C_24
REMARK                            x       y       z     vdW  Elec       q    Type
REMARK                         _______ _______ _______ _____ _____    ______ ____
ROOT
ATOM      1  C   UNL     1       8.156   0.651  23.894  0.00  0.00    +0.000 C 
ATOM      2  C   UNL     1       8.491  -0.648  23.525  0.00  0.00    +0.000 C 
ATOM      3  C   UNL     1       9.328  -1.705  24.478  0.00  0.00    +0.000 C 
ATOM      4  C   UNL     1       9.672  -0.701  25.643  0.00  0.00    +0.000 C 
ATOM      5  C   UNL     1      10.000   0.723  25.280  0.00  0.00    +0.000 C 
ATOM      6  C   UNL     1       8.969   1.676  24.708  0.00  0.00    +0.000 C 
ATOM      7  F   UNL     1       9.595   2.407  23.772  0.00  0.00    +0.000 F 
ENDROOT
BRANCH   2   8
ATOM      8  N   UNL     1       8.778  -1.011  22.205  0.00  0.00    +0.000 N 
ATOM      9  C   UNL     1       7.741  -1.946  21.620  0.00  0.00    +0.000 C 
ATOM     10  C   UNL     1       6.568  -1.008  21.311  0.00  0.00    +0.000 C 
ATOM     11  N   UNL     1       6.916   0.007  20.432  0.00  0.00    +0.000 NA
ATOM     12  C   UNL     1       8.116   0.630  20.531  0.00  0.00    +0.000 C 
ATOM     13  C   UNL     1       9.255  -0.063  21.210  0.00  0.00    +0.000 C 
BRANCH  11  14
ATOM     14  C   UNL     1       6.484  -0.269  19.109  0.00  0.00    +0.000 C 
ATOM     15  O   UNL     1       7.533  -0.056  18.196  0.00  0.00    +0.000 OA
ATOM     16  C   UNL     1       5.321   0.612  18.706  0.00  0.00    +0.000 C 
ENDBRANCH  11  14
ENDBRANCH   2   8
BRANCH   1  18
ATOM     17  N   UNL     1       6.510   1.799  23.568  0.00  0.00    +0.000 NA
ATOM     18  C   UNL     1       6.933   0.987  24.248  0.00  0.00    +0.000 C 
ENDBRANCH   1  18
BRANCH   3  19
ATOM     19  N   UNL     1       8.613  -2.736  24.816  0.00  0.00    +0.000 NA
BRANCH  19  20
ATOM     20  C   UNL     1       9.137  -4.045  24.936  0.00  0.00    +0.000 C 
ATOM     21  C   UNL     1       9.087  -4.502  26.401  0.00  0.00    +0.000 C 
ATOM     22  C   UNL     1       7.782  -5.237  26.656  0.00  0.00    +0.000 C 
ATOM     23  C   UNL     1       6.626  -4.456  26.039  0.00  0.00    +0.000 C 
ATOM     24  C   UNL     1       6.747  -4.504  24.520  0.00  0.00    +0.000 C 
ATOM     25  C   UNL     1       8.161  -4.989  24.160  0.00  0.00    +0.000 C 
ATOM     26  O   UNL     1       6.759  -3.117  26.442  0.00  0.00    +0.000 OA
ENDBRANCH  19  20
ENDBRANCH   3  19
TORSDOF 5
ENDMDL
MODEL 2
REMARK VINA RESULT:      -6.7      2.226      5.700
REMARK  Name = 
REMARK  5 active torsions:
REMARK  status: ('A' for Active; 'I' for Inactive)
REMARK    1  A    between atoms: C_2  and  C_3
REMARK    2  A    between atoms: C_4  and  N_18
REMARK    3  A    between atoms: C_5  and  N_10
REMARK    4  A    between atoms: N_10  and  C_11
REMARK    5  A    between atoms: N_21  and  C_24
REMARK                            x       y       z     vdW  Elec       q    Type
REMARK                         _______ _______ _______ _____ _____    ______ ____
ROOT
ATOM      1  C   UNL     1       8.720  -1.634  24.489  0.00  0.00    +0.000 C 
ATOM      2  C   UNL     1       7.524  -1.491  23.791  0.00  0.00    +0.000 C 
ATOM      3  C   UNL     1       6.892  -0.045  23.304  0.00  0.00    +0.000 C 
ATOM      4  C   UNL     1       7.937   0.888  24.027  0.00  0.00    +0.000 C 
ATOM      5  C   UNL     1       8.438   0.474  25.384  0.00  0.00    +0.000 C 
ATOM      6  C   UNL     1       9.320  -0.742  25.592  0.00  0.00    +0.000 C 
ATOM      7  F   UNL     1       8.915  -1.324  26.732  0.00  0.00    +0.000 F 
ENDROOT
BRANCH   2   8
ATOM      8  N   UNL     1       6.432  -2.345  23.976  0.00  0.00    +0.000 N 
ATOM      9  C   UNL     1       5.783  -2.751  22.670  0.00  0.00    +0.000 C 
ATOM     10  C   UNL     1       6.755  -3.799  22.115  0.00  0.00    +0.000 C 
ATOM     11  N   UNL     1       6.924  -4.874  22.974  0.00  0.00    +0.000 NA
ATOM     12  C   UNL     1       7.015  -4.685  24.314  0.00  0.00    +0.000 C 
ATOM     13  C   UNL     1       6.442  -3.447  24.926  0.00  0.00    +0.000 C 
BRANCH  11  14
ATOM     14  C   UNL     1       6.158  -5.998  22.571  0.00  0.00    +0.000 C 
ATOM     15  O   UNL     1       5.740  -5.853  21.235  0.00  0.00    +0.000 OA
ATOM     16  C   UNL     1       4.926  -6.172  23.434  0.00  0.00    +0.000 C 
ENDBRANCH  11  14
ENDBRANCH   2   8
BRANCH   1  18
ATOM     17  N   UNL     1       9.987  -3.178  24.110  0.00  0.00    +0.000 NA
ATOM     18  C   UNL     1       9.822  -2.067  23.912  0.00  0.00    +0.000 C 
ENDBRANCH   1  18
BRANCH   3  19
ATOM     19  N   UNL     1       6.845   0.060  22.010  0.00  0.00    +0.000 NA
BRANCH  19  20
ATOM     20  C   UNL     1       7.786   0.796  21.251  0.00  0.00    +0.000 C 
ATOM     21  C   UNL     1       8.315  -0.061  20.091  0.00  0.00    +0.000 C 
ATOM     22  C   UNL     1       7.462   0.178  18.857  0.00  0.00    +0.000 C 
ATOM     23  C   UNL     1       5.985   0.150  19.242  0.00  0.00    +0.000 C 
ATOM     24  C   UNL     1       5.674   1.367  20.107  0.00  0.00    +0.000 C 
ATOM     25  C   UNL     1       7.002   1.975  20.587  0.00  0.00    +0.000 C 
ATOM     26  O   UNL     1       5.775  -1.000  20.020  0.00  0.00    +0.000 OA
ENDBRANCH  19  20
ENDBRANCH   3  19
TORSDOF 5
ENDMDL
MODEL 3
REMARK VINA RESULT:      -6.4      2.387      4.328
REMARK  Name = 
REMARK  5 active torsions:
REMARK  status: ('A' for Active; 'I' for Inactive)
REMARK    1  A    between atoms: C_2  and  C_3
REMARK    2  A    between atoms: C_4  and  N_18
REMARK    3  A    between atoms: C_5  and  N_10
REMARK    4  A    between atoms: N_10  and  C_11
REMARK    5  A    between atoms: N_21  and  C_24
REMARK                            x       y       z     vdW  Elec       q    Type
REMARK                         _______ _______ _______ _____ _____    ______ ____
ROOT
ATOM      1  C   UNL     1       8.058   0.106  21.526  0.00  0.00    +0.000 C 
ATOM      2  C   UNL     1       7.488  -0.183  22.763  0.00  0.00    +0.000 C 
ATOM      3  C   UNL     1       6.619  -1.546  23.099  0.00  0.00    +0.000 C 
ATOM      4  C   UNL     1       6.572  -2.123  21.633  0.00  0.00    +0.000 C 
ATOM      5  C   UNL     1       6.423  -1.153  20.492  0.00  0.00    +0.000 C 
ATOM      6  C   UNL     1       7.511  -0.168  20.112  0.00  0.00    +0.000 C 
ATOM      7  F   UNL     1       6.897   0.978  19.777  0.00  0.00    +0.000 F 
ENDROOT
BRANCH   2   8
ATOM      8  N   UNL     1       6.996   0.808  23.620  0.00  0.00    +0.000 N 
ATOM      9  C   UNL     1       7.854   0.987  24.855  0.00  0.00    +0.000 C 
ATOM     10  C   UNL     1       9.059   1.773  24.325  0.00  0.00    +0.000 C 
ATOM     11  N   UNL     1       8.695   2.985  23.757  0.00  0.00    +0.000 NA
ATOM     12  C   UNL     1       7.583   3.085  22.988  0.00  0.00    +0.000 C 
ATOM     13  C   UNL     1       6.484   2.083  23.143  0.00  0.00    +0.000 C 
BRANCH  11  14
ATOM     14  C   UNL     1       8.920   4.071  24.641  0.00  0.00    +0.000 C 
ATOM     15  O   UNL     1       7.706   4.716  24.944  0.00  0.00    +0.000 OA
ATOM     16  C   UNL     1       9.861   5.094  24.041  0.00  0.00    +0.000 C 
ENDBRANCH  11  14
ENDBRANCH   2   8
BRANCH   1  18
ATOM     17  N   UNL     1       9.828  -0.770  22.010  0.00  0.00    +0.000 NA
ATOM     18  C   UNL     1       9.351  -0.010  21.305  0.00  0.00    +0.000 C 
ENDBRANCH   1  18
BRANCH   3  19
ATOM     19  N   UNL     1       7.205  -2.298  23.981  0.00  0.00    +0.000 NA
BRANCH  19  20
ATOM     20  C   UNL     1       7.984  -3.432  23.648  0.00  0.00    +0.000 C 
ATOM     21  C   UNL     1       9.301  -3.419  24.439  0.00  0.00    +0.000 C 
ATOM     22  C   UNL     1       9.120  -4.197  25.732  0.00  0.00    +0.000 C 
ATOM     23  C   UNL     1       7.805  -3.793  26.392  0.00  0.00    +0.000 C 
ATOM     24  C   UNL     1       6.646  -4.290  25.536  0.00  0.00    +0.000 C 
ATOM     25  C   UNL     1       7.194  -4.682  24.155  0.00  0.00    +0.000 C 
ATOM     26  O   UNL     1       7.758  -2.389  26.414  0.00  0.00    +0.000 OA
ENDBRANCH  19  20
ENDBRANCH   3  19
TORSDOF 5
ENDMDL
MODEL 4
REMARK VINA RESULT:      -6.4      1.834      6.015
REMARK  Name = 
REMARK  5 active torsions:
REMARK  status: ('A' for Active; 'I' for Inactive)
REMARK    1  A    between atoms: C_2  and  C_3
REMARK    2  A    between atoms: C_4  and  N_18
REMARK    3  A    between atoms: C_5  and  N_10
REMARK    4  A    between atoms: N_10  and  C_11
REMARK    5  A    between atoms: N_21  and  C_24
REMARK                            x       y       z     vdW  Elec       q    Type
REMARK                         _______ _______ _______ _____ _____    ______ ____
ROOT
ATOM      1  C   UNL     1       9.526  -0.639  23.450  0.00  0.00    +0.000 C 
ATOM      2  C   UNL     1       8.195  -0.293  23.238  0.00  0.00    +0.000 C 
ATOM      3  C   UNL     1       7.694   0.956  22.281  0.00  0.00    +0.000 C 
ATOM      4  C   UNL     1       9.116   1.559  21.971  0.00  0.00    +0.000 C 
ATOM      5  C   UNL     1      10.146   1.551  23.069  0.00  0.00    +0.000 C 
ATOM      6  C   UNL     1      10.760   0.271  23.602  0.00  0.00    +0.000 C 
ATOM      7  F   UNL     1      10.885   0.424  24.930  0.00  0.00    +0.000 F 
ENDROOT
BRANCH   2   8
ATOM      8  N   UNL     1       7.207  -0.450  24.215  0.00  0.00    +0.000 N 
ATOM      9  C   UNL     1       6.174  -1.490  23.836  0.00  0.00    +0.000 C 
ATOM     10  C   UNL     1       6.908  -2.812  24.091  0.00  0.00    +0.000 C 
ATOM     11  N   UNL     1       7.327  -2.942  25.407  0.00  0.00    +0.000 NA
ATOM     12  C   UNL     1       7.837  -1.883  26.081  0.00  0.00    +0.000 C 
ATOM     13  C   UNL     1       7.502  -0.494  25.639  0.00  0.00    +0.000 C 
BRANCH  11  14
ATOM     14  C   UNL     1       6.458  -3.776  26.158  0.00  0.00    +0.000 C 
ATOM     15  O   UNL     1       5.610  -2.998  26.967  0.00  0.00    +0.000 OA
ATOM     16  C   UNL     1       7.229  -4.722  27.054  0.00  0.00    +0.000 C 
ENDBRANCH  11  14
ENDBRANCH   2   8
BRANCH   1  18
ATOM     17  N   UNL     1      10.363  -2.482  23.646  0.00  0.00    +0.000 NA
ATOM     18  C   UNL     1      10.078  -1.689  22.877  0.00  0.00    +0.000 C 
ENDBRANCH   1  18
BRANCH   3  19
ATOM     19  N   UNL     1       7.019   0.546  21.250  0.00  0.00    +0.000 NA
BRANCH  19  20
ATOM     20  C   UNL     1       7.288  -0.667  20.572  0.00  0.00    +0.000 C 
ATOM     21  C   UNL     1       5.972  -1.361  20.189  0.00  0.00    +0.000 C 
ATOM     22  C   UNL     1       5.562  -0.927  18.791  0.00  0.00    +0.000 C 
ATOM     23  C   UNL     1       5.718   0.585  18.659  0.00  0.00    +0.000 C 
ATOM     24  C   UNL     1       7.201   0.937  18.698  0.00  0.00    +0.000 C 
ATOM     25  C   UNL     1       7.977  -0.282  19.222  0.00  0.00    +0.000 C 
ATOM     26  O   UNL     1       5.104   1.172  19.777  0.00  0.00    +0.000 OA
ENDBRANCH  19  20
ENDBRANCH   3  19
TORSDOF 5
ENDMDL
MODEL 5
REMARK VINA RESULT:      -6.4      1.860      2.546
REMARK  Name = 
REMARK  5 active torsions:
REMARK  status: ('A' for Active; 'I' for Inactive)
REMARK    1  A    between atoms: C_2  and  C_3
REMARK    2  A    between atoms: C_4  and  N_18
REMARK    3  A    between atoms: C_5  and  N_10
REMARK    4  A    between atoms: N_10  and  C_11
REMARK    5  A    between atoms: N_21  and  C_24
REMARK                            x       y       z     vdW  Elec       q    Type
REMARK                         _______ _______ _______ _____ _____    ______ ____
ROOT
ATOM      1  C   UNL     1       7.431  -0.647  24.365  0.00  0.00    +0.000 C 
ATOM      2  C   UNL     1       7.494  -1.893  23.749  0.00  0.00    +0.000 C 
ATOM      3  C   UNL     1       7.701  -3.323  24.548  0.00  0.00    +0.000 C 
ATOM      4  C   UNL     1       7.951  -2.721  25.983  0.00  0.00    +0.000 C 
ATOM      5  C   UNL     1       8.742  -1.445  26.089  0.00  0.00    +0.000 C 
ATOM      6  C   UNL     1       8.220  -0.116  25.578  0.00  0.00    +0.000 C 
ATOM      7  F   UNL     1       9.263   0.525  25.028  0.00  0.00    +0.000 F 
ENDROOT
BRANCH   2   8
ATOM      8  N   UNL     1       8.041  -2.082  22.475  0.00  0.00    +0.000 N 
ATOM      9  C   UNL     1       7.070  -2.738  21.516  0.00  0.00    +0.000 C 
ATOM     10  C   UNL     1       6.121  -1.590  21.151  0.00  0.00    +0.000 C 
ATOM     11  N   UNL     1       6.783  -0.516  20.575  0.00  0.00    +0.000 NA
ATOM     12  C   UNL     1       7.990  -0.113  21.043  0.00  0.00    +0.000 C 
ATOM     13  C   UNL     1       8.847  -1.074  21.804  0.00  0.00    +0.000 C 
BRANCH  11  14
ATOM     14  C   UNL     1       6.648  -0.507  19.163  0.00  0.00    +0.000 C 
ATOM     15  O   UNL     1       7.824  -0.025  18.561  0.00  0.00    +0.000 OA
ATOM     16  C   UNL     1       5.496   0.370  18.718  0.00  0.00    +0.000 C 
ENDBRANCH  11  14
ENDBRANCH   2   8
BRANCH   1  18
ATOM     17  N   UNL     1       6.286   0.972  23.918  0.00  0.00    +0.000 NA
ATOM     18  C   UNL     1       6.296   0.003  24.520  0.00  0.00    +0.000 C 
ENDBRANCH   1  18
BRANCH   3  19
ATOM     19  N   UNL     1       6.667  -4.102  24.438  0.00  0.00    +0.000 NA
BRANCH  19  20
ATOM     20  C   UNL     1       5.359  -3.726  24.827  0.00  0.00    +0.000 C 
ATOM     21  C   UNL     1       4.389  -3.896  23.649  0.00  0.00    +0.000 C 
ATOM     22  C   UNL     1       3.768  -5.282  23.702  0.00  0.00    +0.000 C 
ATOM     23  C   UNL     1       4.854  -6.318  23.979  0.00  0.00    +0.000 C 
ATOM     24  C   UNL     1       5.373  -6.127  25.399  0.00  0.00    +0.000 C 
ATOM     25  C   UNL     1       4.901  -4.756  25.910  0.00  0.00    +0.000 C 
ATOM     26  O   UNL     1       5.914  -6.065  23.092  0.00  0.00    +0.000 OA
ENDBRANCH  19  20
ENDBRANCH   3  19
TORSDOF 5
ENDMDL
MODEL 6
REMARK VINA RESULT:      -6.3      2.897      6.076
REMARK  Name = 
REMARK  5 active torsions:
REMARK  status: ('A' for Active; 'I' for Inactive)
REMARK    1  A    between atoms: C_2  and  C_3
REMARK    2  A    between atoms: C_4  and  N_18
REMARK    3  A    between atoms: C_5  and  N_10
REMARK    4  A    between atoms: N_10  and  C_11
REMARK    5  A    between atoms: N_21  and  C_24
REMARK                            x       y       z     vdW  Elec       q    Type
REMARK                         _______ _______ _______ _____ _____    ______ ____
ROOT
ATOM      1  C   UNL     1       7.870  -3.582  24.879  0.00  0.00    +0.000 C 
ATOM      2  C   UNL     1       7.043  -2.627  24.294  0.00  0.00    +0.000 C 
ATOM      3  C   UNL     1       7.293  -0.997  24.373  0.00  0.00    +0.000 C 
ATOM      4  C   UNL     1       8.509  -1.026  25.375  0.00  0.00    +0.000 C 
ATOM      5  C   UNL     1       8.492  -2.045  26.484  0.00  0.00    +0.000 C 
ATOM      6  C   UNL     1       8.617  -3.534  26.225  0.00  0.00    +0.000 C 
ATOM      7  F   UNL     1       7.782  -4.147  27.079  0.00  0.00    +0.000 F 
ENDROOT
BRANCH   2   8
ATOM      8  N   UNL     1       5.660  -2.799  24.166  0.00  0.00    +0.000 N 
ATOM      9  C   UNL     1       5.256  -3.258  22.781  0.00  0.00    +0.000 C 
ATOM     10  C   UNL     1       5.634  -4.744  22.788  0.00  0.00    +0.000 C 
ATOM     11  N   UNL     1       4.984  -5.453  23.788  0.00  0.00    +0.000 NA
ATOM     12  C   UNL     1       4.812  -4.916  25.021  0.00  0.00    +0.000 C 
ATOM     13  C   UNL     1       4.844  -3.430  25.191  0.00  0.00    +0.000 C 
BRANCH  11  14
ATOM     14  C   UNL     1       3.874  -6.179  23.284  0.00  0.00    +0.000 C 
ATOM     15  O   UNL     1       2.833  -5.301  22.933  0.00  0.00    +0.000 OA
ATOM     16  C   UNL     1       3.340  -7.161  24.305  0.00  0.00    +0.000 C 
ENDBRANCH  11  14
ENDBRANCH   2   8
BRANCH   1  18
ATOM     17  N   UNL     1       8.874  -5.335  24.652  0.00  0.00    +0.000 NA
ATOM     18  C   UNL     1       8.706  -4.314  24.172  0.00  0.00    +0.000 C 
ENDBRANCH   1  18
BRANCH   3  19
ATOM     19  N   UNL     1       7.537  -0.479  23.207  0.00  0.00    +0.000 NA
BRANCH  19  20
ATOM     20  C   UNL     1       7.997  -1.230  22.099  0.00  0.00    +0.000 C 
ATOM     21  C   UNL     1       7.178  -0.881  20.848  0.00  0.00    +0.000 C 
ATOM     22  C   UNL     1       7.866   0.243  20.092  0.00  0.00    +0.000 C 
ATOM     23  C   UNL     1       8.299   1.329  21.073  0.00  0.00    +0.000 C 
ATOM     24  C   UNL     1       9.417   0.784  21.955  0.00  0.00    +0.000 C 
ATOM     25  C   UNL     1       9.454  -0.745  21.805  0.00  0.00    +0.000 C 
ATOM     26  O   UNL     1       7.199   1.617  21.896  0.00  0.00    +0.000 OA
ENDBRANCH  19  20
ENDBRANCH   3  19
TORSDOF 5
ENDMDL
MODEL 7
REMARK VINA RESULT:      -6.2      3.181      5.444
REMARK  Name = 
REMARK  5 active torsions:
REMARK  status: ('A' for Active; 'I' for Inactive)
REMARK    1  A    between atoms: C_2  and  C_3
REMARK    2  A    between atoms: C_4  and  N_18
REMARK    3  A    between atoms: C_5  and  N_10
REMARK    4  A    between atoms: N_10  and  C_11
REMARK    5  A    between atoms: N_21  and  C_24
REMARK                            x       y       z     vdW  Elec       q    Type
REMARK                         _______ _______ _______ _____ _____    ______ ____
ROOT
ATOM      1  C   UNL     1       7.145  -4.533  23.351  0.00  0.00    +0.000 C 
ATOM      2  C   UNL     1       6.263  -3.475  23.546  0.00  0.00    +0.000 C 
ATOM      3  C   UNL     1       4.630  -3.638  23.728  0.00  0.00    +0.000 C 
ATOM      4  C   UNL     1       4.546  -5.183  23.428  0.00  0.00    +0.000 C 
ATOM      5  C   UNL     1       5.450  -5.751  22.367  0.00  0.00    +0.000 C 
ATOM      6  C   UNL     1       6.956  -5.825  22.533  0.00  0.00    +0.000 C 
ATOM      7  F   UNL     1       7.492  -5.530  21.338  0.00  0.00    +0.000 F 
ENDROOT
BRANCH   2   8
ATOM      8  N   UNL     1       6.462  -2.209  22.985  0.00  0.00    +0.000 N 
ATOM      9  C   UNL     1       6.504  -1.110  24.027  0.00  0.00    +0.000 C 
ATOM     10  C   UNL     1       7.900  -1.271  24.639  0.00  0.00    +0.000 C 
ATOM     11  N   UNL     1       8.912  -1.143  23.698  0.00  0.00    +0.000 NA
ATOM     12  C   UNL     1       8.781  -1.681  22.461  0.00  0.00    +0.000 C 
ATOM     13  C   UNL     1       7.416  -1.959  21.916  0.00  0.00    +0.000 C 
BRANCH  11  14
ATOM     14  C   UNL     1       9.511   0.142  23.740  0.00  0.00    +0.000 C 
ATOM     15  O   UNL     1      10.186   0.407  22.534  0.00  0.00    +0.000 OA
ATOM     16  C   UNL     1      10.508   0.257  24.873  0.00  0.00    +0.000 C 
ENDBRANCH  11  14
ENDBRANCH   2   8
BRANCH   1  18
ATOM     17  N   UNL     1       9.021  -4.693  24.117  0.00  0.00    +0.000 NA
ATOM     18  C   UNL     1       7.933  -4.975  24.310  0.00  0.00    +0.000 C 
ENDBRANCH   1  18
BRANCH   3  19
ATOM     19  N   UNL     1       4.226  -3.271  24.906  0.00  0.00    +0.000 NA
BRANCH  19  20
ATOM     20  C   UNL     1       4.515  -3.990  26.091  0.00  0.00    +0.000 C 
ATOM     21  C   UNL     1       5.285  -3.099  27.076  0.00  0.00    +0.000 C 
ATOM     22  C   UNL     1       4.301  -2.402  28.001  0.00  0.00    +0.000 C 
ATOM     23  C   UNL     1       3.138  -1.846  27.185  0.00  0.00    +0.000 C 
ATOM     24  C   UNL     1       2.317  -3.007  26.634  0.00  0.00    +0.000 C 
ATOM     25  C   UNL     1       3.142  -4.296  26.774  0.00  0.00    +0.000 C 
ATOM     26  O   UNL     1       3.683  -1.146  26.097  0.00  0.00    +0.000 OA
ENDBRANCH  19  20
ENDBRANCH   3  19
TORSDOF 5
ENDMDL
MODEL 8
REMARK VINA RESULT:      -6.1      3.265      7.196
REMARK  Name = 
REMARK  5 active torsions:
REMARK  status: ('A' for Active; 'I' for Inactive)
REMARK    1  A    between atoms: C_2  and  C_3
REMARK    2  A    between atoms: C_4  and  N_18
REMARK    3  A    between atoms: C_5  and  N_10
REMARK    4  A    between atoms: N_10  and  C_11
REMARK    5  A    between atoms: N_21  and  C_24
REMARK                            x       y       z     vdW  Elec       q    Type
REMARK                         _______ _______ _______ _____ _____    ______ ____
ROOT
ATOM      1  C   UNL     1       5.469  -4.692  23.936  0.00  0.00    +0.000 C 
ATOM      2  C   UNL     1       6.660  -4.174  24.436  0.00  0.00    +0.000 C 
ATOM      3  C   UNL     1       7.997  -3.851  23.522  0.00  0.00    +0.000 C 
ATOM      4  C   UNL     1       7.474  -4.470  22.170  0.00  0.00    +0.000 C 
ATOM      5  C   UNL     1       6.643  -5.723  22.238  0.00  0.00    +0.000 C 
ATOM      6  C   UNL     1       5.249  -5.746  22.834  0.00  0.00    +0.000 C 
ATOM      7  F   UNL     1       5.136  -6.900  23.511  0.00  0.00    +0.000 F 
ENDROOT
BRANCH   2   8
ATOM      8  N   UNL     1       7.133  -4.463  25.720  0.00  0.00    +0.000 N 
ATOM      9  C   UNL     1       7.014  -3.285  26.664  0.00  0.00    +0.000 C 
ATOM     10  C   UNL     1       5.520  -3.271  27.008  0.00  0.00    +0.000 C 
ATOM     11  N   UNL     1       5.097  -4.457  27.591  0.00  0.00    +0.000 NA
ATOM     12  C   UNL     1       5.554  -5.652  27.143  0.00  0.00    +0.000 C 
ATOM     13  C   UNL     1       6.851  -5.717  26.402  0.00  0.00    +0.000 C 
BRANCH  11  14
ATOM     14  C   UNL     1       4.983  -4.341  29.000  0.00  0.00    +0.000 C 
ATOM     15  O   UNL     1       5.876  -5.223  29.638  0.00  0.00    +0.000 OA
ATOM     16  C   UNL     1       3.582  -4.662  29.476  0.00  0.00    +0.000 C 
ENDBRANCH  11  14
ENDBRANCH   2   8
BRANCH   1  18
ATOM     17  N   UNL     1       3.483  -4.412  24.269  0.00  0.00    +0.000 NA
ATOM     18  C   UNL     1       4.396  -3.947  23.767  0.00  0.00    +0.000 C 
ENDBRANCH   1  18
BRANCH   3  19
ATOM     19  N   UNL     1       8.277  -2.583  23.489  0.00  0.00    +0.000 NA
BRANCH  19  20
ATOM     20  C   UNL     1       9.580  -2.065  23.683  0.00  0.00    +0.000 C 
ATOM     21  C   UNL     1      10.149  -1.554  22.351  0.00  0.00    +0.000 C 
ATOM     22  C   UNL     1       9.823  -0.077  22.198  0.00  0.00    +0.000 C 
ATOM     23  C   UNL     1       8.363   0.166  22.572  0.00  0.00    +0.000 C 
ATOM     24  C   UNL     1       8.189  -0.063  24.069  0.00  0.00    +0.000 C 
ATOM     25  C   UNL     1       9.429  -0.804  24.596  0.00  0.00    +0.000 C 
ATOM     26  O   UNL     1       7.590  -0.791  21.895  0.00  0.00    +0.000 OA
ENDBRANCH  19  20
ENDBRANCH   3  19
TORSDOF 5
ENDMDL
MODEL 9
REMARK VINA RESULT:      -6.1      2.580      4.713
REMARK  Name = 
REMARK  5 active torsions:
REMARK  status: ('A' for Active; 'I' for Inactive)
REMARK    1  A    between atoms: C_2  and  C_3
REMARK    2  A    between atoms: C_4  and  N_18
REMARK    3  A    between atoms: C_5  and  N_10
REMARK    4  A    between atoms: N_10  and  C_11
REMARK    5  A    between atoms: N_21  and  C_24
REMARK                            x       y       z     vdW  Elec       q    Type
REMARK                         _______ _______ _______ _____ _____    ______ ____
ROOT
ATOM      1  C   UNL     1       9.309   0.979  23.470  0.00  0.00    +0.000 C 
ATOM      2  C   UNL     1       8.259   0.133  23.815  0.00  0.00    +0.000 C 
ATOM      3  C   UNL     1       7.992  -1.351  23.141  0.00  0.00    +0.000 C 
ATOM      4  C   UNL     1       9.107  -1.273  22.030  0.00  0.00    +0.000 C 
ATOM      5  C   UNL     1       9.347   0.052  21.357  0.00  0.00    +0.000 C 
ATOM      6  C   UNL     1       9.937   1.243  22.088  0.00  0.00    +0.000 C 
ATOM      7  F   UNL     1       9.288   2.331  21.642  0.00  0.00    +0.000 F 
ENDROOT
BRANCH   2   8
ATOM      8  N   UNL     1       7.004   0.606  24.214  0.00  0.00    +0.000 N 
ATOM      9  C   UNL     1       6.564   0.036  25.546  0.00  0.00    +0.000 C 
ATOM     10  C   UNL     1       7.399   0.835  26.553  0.00  0.00    +0.000 C 
ATOM     11  N   UNL     1       7.175   2.202  26.465  0.00  0.00    +0.000 NA
ATOM     12  C   UNL     1       7.029   2.805  25.260  0.00  0.00    +0.000 C 
ATOM     13  C   UNL     1       6.603   1.997  24.075  0.00  0.00    +0.000 C 
BRANCH  11  14
ATOM     14  C   UNL     1       6.297   2.659  27.481  0.00  0.00    +0.000 C 
ATOM     15  O   UNL     1       5.813   3.943  27.169  0.00  0.00    +0.000 OA
ATOM     16  C   UNL     1       6.988   2.730  28.826  0.00  0.00    +0.000 C 
ENDBRANCH  11  14
ENDBRANCH   2   8
BRANCH   1  18
ATOM     17  N   UNL     1      10.506   0.252  24.943  0.00  0.00    +0.000 NA
ATOM     18  C   UNL     1      10.364   1.140  24.242  0.00  0.00    +0.000 C 
ENDBRANCH   1  18
BRANCH   3  19
ATOM     19  N   UNL     1       8.124  -2.314  24.003  0.00  0.00    +0.000 NA
BRANCH  19  20
ATOM     20  C   UNL     1       7.185  -3.361  24.155  0.00  0.00    +0.000 C 
ATOM     21  C   UNL     1       7.702  -4.638  23.476  0.00  0.00    +0.000 C 
ATOM     22  C   UNL     1       8.467  -5.473  24.489  0.00  0.00    +0.000 C 
ATOM     23  C   UNL     1       9.406  -4.575  25.289  0.00  0.00    +0.000 C 
ATOM     24  C   UNL     1       8.576  -3.650  26.173  0.00  0.00    +0.000 C 
ATOM     25  C   UNL     1       7.120  -3.686  25.683  0.00  0.00    +0.000 C 
ATOM     26  O   UNL     1      10.111  -3.779  24.371  0.00  0.00    +0.000 OA
ENDBRANCH  19  20
ENDBRANCH   3  19
TORSDOF 5
ENDMDL
