MODEL 1
REMARK VINA RESULT:      -6.7      0.000      0.000
REMARK  Name = 
REMARK  4 active torsions:
REMARK  status: ('A' for Active; 'I' for Inactive)
REMARK    1  A    between atoms: N_8  and  C_11
REMARK    2  A    between atoms: C_11  and  N_12
REMARK    3  A    between atoms: N_15  and  C_18
REMARK    4  A    between atoms: C_18  and  N_19
REMARK                            x       y       z     vdW  Elec       q    Type
REMARK                         _______ _______ _______ _____ _____    ______ ____
ROOT
ATOM      1  N   UNL     1       8.656  -2.919  25.108  0.00  0.00    +0.000 NA
ATOM      2  C   UNL     1       9.280  -4.087  24.556  0.00  0.00    +0.000 C 
ATOM      3  C   UNL     1       8.437  -5.308  24.803  0.00  0.00    +0.000 C 
ATOM      4  N   UNL     1       7.533  -5.206  25.836  0.00  0.00    +0.000 NA
ATOM      5  C   UNL     1       7.806  -4.354  26.876  0.00  0.00    +0.000 C 
ATOM      6  C   UNL     1       8.562  -3.102  26.527  0.00  0.00    +0.000 C 
ENDROOT
BRANCH   1   7
ATOM      7  C   UNL     1       7.310  -2.848  24.584  0.00  0.00    +0.000 C 
BRANCH   7  15
ATOM      8  C   UNL     1       5.210   0.753  18.640  0.00  0.00    +0.000 C 
ATOM      9  N   UNL     1       5.699  -0.335  19.450  0.00  0.00    +0.000 NA
ATOM     10  C   UNL     1       7.001  -0.413  19.788  0.00  0.00    +0.000 C 
ATOM     11  O   UNL     1       7.812   0.406  19.461  0.00  0.00    +0.000 OA
ATOM     12  N   UNL     1       7.049  -0.992  21.041  0.00  0.00    +0.000 N 
ATOM     13  C   UNL     1       7.194  -0.075  22.161  0.00  0.00    +0.000 C 
ATOM     14  C   UNL     1       7.516  -0.817  23.437  0.00  0.00    +0.000 C 
ATOM     15  N   UNL     1       7.320  -2.211  23.297  0.00  0.00    +0.000 NA
ATOM     16  C   UNL     1       6.026  -2.437  22.691  0.00  0.00    +0.000 C 
ATOM     17  C   UNL     1       6.153  -2.151  21.199  0.00  0.00    +0.000 C 
ENDBRANCH   7  15
ENDBRANCH   1   7
BRANCH   4  18
ATOM     18  C   UNL     1       6.185  -5.261  25.447  0.00  0.00    +0.000 C 
BRANCH  18  19
ATOM     19  N   UNL     1       5.262  -5.027  26.502  0.00  0.00    +0.000 NA
ATOM     20  C   UNL     1       4.241  -4.140  26.110  0.00  0.00    +0.000 C 
ATOM     21  C   UNL     1       3.450  -4.693  24.925  0.00  0.00    +0.000 C 
ATOM     22  N   UNL     1       3.145  -6.093  25.215  0.00  0.00    +0.000 N 
ATOM     23  C   UNL     1       3.367  -6.572  26.567  0.00  0.00    +0.000 C 
ATOM     24  C   UNL     1       4.767  -6.236  27.023  0.00  0.00    +0.000 C 
ATOM     25  C   UNL     1       3.042  -6.970  24.198  0.00  0.00    +0.000 C 
ATOM     26  O   UNL     1       3.315  -8.143  24.349  0.00  0.00    +0.000 OA
ATOM     27  C   UNL     1       2.264  -6.492  22.988  0.00  0.00    +0.000 C 
ENDBRANCH  18  19
ENDBRANCH   4  18
TORSDOF 4
ENDMDL
MODEL 2
REMARK VINA RESULT:      -6.7      2.292      7.257
REMARK  Name = 
REMARK  4 active torsions:
REMARK  status: ('A' for Active; 'I' for Inactive)
REMARK    1  A    between atoms: N_8  and  C_11
REMARK    2  A    between atoms: C_11  and  N_12
REMARK    3  A    between atoms: N_15  and  C_18
REMARK    4  A    between atoms: C_18  and  N_19
REMARK                            x       y       z     vdW  Elec       q    Type
REMARK                         _______ _______ _______ _____ _____    ______ ____
ROOT
ATOM      1  N   UNL     1       8.287  -3.295  24.934  0.00  0.00    +0.000 NA
ATOM      2  C   UNL     1       8.209  -2.026  25.598  0.00  0.00    +0.000 C 
ATOM      3  C   UNL     1       8.497  -0.904  24.636  0.00  0.00    +0.000 C 
ATOM      4  N   UNL     1       9.194  -1.258  23.504  0.00  0.00    +0.000 NA
ATOM      5  C   UNL     1      10.043  -2.335  23.556  0.00  0.00    +0.000 C 
ATOM      6  C   UNL     1       9.631  -3.461  24.461  0.00  0.00    +0.000 C 
ENDROOT
BRANCH   1   7
ATOM      7  C   UNL     1       7.419  -3.244  23.779  0.00  0.00    +0.000 C 
BRANCH   7  15
ATOM      8  C   UNL     1       1.455  -7.192  22.527  0.00  0.00    +0.000 C 
ATOM      9  N   UNL     1       2.335  -6.255  23.181  0.00  0.00    +0.000 NA
ATOM     10  C   UNL     1       3.277  -6.680  24.045  0.00  0.00    +0.000 C 
ATOM     11  O   UNL     1       3.453  -7.837  24.305  0.00  0.00    +0.000 OA
ATOM     12  N   UNL     1       4.345  -5.815  23.920  0.00  0.00    +0.000 N 
ATOM     13  C   UNL     1       5.439  -6.272  23.076  0.00  0.00    +0.000 C 
ATOM     14  C   UNL     1       6.656  -5.391  23.234  0.00  0.00    +0.000 C 
ATOM     15  N   UNL     1       6.353  -4.195  23.928  0.00  0.00    +0.000 NA
ATOM     16  C   UNL     1       5.166  -3.611  23.344  0.00  0.00    +0.000 C 
ATOM     17  C   UNL     1       3.961  -4.394  23.855  0.00  0.00    +0.000 C 
ENDBRANCH   7  15
ENDBRANCH   1   7
BRANCH   4  18
ATOM     18  C   UNL     1       8.481  -1.117  22.303  0.00  0.00    +0.000 C 
BRANCH  18  19
ATOM     19  N   UNL     1       9.108  -0.276  21.344  0.00  0.00    +0.000 NA
ATOM     20  C   UNL     1       8.182   0.224  20.409  0.00  0.00    +0.000 C 
ATOM     21  C   UNL     1       7.090   1.046  21.094  0.00  0.00    +0.000 C 
ATOM     22  N   UNL     1       7.747   1.946  22.040  0.00  0.00    +0.000 N 
ATOM     23  C   UNL     1       9.188   2.091  21.955  0.00  0.00    +0.000 C 
ATOM     24  C   UNL     1       9.857   0.737  21.969  0.00  0.00    +0.000 C 
ATOM     25  C   UNL     1       7.100   2.305  23.166  0.00  0.00    +0.000 C 
ATOM     26  O   UNL     1       7.707   2.573  24.183  0.00  0.00    +0.000 OA
ATOM     27  C   UNL     1       5.640   2.675  23.001  0.00  0.00    +0.000 C 
ENDBRANCH  18  19
ENDBRANCH   4  18
TORSDOF 4
ENDMDL
MODEL 3
REMARK VINA RESULT:      -6.6      1.860      6.885
REMARK  Name = 
REMARK  4 active torsions:
REMARK  status: ('A' for Active; 'I' for Inactive)
REMARK    1  A    between atoms: N_8  and  C_11
REMARK    2  A    between atoms: C_11  and  N_12
REMARK    3  A    between atoms: N_15  and  C_18
REMARK    4  A    between atoms: C_18  and  N_19
REMARK                            x       y       z     vdW  Elec       q    Type
REMARK                         _______ _______ _______ _____ _____    ______ ____
ROOT
ATOM      1  N   UNL     1       8.350  -3.545  25.100  0.00  0.00    +0.000 NA
ATOM      2  C   UNL     1       8.379  -2.653  26.223  0.00  0.00    +0.000 C 
ATOM      3  C   UNL     1       8.448  -1.221  25.763  0.00  0.00    +0.000 C 
ATOM      4  N   UNL     1       8.916  -1.032  24.483  0.00  0.00    +0.000 NA
ATOM      5  C   UNL     1       9.780  -1.953  23.948  0.00  0.00    +0.000 C 
ATOM      6  C   UNL     1       9.578  -3.380  24.377  0.00  0.00    +0.000 C 
ENDROOT
BRANCH   1   7
ATOM      7  C   UNL     1       7.270  -3.130  24.233  0.00  0.00    +0.000 C 
BRANCH   7  15
ATOM      8  C   UNL     1       1.459  -7.095  22.437  0.00  0.00    +0.000 C 
ATOM      9  N   UNL     1       2.281  -6.176  23.185  0.00  0.00    +0.000 NA
ATOM     10  C   UNL     1       3.173  -6.627  24.089  0.00  0.00    +0.000 C 
ATOM     11  O   UNL     1       3.351  -7.791  24.309  0.00  0.00    +0.000 OA
ATOM     12  N   UNL     1       4.234  -5.743  24.068  0.00  0.00    +0.000 N 
ATOM     13  C   UNL     1       5.386  -6.149  23.277  0.00  0.00    +0.000 C 
ATOM     14  C   UNL     1       6.577  -5.260  23.549  0.00  0.00    +0.000 C 
ATOM     15  N   UNL     1       6.212  -4.100  24.273  0.00  0.00    +0.000 NA
ATOM     16  C   UNL     1       5.055  -3.507  23.640  0.00  0.00    +0.000 C 
ATOM     17  C   UNL     1       3.833  -4.326  24.040  0.00  0.00    +0.000 C 
ENDBRANCH   7  15
ENDBRANCH   1   7
BRANCH   4  18
ATOM     18  C   UNL     1       7.977  -0.502  23.584  0.00  0.00    +0.000 C 
BRANCH  18  19
ATOM     19  N   UNL     1       7.919   0.918  23.567  0.00  0.00    +0.000 NA
ATOM     20  C   UNL     1       8.931   1.469  22.758  0.00  0.00    +0.000 C 
ATOM     21  C   UNL     1       8.808   0.989  21.312  0.00  0.00    +0.000 C 
ATOM     22  N   UNL     1       7.404   1.112  20.927  0.00  0.00    +0.000 N 
ATOM     23  C   UNL     1       6.522   1.866  21.798  0.00  0.00    +0.000 C 
ATOM     24  C   UNL     1       6.633   1.372  23.220  0.00  0.00    +0.000 C 
ATOM     25  C   UNL     1       6.888   0.247  20.032  0.00  0.00    +0.000 C 
ATOM     26  O   UNL     1       5.713  -0.060  20.058  0.00  0.00    +0.000 OA
ATOM     27  C   UNL     1       7.751  -0.047  18.822  0.00  0.00    +0.000 C 
ENDBRANCH  18  19
ENDBRANCH   4  18
TORSDOF 4
ENDMDL
MODEL 4
REMARK VINA RESULT:      -6.2      3.289      7.296
REMARK  Name = 
REMARK  4 active torsions:
REMARK  status: ('A' for Active; 'I' for Inactive)
REMARK    1  A    between atoms: N_8  and  C_11
REMARK    2  A    between atoms: C_11  and  N_12
REMARK    3  A    between atoms: N_15  and  C_18
REMARK    4  A    between atoms: C_18  and  N_19
REMARK                            x       y       z     vdW  Elec       q    Type
REMARK                         _______ _______ _______ _____ _____    ______ ____
ROOT
ATOM      1  N   UNL     1       9.292  -1.730  22.272  0.00  0.00    +0.000 NA
ATOM      2  C   UNL     1      10.493  -1.347  22.956  0.00  0.00    +0.000 C 
ATOM      3  C   UNL     1      10.380   0.060  23.481  0.00  0.00    +0.000 C 
ATOM      4  N   UNL     1       9.434   0.847  22.867  0.00  0.00    +0.000 NA
ATOM      5  C   UNL     1       9.096   0.586  21.564  0.00  0.00    +0.000 C 
ATOM      6  C   UNL     1       9.131  -0.857  21.145  0.00  0.00    +0.000 C 
ENDROOT
BRANCH   1   7
ATOM      7  C   UNL     1       8.180  -1.500  23.168  0.00  0.00    +0.000 C 
BRANCH   7  15
ATOM      8  C   UNL     1       3.998  -7.202  24.818  0.00  0.00    +0.000 C 
ATOM      9  N   UNL     1       5.030  -6.435  24.165  0.00  0.00    +0.000 NA
ATOM     10  C   UNL     1       4.742  -5.649  23.109  0.00  0.00    +0.000 C 
ATOM     11  O   UNL     1       3.635  -5.524  22.669  0.00  0.00    +0.000 OA
ATOM     12  N   UNL     1       5.601  -4.569  23.177  0.00  0.00    +0.000 N 
ATOM     13  C   UNL     1       5.052  -3.356  23.761  0.00  0.00    +0.000 C 
ATOM     14  C   UNL     1       5.967  -2.175  23.530  0.00  0.00    +0.000 C 
ATOM     15  N   UNL     1       7.240  -2.581  23.065  0.00  0.00    +0.000 NA
ATOM     16  C   UNL     1       7.719  -3.654  23.907  0.00  0.00    +0.000 C 
ATOM     17  C   UNL     1       6.993  -4.931  23.497  0.00  0.00    +0.000 C 
ENDBRANCH   7  15
ENDBRANCH   1   7
BRANCH   4  18
ATOM     18  C   UNL     1       8.369   1.242  23.693  0.00  0.00    +0.000 C 
BRANCH  18  19
ATOM     19  N   UNL     1       8.597   2.449  24.407  0.00  0.00    +0.000 NA
ATOM     20  C   UNL     1       8.512   3.573  23.564  0.00  0.00    +0.000 C 
ATOM     21  C   UNL     1       7.131   3.678  22.917  0.00  0.00    +0.000 C 
ATOM     22  N   UNL     1       6.137   3.463  23.966  0.00  0.00    +0.000 N 
ATOM     23  C   UNL     1       6.588   3.479  25.346  0.00  0.00    +0.000 C 
ATOM     24  C   UNL     1       7.757   2.543  25.531  0.00  0.00    +0.000 C 
ATOM     25  C   UNL     1       4.958   2.892  23.651  0.00  0.00    +0.000 C 
ATOM     26  O   UNL     1       4.344   2.226  24.459  0.00  0.00    +0.000 OA
ATOM     27  C   UNL     1       4.297   3.396  22.384  0.00  0.00    +0.000 C 
ENDBRANCH  18  19
ENDBRANCH   4  18
TORSDOF 4
ENDMDL
MODEL 5
REMARK VINA RESULT:      -6.2      3.230      8.394
REMARK  Name = 
REMARK  4 active torsions:
REMARK  status: ('A' for Active; 'I' for Inactive)
REMARK    1  A    between atoms: N_8  and  C_11
REMARK    2  A    between atoms: C_11  and  N_12
REMARK    3  A    between atoms: N_15  and  C_18
REMARK    4  A    between atoms: C_18  and  N_19
REMARK                            x       y       z     vdW  Elec       q    Type
REMARK                         _______ _______ _______ _____ _____    ______ ____
ROOT
ATOM      1  N   UNL     1       9.643  -1.430  23.388  0.00  0.00    +0.000 NA
ATOM      2  C   UNL     1      10.454  -0.264  23.583  0.00  0.00    +0.000 C 
ATOM      3  C   UNL     1       9.690   0.982  23.223  0.00  0.00    +0.000 C 
ATOM      4  N   UNL     1       8.614   0.796  22.387  0.00  0.00    +0.000 NA
ATOM      5  C   UNL     1       8.623  -0.264  21.516  0.00  0.00    +0.000 C 
ATOM      6  C   UNL     1       9.317  -1.509  21.993  0.00  0.00    +0.000 C 
ENDROOT
BRANCH   1   7
ATOM      7  C   UNL     1       8.409  -1.238  24.117  0.00  0.00    +0.000 C 
BRANCH   7  15
ATOM      8  C   UNL     1       6.258  -6.276  28.883  0.00  0.00    +0.000 C 
ATOM      9  N   UNL     1       7.084  -5.622  27.899  0.00  0.00    +0.000 NA
ATOM     10  C   UNL     1       6.833  -5.763  26.583  0.00  0.00    +0.000 C 
ATOM     11  O   UNL     1       5.917  -6.408  26.156  0.00  0.00    +0.000 OA
ATOM     12  N   UNL     1       7.196  -4.573  25.983  0.00  0.00    +0.000 N 
ATOM     13  C   UNL     1       6.114  -3.639  25.713  0.00  0.00    +0.000 C 
ATOM     14  C   UNL     1       6.573  -2.514  24.815  0.00  0.00    +0.000 C 
ATOM     15  N   UNL     1       7.983  -2.484  24.690  0.00  0.00    +0.000 NA
ATOM     16  C   UNL     1       8.565  -2.577  26.010  0.00  0.00    +0.000 C 
ATOM     17  C   UNL     1       8.483  -4.033  26.456  0.00  0.00    +0.000 C 
ENDBRANCH   7  15
ENDBRANCH   1   7
BRANCH   4  18
ATOM     18  C   UNL     1       7.365   1.085  22.960  0.00  0.00    +0.000 C 
BRANCH  18  19
ATOM     19  N   UNL     1       6.589   2.025  22.229  0.00  0.00    +0.000 NA
ATOM     20  C   UNL     1       5.546   2.556  23.012  0.00  0.00    +0.000 C 
ATOM     21  C   UNL     1       6.090   3.274  24.247  0.00  0.00    +0.000 C 
ATOM     22  N   UNL     1       7.195   4.125  23.810  0.00  0.00    +0.000 N 
ATOM     23  C   UNL     1       7.368   4.338  22.385  0.00  0.00    +0.000 C 
ATOM     24  C   UNL     1       7.401   3.018  21.653  0.00  0.00    +0.000 C 
ATOM     25  C   UNL     1       8.216   4.366  24.655  0.00  0.00    +0.000 C 
ATOM     26  O   UNL     1       9.337   4.580  24.243  0.00  0.00    +0.000 OA
ATOM     27  C   UNL     1       7.829   4.685  26.085  0.00  0.00    +0.000 C 
ENDBRANCH  18  19
ENDBRANCH   4  18
TORSDOF 4
ENDMDL
MODEL 6
REMARK VINA RESULT:      -6.2      3.790      7.772
REMARK  Name = 
REMARK  4 active torsions:
REMARK  status: ('A' for Active; 'I' for Inactive)
REMARK    1  A    between atoms: N_8  and  C_11
REMARK    2  A    between atoms: C_11  and  N_12
REMARK    3  A    between atoms: N_15  and  C_18
REMARK    4  A    between atoms: C_18  and  N_19
REMARK                            x       y       z     vdW  Elec       q    Type
REMARK                         _______ _______ _______ _____ _____    ______ ____
ROOT
ATOM      1  N   UNL     1      10.100  -0.298  23.688  0.00  0.00    +0.000 NA
ATOM      2  C   UNL     1      10.756   0.775  24.378  0.00  0.00    +0.000 C 
ATOM      3  C   UNL     1      10.074   2.086  24.093  0.00  0.00    +0.000 C 
ATOM      4  N   UNL     1       9.310   2.121  22.951  0.00  0.00    +0.000 NA
ATOM      5  C   UNL     1       9.634   1.291  21.908  0.00  0.00    +0.000 C 
ATOM      6  C   UNL     1      10.213  -0.046  22.280  0.00  0.00    +0.000 C 
ENDROOT
BRANCH   1   7
ATOM      7  C   UNL     1       8.696  -0.252  24.031  0.00  0.00    +0.000 C 
BRANCH   7  15
ATOM      8  C   UNL     1       4.858  -6.414  23.894  0.00  0.00    +0.000 C 
ATOM      9  N   UNL     1       5.991  -5.532  23.761  0.00  0.00    +0.000 NA
ATOM     10  C   UNL     1       6.173  -4.805  22.641  0.00  0.00    +0.000 C 
ATOM     11  O   UNL     1       5.413  -4.829  21.715  0.00  0.00    +0.000 OA
ATOM     12  N   UNL     1       6.772  -3.624  23.031  0.00  0.00    +0.000 N 
ATOM     13  C   UNL     1       5.886  -2.481  23.187  0.00  0.00    +0.000 C 
ATOM     14  C   UNL     1       6.670  -1.198  23.336  0.00  0.00    +0.000 C 
ATOM     15  N   UNL     1       8.043  -1.445  23.571  0.00  0.00    +0.000 NA
ATOM     16  C   UNL     1       8.161  -2.435  24.618  0.00  0.00    +0.000 C 
ATOM     17  C   UNL     1       7.863  -3.800  24.007  0.00  0.00    +0.000 C 
ENDBRANCH   7  15
ENDBRANCH   1   7
BRANCH   4  18
ATOM     18  C   UNL     1       7.933   2.298  23.167  0.00  0.00    +0.000 C 
BRANCH  18  19
ATOM     19  N   UNL     1       7.263   3.001  22.130  0.00  0.00    +0.000 NA
ATOM     20  C   UNL     1       5.925   2.582  22.000  0.00  0.00    +0.000 C 
ATOM     21  C   UNL     1       5.143   2.817  23.292  0.00  0.00    +0.000 C 
ATOM     22  N   UNL     1       5.454   4.168  23.754  0.00  0.00    +0.000 N 
ATOM     23  C   UNL     1       6.148   5.058  22.841  0.00  0.00    +0.000 C 
ATOM     24  C   UNL     1       7.388   4.393  22.295  0.00  0.00    +0.000 C 
ATOM     25  C   UNL     1       5.449   4.430  25.076  0.00  0.00    +0.000 C 
ATOM     26  O   UNL     1       6.165   5.289  25.550  0.00  0.00    +0.000 OA
ATOM     27  C   UNL     1       4.291   3.850  25.862  0.00  0.00    +0.000 C 
ENDBRANCH  18  19
ENDBRANCH   4  18
TORSDOF 4
ENDMDL
MODEL 7
REMARK VINA RESULT:      -6.0      3.716      7.747
REMARK  Name = 
REMARK  4 active torsions:
REMARK  status: ('A' for Active; 'I' for Inactive)
REMARK    1  A    between atoms: N_8  and  C_11
REMARK    2  A    between atoms: C_11  and  N_12
REMARK    3  A    between atoms: N_15  and  C_18
REMARK    4  A    between atoms: C_18  and  N_19
REMARK                            x       y       z     vdW  Elec       q    Type
REMARK                         _______ _______ _______ _____ _____    ______ ____
ROOT
ATOM      1  N   UNL     1       9.924  -0.669  23.223  0.00  0.00    +0.000 NA
ATOM      2  C   UNL     1      10.835   0.079  24.041  0.00  0.00    +0.000 C 
ATOM      3  C   UNL     1      10.374   1.504  24.184  0.00  0.00    +0.000 C 
ATOM      4  N   UNL     1       9.506   1.947  23.213  0.00  0.00    +0.000 NA
ATOM      5  C   UNL     1       9.557   1.379  21.966  0.00  0.00    +0.000 C 
ATOM      6  C   UNL     1       9.923  -0.079  21.916  0.00  0.00    +0.000 C 
ENDROOT
BRANCH   1   7
ATOM      7  C   UNL     1       8.598  -0.509  23.778  0.00  0.00    +0.000 C 
BRANCH   7  15
ATOM      8  C   UNL     1       5.205  -6.501  26.080  0.00  0.00    +0.000 C 
ATOM      9  N   UNL     1       5.716  -5.153  26.101  0.00  0.00    +0.000 NA
ATOM     10  C   UNL     1       6.993  -4.903  26.451  0.00  0.00    +0.000 C 
ATOM     11  O   UNL     1       7.772  -5.766  26.741  0.00  0.00    +0.000 OA
ATOM     12  N   UNL     1       7.395  -3.807  25.715  0.00  0.00    +0.000 N 
ATOM     13  C   UNL     1       8.168  -4.094  24.516  0.00  0.00    +0.000 C 
ATOM     14  C   UNL     1       8.788  -2.837  23.951  0.00  0.00    +0.000 C 
ATOM     15  N   UNL     1       8.247  -1.672  24.544  0.00  0.00    +0.000 NA
ATOM     16  C   UNL     1       6.804  -1.777  24.535  0.00  0.00    +0.000 C 
ATOM     17  C   UNL     1       6.398  -2.723  25.660  0.00  0.00    +0.000 C 
ENDBRANCH   7  15
ENDBRANCH   1   7
BRANCH   4  18
ATOM     18  C   UNL     1       8.217   2.261  23.673  0.00  0.00    +0.000 C 
BRANCH  18  19
ATOM     19  N   UNL     1       8.145   3.449  24.450  0.00  0.00    +0.000 NA
ATOM     20  C   UNL     1       7.738   4.552  23.675  0.00  0.00    +0.000 C 
ATOM     21  C   UNL     1       6.356   4.320  23.065  0.00  0.00    +0.000 C 
ATOM     22  N   UNL     1       5.491   3.798  24.121  0.00  0.00    +0.000 N 
ATOM     23  C   UNL     1       5.971   3.864  25.489  0.00  0.00    +0.000 C 
ATOM     24  C   UNL     1       7.351   3.261  25.596  0.00  0.00    +0.000 C 
ATOM     25  C   UNL     1       4.493   2.953  23.798  0.00  0.00    +0.000 C 
ATOM     26  O   UNL     1       4.105   2.109  24.580  0.00  0.00    +0.000 OA
ATOM     27  C   UNL     1       3.678   3.328  22.577  0.00  0.00    +0.000 C 
ENDBRANCH  18  19
ENDBRANCH   4  18
TORSDOF 4
ENDMDL
MODEL 8
REMARK VINA RESULT:      -6.0      1.990      2.167
REMARK  Name = 
REMARK  4 active torsions:
REMARK  status: ('A' for Active; 'I' for Inactive)
REMARK    1  A    between atoms: N_8  and  C_11
REMARK    2  A    between atoms: C_11  and  N_12
REMARK    3  A    between atoms: N_15  and  C_18
REMARK    4  A    between atoms: C_18  and  N_19
REMARK                            x       y       z     vdW  Elec       q    Type
REMARK                         _______ _______ _______ _____ _____    ______ ____
ROOT
ATOM      1  N   UNL     1       9.045  -3.877  25.094  0.00  0.00    +0.000 NA
ATOM      2  C   UNL     1       8.393  -4.712  24.128  0.00  0.00    +0.000 C 
ATOM      3  C   UNL     1       7.045  -5.156  24.631  0.00  0.00    +0.000 C 
ATOM      4  N   UNL     1       6.874  -5.099  25.995  0.00  0.00    +0.000 NA
ATOM      5  C   UNL     1       7.972  -5.223  26.809  0.00  0.00    +0.000 C 
ATOM      6  C   UNL     1       9.260  -4.659  26.277  0.00  0.00    +0.000 C 
ENDROOT
BRANCH   1   7
ATOM      7  C   UNL     1       8.137  -2.804  25.436  0.00  0.00    +0.000 C 
BRANCH   7  15
ATOM      8  C   UNL     1       7.432   3.633  22.151  0.00  0.00    +0.000 C 
ATOM      9  N   UNL     1       7.438   2.200  22.315  0.00  0.00    +0.000 NA
ATOM     10  C   UNL     1       8.586   1.501  22.226  0.00  0.00    +0.000 C 
ATOM     11  O   UNL     1       9.652   2.013  22.030  0.00  0.00    +0.000 OA
ATOM     12  N   UNL     1       8.466   0.435  23.095  0.00  0.00    +0.000 N 
ATOM     13  C   UNL     1       9.098   0.598  24.395  0.00  0.00    +0.000 C 
ATOM     14  C   UNL     1       9.149  -0.711  25.147  0.00  0.00    +0.000 C 
ATOM     15  N   UNL     1       8.333  -1.697  24.542  0.00  0.00    +0.000 NA
ATOM     16  C   UNL     1       7.034  -1.120  24.276  0.00  0.00    +0.000 C 
ATOM     17  C   UNL     1       7.159  -0.242  23.035  0.00  0.00    +0.000 C 
ENDBRANCH   7  15
ENDBRANCH   1   7
BRANCH   4  18
ATOM     18  C   UNL     1       5.910  -4.175  26.430  0.00  0.00    +0.000 C 
BRANCH  18  19
ATOM     19  N   UNL     1       5.014  -4.682  27.410  0.00  0.00    +0.000 NA
ATOM     20  C   UNL     1       3.712  -4.176  27.232  0.00  0.00    +0.000 C 
ATOM     21  C   UNL     1       3.152  -4.555  25.861  0.00  0.00    +0.000 C 
ATOM     22  N   UNL     1       3.431  -5.973  25.649  0.00  0.00    +0.000 N 
ATOM     23  C   UNL     1       3.880  -6.756  26.786  0.00  0.00    +0.000 C 
ATOM     24  C   UNL     1       5.054  -6.087  27.458  0.00  0.00    +0.000 C 
ATOM     25  C   UNL     1       3.638  -6.425  24.397  0.00  0.00    +0.000 C 
ATOM     26  O   UNL     1       4.355  -7.381  24.183  0.00  0.00    +0.000 OA
ATOM     27  C   UNL     1       2.686  -5.904  23.340  0.00  0.00    +0.000 C 
ENDBRANCH  18  19
ENDBRANCH   4  18
TORSDOF 4
ENDMDL
MODEL 9
REMARK VINA RESULT:      -6.0      3.198      7.702
REMARK  Name = 
REMARK  4 active torsions:
REMARK  status: ('A' for Active; 'I' for Inactive)
REMARK    1  A    between atoms: N_8  and  C_11
REMARK    2  A    between atoms: C_11  and  N_12
REMARK    3  A    between atoms: N_15  and  C_18
REMARK    4  A    between atoms: C_18  and  N_19
REMARK                            x       y       z     vdW  Elec       q    Type
REMARK                         _______ _______ _______ _____ _____    ______ ____
ROOT
ATOM      1  N   UNL     1       9.569  -1.706  23.263  0.00  0.00    +0.000 NA
ATOM      2  C   UNL     1       9.914  -0.843  24.355  0.00  0.00    +0.000 C 
ATOM      3  C   UNL     1       9.342   0.534  24.147  0.00  0.00    +0.000 C 
ATOM      4  N   UNL     1       9.025   0.854  22.847  0.00  0.00    +0.000 NA
ATOM      5  C   UNL     1       9.716   0.249  21.826  0.00  0.00    +0.000 C 
ATOM      6  C   UNL     1      10.161  -1.165  22.073  0.00  0.00    +0.000 C 
ENDROOT
BRANCH   1   7
ATOM      7  C   UNL     1       8.133  -1.659  23.098  0.00  0.00    +0.000 C 
BRANCH   7  15
ATOM      8  C   UNL     1       3.902  -7.145  25.271  0.00  0.00    +0.000 C 
ATOM      9  N   UNL     1       4.461  -5.817  25.219  0.00  0.00    +0.000 NA
ATOM     10  C   UNL     1       5.601  -5.521  25.874  0.00  0.00    +0.000 C 
ATOM     11  O   UNL     1       6.219  -6.328  26.509  0.00  0.00    +0.000 OA
ATOM     12  N   UNL     1       6.254  -4.570  25.116  0.00  0.00    +0.000 N 
ATOM     13  C   UNL     1       7.314  -5.062  24.251  0.00  0.00    +0.000 C 
ATOM     14  C   UNL     1       8.137  -3.925  23.692  0.00  0.00    +0.000 C 
ATOM     15  N   UNL     1       7.517  -2.672  23.909  0.00  0.00    +0.000 NA
ATOM     16  C   UNL     1       6.131  -2.766  23.506  0.00  0.00    +0.000 C 
ATOM     17  C   UNL     1       5.375  -3.504  24.606  0.00  0.00    +0.000 C 
ENDBRANCH   7  15
ENDBRANCH   1   7
BRANCH   4  18
ATOM     18  C   UNL     1       7.656   1.053  22.605  0.00  0.00    +0.000 C 
BRANCH  18  19
ATOM     19  N   UNL     1       7.345   2.302  22.002  0.00  0.00    +0.000 NA
ATOM     20  C   UNL     1       5.963   2.569  22.049  0.00  0.00    +0.000 C 
ATOM     21  C   UNL     1       5.457   2.619  23.490  0.00  0.00    +0.000 C 
ATOM     22  N   UNL     1       6.396   3.434  24.258  0.00  0.00    +0.000 N 
ATOM     23  C   UNL     1       7.378   4.213  23.526  0.00  0.00    +0.000 C 
ATOM     24  C   UNL     1       8.123   3.339  22.547  0.00  0.00    +0.000 C 
ATOM     25  C   UNL     1       6.588   3.165  25.564  0.00  0.00    +0.000 C 
ATOM     26  O   UNL     1       7.649   3.398  26.106  0.00  0.00    +0.000 OA
ATOM     27  C   UNL     1       5.337   2.886  26.373  0.00  0.00    +0.000 C 
ENDBRANCH  18  19
ENDBRANCH   4  18
TORSDOF 4
ENDMDL
