MODEL 1
REMARK VINA RESULT:      -6.5      0.000      0.000
REMARK  Name = 
REMARK  7 active torsions:
REMARK  status: ('A' for Active; 'I' for Inactive)
REMARK    1  A    between atoms: C_2  and  N_3
REMARK    2  A    between atoms: N_3  and  C_4
REMARK    3  A    between atoms: C_8  and  C_9
REMARK    4  A    between atoms: C_9  and  N_10
REMARK    5  A    between atoms: C_15  and  S_16
REMARK    6  A    between atoms: C_20  and  C_22
REMARK    7  A    between atoms: C_22  and  N_23
REMARK                            x       y       z     vdW  Elec       q    Type
REMARK                         _______ _______ _______ _____ _____    ______ ____
ROOT
ATOM      1  N   UNL     1       7.337  -1.283  25.753  0.00  0.00    +0.000 NA
ATOM      2  C   UNL     1       8.582  -1.211  26.658  0.00  0.00    +0.000 C 
ATOM      3  C   UNL     1       9.672  -0.722  25.646  0.00  0.00    +0.000 C 
ATOM      4  N   UNL     1       9.673  -1.738  24.565  0.00  0.00    +0.000 N 
ATOM      5  C   UNL     1       8.895  -2.972  24.964  0.00  0.00    +0.000 C 
ATOM      6  C   UNL     1       7.487  -2.452  25.086  0.00  0.00    +0.000 C 
ATOM      7  C   UNL     1       9.329  -1.286  23.298  0.00  0.00    +0.000 C 
ATOM      8  O   UNL     1      10.296  -1.371  22.490  0.00  0.00    +0.000 OA
ENDROOT
BRANCH   6   9
ATOM      9  S   UNL     1       6.283  -3.452  24.400  0.00  0.00    +0.000 S 
ATOM     10  O   UNL     1       6.830  -4.301  23.381  0.00  0.00    +0.000 OA
ATOM     11  O   UNL     1       5.187  -2.590  23.918  0.00  0.00    +0.000 OA
ATOM     12  N   UNL     1       5.562  -4.431  25.545  0.00  0.00    +0.000 NA
ENDBRANCH   6   9
BRANCH   1  13
ATOM     13  C   UNL     1       7.349  -0.104  25.132  0.00  0.00    +0.000 C 
BRANCH  13  18
ATOM     14  C   UNL     1       8.255   2.205  24.778  0.00  0.00    +0.000 C 
ATOM     15  C   UNL     1       7.652   3.502  24.305  0.00  0.00    +0.000 C 
ATOM     16  C   UNL     1       6.158   3.185  24.078  0.00  0.00    +0.000 C 
ATOM     17  C   UNL     1       6.038   1.724  24.054  0.00  0.00    +0.000 C 
ATOM     18  C   UNL     1       7.292   1.041  24.557  0.00  0.00    +0.000 C 
ATOM     19  F   UNL     1       4.870   1.347  24.553  0.00  0.00    +0.000 F 
BRANCH  14  20
ATOM     20  N   UNL     1       9.562   2.028  24.517  0.00  0.00    +0.000 NA
BRANCH  20  22
ATOM     21  C   UNL     1      10.363   2.118  22.221  0.00  0.00    +0.000 C 
ATOM     22  C   UNL     1      10.284   2.835  23.565  0.00  0.00    +0.000 C 
ENDBRANCH  20  22
ENDBRANCH  14  20
ENDBRANCH  13  18
ENDBRANCH   1  13
BRANCH   7  23
ATOM     23  C   UNL     1       7.968  -1.543  22.810  0.00  0.00    +0.000 C 
BRANCH  23  24
ATOM     24  N   UNL     1       7.407  -1.157  21.679  0.00  0.00    +0.000 NA
ATOM     25  C   UNL     1       7.608   0.151  21.230  0.00  0.00    +0.000 C 
ATOM     26  C   UNL     1       7.620   0.267  19.715  0.00  0.00    +0.000 C 
ATOM     27  N   UNL     1       6.311  -0.183  19.218  0.00  0.00    +0.000 N 
ATOM     28  C   UNL     1       5.613  -1.184  20.019  0.00  0.00    +0.000 C 
ATOM     29  C   UNL     1       6.623  -1.943  20.870  0.00  0.00    +0.000 C 
ATOM     30  C   UNL     1       5.589   0.685  18.477  0.00  0.00    +0.000 C 
ATOM     31  O   UNL     1       4.515   1.096  18.864  0.00  0.00    +0.000 OA
ATOM     32  C   UNL     1       6.354   1.408  17.384  0.00  0.00    +0.000 C 
ENDBRANCH  23  24
ENDBRANCH   7  23
TORSDOF 7
ENDMDL
MODEL 2
REMARK VINA RESULT:      -6.4      3.586      5.927
REMARK  Name = 
REMARK  7 active torsions:
REMARK  status: ('A' for Active; 'I' for Inactive)
REMARK    1  A    between atoms: C_2  and  N_3
REMARK    2  A    between atoms: N_3  and  C_4
REMARK    3  A    between atoms: C_8  and  C_9
REMARK    4  A    between atoms: C_9  and  N_10
REMARK    5  A    between atoms: C_15  and  S_16
REMARK    6  A    between atoms: C_20  and  C_22
REMARK    7  A    between atoms: C_22  and  N_23
REMARK                            x       y       z     vdW  Elec       q    Type
REMARK                         _______ _______ _______ _____ _____    ______ ____
ROOT
ATOM      1  N   UNL     1       6.717  -5.513  26.086  0.00  0.00    +0.000 NA
ATOM      2  C   UNL     1       6.371  -5.238  27.562  0.00  0.00    +0.000 C 
ATOM      3  C   UNL     1       5.484  -3.954  27.437  0.00  0.00    +0.000 C 
ATOM      4  N   UNL     1       6.342  -2.962  26.743  0.00  0.00    +0.000 N 
ATOM      5  C   UNL     1       7.784  -3.416  26.694  0.00  0.00    +0.000 C 
ATOM      6  C   UNL     1       7.718  -4.639  25.819  0.00  0.00    +0.000 C 
ATOM      7  C   UNL     1       5.888  -2.517  25.508  0.00  0.00    +0.000 C 
ATOM      8  O   UNL     1       5.603  -1.287  25.528  0.00  0.00    +0.000 OA
ENDROOT
BRANCH   6   9
ATOM      9  S   UNL     1       8.955  -4.760  24.646  0.00  0.00    +0.000 S 
ATOM     10  O   UNL     1       8.472  -5.369  23.440  0.00  0.00    +0.000 OA
ATOM     11  O   UNL     1      10.094  -5.478  25.249  0.00  0.00    +0.000 OA
ATOM     12  N   UNL     1       9.579  -3.264  24.246  0.00  0.00    +0.000 NA
ENDBRANCH   6   9
BRANCH   1  13
ATOM     13  C   UNL     1       5.533  -5.442  25.481  0.00  0.00    +0.000 C 
BRANCH  13  18
ATOM     14  C   UNL     1       3.064  -5.867  25.544  0.00  0.00    +0.000 C 
ATOM     15  C   UNL     1       2.030  -6.171  24.491  0.00  0.00    +0.000 C 
ATOM     16  C   UNL     1       2.822  -6.248  23.168  0.00  0.00    +0.000 C 
ATOM     17  C   UNL     1       4.131  -5.641  23.427  0.00  0.00    +0.000 C 
ATOM     18  C   UNL     1       4.386  -5.446  24.907  0.00  0.00    +0.000 C 
ATOM     19  F   UNL     1       5.067  -6.231  22.698  0.00  0.00    +0.000 F 
BRANCH  14  20
ATOM     20  N   UNL     1       2.627  -5.211  26.633  0.00  0.00    +0.000 NA
BRANCH  20  22
ATOM     21  C   UNL     1       2.130  -2.864  26.222  0.00  0.00    +0.000 C 
ATOM     22  C   UNL     1       1.567  -4.235  26.583  0.00  0.00    +0.000 C 
ENDBRANCH  20  22
ENDBRANCH  14  20
ENDBRANCH  13  18
ENDBRANCH   1  13
BRANCH   7  23
ATOM     23  C   UNL     1       6.485  -3.090  24.296  0.00  0.00    +0.000 C 
BRANCH  23  24
ATOM     24  N   UNL     1       6.507  -2.599  23.070  0.00  0.00    +0.000 NA
ATOM     25  C   UNL     1       6.865  -1.263  22.879  0.00  0.00    +0.000 C 
ATOM     26  C   UNL     1       7.579  -1.020  21.559  0.00  0.00    +0.000 C 
ATOM     27  N   UNL     1       6.663  -1.400  20.474  0.00  0.00    +0.000 N 
ATOM     28  C   UNL     1       5.694  -2.451  20.770  0.00  0.00    +0.000 C 
ATOM     29  C   UNL     1       6.207  -3.299  21.926  0.00  0.00    +0.000 C 
ATOM     30  C   UNL     1       6.350  -0.458  19.557  0.00  0.00    +0.000 C 
ATOM     31  O   UNL     1       5.210  -0.060  19.433  0.00  0.00    +0.000 OA
ATOM     32  C   UNL     1       7.520   0.339  19.011  0.00  0.00    +0.000 C 
ENDBRANCH  23  24
ENDBRANCH   7  23
TORSDOF 7
ENDMDL
MODEL 3
REMARK VINA RESULT:      -6.3      1.986      2.631
REMARK  Name = 
REMARK  7 active torsions:
REMARK  status: ('A' for Active; 'I' for Inactive)
REMARK    1  A    between atoms: C_2  and  N_3
REMARK    2  A    between atoms: N_3  and  C_4
REMARK    3  A    between atoms: C_8  and  C_9
REMARK    4  A    between atoms: C_9  and  N_10
REMARK    5  A    between atoms: C_15  and  S_16
REMARK    6  A    between atoms: C_20  and  C_22
REMARK    7  A    between atoms: C_22  and  N_23
REMARK                            x       y       z     vdW  Elec       q    Type
REMARK                         _______ _______ _______ _____ _____    ______ ____
ROOT
ATOM      1  N   UNL     1       6.452  -4.024  25.806  0.00  0.00    +0.000 NA
ATOM      2  C   UNL     1       7.436  -4.474  26.903  0.00  0.00    +0.000 C 
ATOM      3  C   UNL     1       8.738  -3.713  26.481  0.00  0.00    +0.000 C 
ATOM      4  N   UNL     1       9.011  -4.164  25.094  0.00  0.00    +0.000 N 
ATOM      5  C   UNL     1       8.167  -5.362  24.724  0.00  0.00    +0.000 C 
ATOM      6  C   UNL     1       6.769  -4.803  24.744  0.00  0.00    +0.000 C 
ATOM      7  C   UNL     1       8.986  -3.179  24.114  0.00  0.00    +0.000 C 
ATOM      8  O   UNL     1      10.122  -3.009  23.589  0.00  0.00    +0.000 OA
ENDROOT
BRANCH   6   9
ATOM      9  S   UNL     1       5.776  -5.283  23.439  0.00  0.00    +0.000 S 
ATOM     10  O   UNL     1       6.562  -5.683  22.307  0.00  0.00    +0.000 OA
ATOM     11  O   UNL     1       4.839  -4.183  23.142  0.00  0.00    +0.000 OA
ATOM     12  N   UNL     1       4.787  -6.564  23.849  0.00  0.00    +0.000 NA
ENDBRANCH   6   9
BRANCH   1  13
ATOM     13  C   UNL     1       6.608  -2.701  25.787  0.00  0.00    +0.000 C 
BRANCH  13  18
ATOM     14  C   UNL     1       7.795  -0.580  26.399  0.00  0.00    +0.000 C 
ATOM     15  C   UNL     1       7.353   0.848  26.580  0.00  0.00    +0.000 C 
ATOM     16  C   UNL     1       5.826   0.823  26.353  0.00  0.00    +0.000 C 
ATOM     17  C   UNL     1       5.519  -0.458  25.709  0.00  0.00    +0.000 C 
ATOM     18  C   UNL     1       6.686  -1.421  25.771  0.00  0.00    +0.000 C 
ATOM     19  F   UNL     1       4.324  -0.889  26.084  0.00  0.00    +0.000 F 
BRANCH  14  20
ATOM     20  N   UNL     1       9.062  -0.762  25.988  0.00  0.00    +0.000 NA
BRANCH  20  22
ATOM     21  C   UNL     1      10.452   0.315  24.305  0.00  0.00    +0.000 C 
ATOM     22  C   UNL     1       9.971   0.332  25.753  0.00  0.00    +0.000 C 
ENDBRANCH  20  22
ENDBRANCH  14  20
ENDBRANCH  13  18
ENDBRANCH   1  13
BRANCH   7  23
ATOM     23  C   UNL     1       7.788  -3.061  23.273  0.00  0.00    +0.000 C 
BRANCH  23  24
ATOM     24  N   UNL     1       7.519  -2.174  22.333  0.00  0.00    +0.000 NA
ATOM     25  C   UNL     1       6.904  -2.597  21.153  0.00  0.00    +0.000 C 
ATOM     26  C   UNL     1       5.993  -1.545  20.544  0.00  0.00    +0.000 C 
ATOM     27  N   UNL     1       6.814  -0.367  20.225  0.00  0.00    +0.000 N 
ATOM     28  C   UNL     1       7.987  -0.138  21.064  0.00  0.00    +0.000 C 
ATOM     29  C   UNL     1       7.789  -0.828  22.407  0.00  0.00    +0.000 C 
ATOM     30  C   UNL     1       6.829   0.059  18.943  0.00  0.00    +0.000 C 
ATOM     31  O   UNL     1       7.853   0.042  18.291  0.00  0.00    +0.000 OA
ATOM     32  C   UNL     1       5.474   0.157  18.268  0.00  0.00    +0.000 C 
ENDBRANCH  23  24
ENDBRANCH   7  23
TORSDOF 7
ENDMDL
MODEL 4
REMARK VINA RESULT:      -6.2      2.414      3.750
REMARK  Name = 
REMARK  7 active torsions:
REMARK  status: ('A' for Active; 'I' for Inactive)
REMARK    1  A    between atoms: C_2  and  N_3
REMARK    2  A    between atoms: N_3  and  C_4
REMARK    3  A    between atoms: C_8  and  C_9
REMARK    4  A    between atoms: C_9  and  N_10
REMARK    5  A    between atoms: C_15  and  S_16
REMARK    6  A    between atoms: C_20  and  C_22
REMARK    7  A    between atoms: C_22  and  N_23
REMARK                            x       y       z     vdW  Elec       q    Type
REMARK                         _______ _______ _______ _____ _____    ______ ____
ROOT
ATOM      1  N   UNL     1       6.631  -4.396  25.986  0.00  0.00    +0.000 NA
ATOM      2  C   UNL     1       7.684  -4.964  26.956  0.00  0.00    +0.000 C 
ATOM      3  C   UNL     1       8.935  -4.092  26.598  0.00  0.00    +0.000 C 
ATOM      4  N   UNL     1       9.154  -4.314  25.148  0.00  0.00    +0.000 N 
ATOM      5  C   UNL     1       8.335  -5.478  24.636  0.00  0.00    +0.000 C 
ATOM      6  C   UNL     1       6.921  -4.990  24.804  0.00  0.00    +0.000 C 
ATOM      7  C   UNL     1       9.043  -3.194  24.333  0.00  0.00    +0.000 C 
ATOM      8  O   UNL     1      10.145  -2.897  23.791  0.00  0.00    +0.000 OA
ENDROOT
BRANCH   6   9
ATOM      9  S   UNL     1       5.882  -5.309  23.486  0.00  0.00    +0.000 S 
ATOM     10  O   UNL     1       6.626  -5.583  22.290  0.00  0.00    +0.000 OA
ATOM     11  O   UNL     1       4.949  -4.174  23.348  0.00  0.00    +0.000 OA
ATOM     12  N   UNL     1       4.891  -6.620  23.780  0.00  0.00    +0.000 NA
ENDBRANCH   6   9
BRANCH   1  13
ATOM     13  C   UNL     1       6.738  -3.080  26.164  0.00  0.00    +0.000 C 
BRANCH  13  18
ATOM     14  C   UNL     1       5.903  -0.778  25.628  0.00  0.00    +0.000 C 
ATOM     15  C   UNL     1       6.496   0.601  25.749  0.00  0.00    +0.000 C 
ATOM     16  C   UNL     1       7.926   0.373  26.282  0.00  0.00    +0.000 C 
ATOM     17  C   UNL     1       7.972  -1.003  26.787  0.00  0.00    +0.000 C 
ATOM     18  C   UNL     1       6.769  -1.810  26.347  0.00  0.00    +0.000 C 
ATOM     19  F   UNL     1       9.178  -1.521  26.611  0.00  0.00    +0.000 F 
BRANCH  14  20
ATOM     20  N   UNL     1       4.566  -0.862  25.736  0.00  0.00    +0.000 NA
BRANCH  20  22
ATOM     21  C   UNL     1       3.237  -1.920  27.478  0.00  0.00    +0.000 C 
ATOM     22  C   UNL     1       3.867  -0.626  26.974  0.00  0.00    +0.000 C 
ENDBRANCH  20  22
ENDBRANCH  14  20
ENDBRANCH  13  18
ENDBRANCH   1  13
BRANCH   7  23
ATOM     23  C   UNL     1       7.801  -3.002  23.575  0.00  0.00    +0.000 C 
BRANCH  23  24
ATOM     24  N   UNL     1       7.543  -2.136  22.612  0.00  0.00    +0.000 NA
ATOM     25  C   UNL     1       6.938  -2.586  21.435  0.00  0.00    +0.000 C 
ATOM     26  C   UNL     1       6.035  -1.546  20.793  0.00  0.00    +0.000 C 
ATOM     27  N   UNL     1       6.862  -0.378  20.456  0.00  0.00    +0.000 N 
ATOM     28  C   UNL     1       8.027  -0.131  21.300  0.00  0.00    +0.000 C 
ATOM     29  C   UNL     1       7.814  -0.790  22.657  0.00  0.00    +0.000 C 
ATOM     30  C   UNL     1       6.891   0.018  19.164  0.00  0.00    +0.000 C 
ATOM     31  O   UNL     1       7.921  -0.015  18.523  0.00  0.00    +0.000 OA
ATOM     32  C   UNL     1       5.542   0.103  18.474  0.00  0.00    +0.000 C 
ENDBRANCH  23  24
ENDBRANCH   7  23
TORSDOF 7
ENDMDL
MODEL 5
REMARK VINA RESULT:      -6.1      2.447      4.964
REMARK  Name = 
REMARK  7 active torsions:
REMARK  status: ('A' for Active; 'I' for Inactive)
REMARK    1  A    between atoms: C_2  and  N_3
REMARK    2  A    between atoms: N_3  and  C_4
REMARK    3  A    between atoms: C_8  and  C_9
REMARK    4  A    between atoms: C_9  and  N_10
REMARK    5  A    between atoms: C_15  and  S_16
REMARK    6  A    between atoms: C_20  and  C_22
REMARK    7  A    between atoms: C_22  and  N_23
REMARK                            x       y       z     vdW  Elec       q    Type
REMARK                         _______ _______ _______ _____ _____    ______ ____
ROOT
ATOM      1  N   UNL     1       9.217  -0.939  25.935  0.00  0.00    +0.000 NA
ATOM      2  C   UNL     1       8.694  -0.530  27.325  0.00  0.00    +0.000 C 
ATOM      3  C   UNL     1       7.153  -0.439  27.061  0.00  0.00    +0.000 C 
ATOM      4  N   UNL     1       7.011   0.548  25.962  0.00  0.00    +0.000 N 
ATOM      5  C   UNL     1       8.300   1.301  25.725  0.00  0.00    +0.000 C 
ATOM      6  C   UNL     1       9.231   0.223  25.238  0.00  0.00    +0.000 C 
ATOM      7  C   UNL     1       6.453   0.075  24.781  0.00  0.00    +0.000 C 
ATOM      8  O   UNL     1       5.339   0.618  24.538  0.00  0.00    +0.000 OA
ENDROOT
BRANCH   6   9
ATOM      9  S   UNL     1      10.204   0.653  23.901  0.00  0.00    +0.000 S 
ATOM     10  O   UNL     1      10.157  -0.352  22.878  0.00  0.00    +0.000 OA
ATOM     11  O   UNL     1      11.569   0.926  24.391  0.00  0.00    +0.000 OA
ATOM     12  N   UNL     1       9.718   2.097  23.218  0.00  0.00    +0.000 NA
ENDBRANCH   6   9
BRANCH   1  13
ATOM     13  C   UNL     1       8.423  -1.956  25.602  0.00  0.00    +0.000 C 
BRANCH  13  18
ATOM     14  C   UNL     1       7.143  -4.029  26.192  0.00  0.00    +0.000 C 
ATOM     15  C   UNL     1       6.767  -5.274  25.432  0.00  0.00    +0.000 C 
ATOM     16  C   UNL     1       7.417  -5.102  24.042  0.00  0.00    +0.000 C 
ATOM     17  C   UNL     1       7.789  -3.689  23.924  0.00  0.00    +0.000 C 
ATOM     18  C   UNL     1       7.718  -2.969  25.254  0.00  0.00    +0.000 C 
ATOM     19  F   UNL     1       8.886  -3.559  23.194  0.00  0.00    +0.000 F 
BRANCH  14  20
ATOM     20  N   UNL     1       6.297  -3.648  27.164  0.00  0.00    +0.000 NA
BRANCH  20  22
ATOM     21  C   UNL     1       4.254  -2.657  26.290  0.00  0.00    +0.000 C 
ATOM     22  C   UNL     1       4.869  -3.817  27.067  0.00  0.00    +0.000 C 
ENDBRANCH  20  22
ENDBRANCH  14  20
ENDBRANCH  13  18
ENDBRANCH   1  13
BRANCH   7  23
ATOM     23  C   UNL     1       7.350  -0.244  23.664  0.00  0.00    +0.000 C 
BRANCH  23  24
ATOM     24  N   UNL     1       7.100  -0.217  22.367  0.00  0.00    +0.000 NA
ATOM     25  C   UNL     1       7.020   1.016  21.715  0.00  0.00    +0.000 C 
ATOM     26  C   UNL     1       7.493   0.959  20.272  0.00  0.00    +0.000 C 
ATOM     27  N   UNL     1       6.630   0.012  19.551  0.00  0.00    +0.000 N 
ATOM     28  C   UNL     1       6.055  -1.079  20.333  0.00  0.00    +0.000 C 
ATOM     29  C   UNL     1       6.912  -1.319  21.569  0.00  0.00    +0.000 C 
ATOM     30  C   UNL     1       5.959   0.470  18.471  0.00  0.00    +0.000 C 
ATOM     31  O   UNL     1       4.746   0.502  18.456  0.00  0.00    +0.000 OA
ATOM     32  C   UNL     1       6.776   1.296  17.495  0.00  0.00    +0.000 C 
ENDBRANCH  23  24
ENDBRANCH   7  23
TORSDOF 7
ENDMDL
MODEL 6
REMARK VINA RESULT:      -6.1      3.231      6.292
REMARK  Name = 
REMARK  7 active torsions:
REMARK  status: ('A' for Active; 'I' for Inactive)
REMARK    1  A    between atoms: C_2  and  N_3
REMARK    2  A    between atoms: N_3  and  C_4
REMARK    3  A    between atoms: C_8  and  C_9
REMARK    4  A    between atoms: C_9  and  N_10
REMARK    5  A    between atoms: C_15  and  S_16
REMARK    6  A    between atoms: C_20  and  C_22
REMARK    7  A    between atoms: C_22  and  N_23
REMARK                            x       y       z     vdW  Elec       q    Type
REMARK                         _______ _______ _______ _____ _____    ______ ____
ROOT
ATOM      1  N   UNL     1       8.732  -0.975  22.237  0.00  0.00    +0.000 NA
ATOM      2  C   UNL     1      10.167  -1.534  22.289  0.00  0.00    +0.000 C 
ATOM      3  C   UNL     1      10.180  -2.220  23.697  0.00  0.00    +0.000 C 
ATOM      4  N   UNL     1       9.835  -1.138  24.652  0.00  0.00    +0.000 N 
ATOM      5  C   UNL     1       9.903   0.223  23.997  0.00  0.00    +0.000 C 
ATOM      6  C   UNL     1       8.796   0.157  22.979  0.00  0.00    +0.000 C 
ATOM      7  C   UNL     1       8.665  -1.314  25.380  0.00  0.00    +0.000 C 
ATOM      8  O   UNL     1       8.895  -1.443  26.615  0.00  0.00    +0.000 OA
ENDROOT
BRANCH   6   9
ATOM      9  S   UNL     1       7.815   1.553  22.882  0.00  0.00    +0.000 S 
ATOM     10  O   UNL     1       6.422   1.209  22.846  0.00  0.00    +0.000 OA
ATOM     11  O   UNL     1       8.253   2.346  21.717  0.00  0.00    +0.000 OA
ATOM     12  N   UNL     1       8.054   2.571  24.184  0.00  0.00    +0.000 NA
ENDBRANCH   6   9
BRANCH   1  13
ATOM     13  C   UNL     1       7.989  -2.020  22.601  0.00  0.00    +0.000 C 
BRANCH  13  18
ATOM     14  C   UNL     1       7.712  -4.459  23.105  0.00  0.00    +0.000 C 
ATOM     15  C   UNL     1       6.565  -5.427  22.976  0.00  0.00    +0.000 C 
ATOM     16  C   UNL     1       5.419  -4.604  22.349  0.00  0.00    +0.000 C 
ATOM     17  C   UNL     1       5.791  -3.193  22.489  0.00  0.00    +0.000 C 
ATOM     18  C   UNL     1       7.242  -3.023  22.885  0.00  0.00    +0.000 C 
ATOM     19  F   UNL     1       5.329  -2.489  21.467  0.00  0.00    +0.000 F 
BRANCH  14  20
ATOM     20  N   UNL     1       8.596  -4.712  24.086  0.00  0.00    +0.000 NA
BRANCH  20  22
ATOM     21  C   UNL     1       9.351  -4.863  26.394  0.00  0.00    +0.000 C 
ATOM     22  C   UNL     1       8.196  -5.077  25.422  0.00  0.00    +0.000 C 
ENDBRANCH  20  22
ENDBRANCH  14  20
ENDBRANCH  13  18
ENDBRANCH   1  13
BRANCH   7  23
ATOM     23  C   UNL     1       7.460  -0.593  24.951  0.00  0.00    +0.000 C 
BRANCH  23  24
ATOM     24  N   UNL     1       6.369  -0.318  25.642  0.00  0.00    +0.000 NA
ATOM     25  C   UNL     1       5.287  -1.200  25.585  0.00  0.00    +0.000 C 
ATOM     26  C   UNL     1       4.488  -1.247  26.877  0.00  0.00    +0.000 C 
ATOM     27  N   UNL     1       3.957   0.101  27.128  0.00  0.00    +0.000 N 
ATOM     28  C   UNL     1       4.741   1.222  26.618  0.00  0.00    +0.000 C 
ATOM     29  C   UNL     1       6.189   0.784  26.442  0.00  0.00    +0.000 C 
ATOM     30  C   UNL     1       2.617   0.236  27.244  0.00  0.00    +0.000 C 
ATOM     31  O   UNL     1       1.984   0.898  26.448  0.00  0.00    +0.000 OA
ATOM     32  C   UNL     1       1.931  -0.781  28.137  0.00  0.00    +0.000 C 
ENDBRANCH  23  24
ENDBRANCH   7  23
TORSDOF 7
ENDMDL
MODEL 7
REMARK VINA RESULT:      -6.0      2.562      5.549
REMARK  Name = 
REMARK  7 active torsions:
REMARK  status: ('A' for Active; 'I' for Inactive)
REMARK    1  A    between atoms: C_2  and  N_3
REMARK    2  A    between atoms: N_3  and  C_4
REMARK    3  A    between atoms: C_8  and  C_9
REMARK    4  A    between atoms: C_9  and  N_10
REMARK    5  A    between atoms: C_15  and  S_16
REMARK    6  A    between atoms: C_20  and  C_22
REMARK    7  A    between atoms: C_22  and  N_23
REMARK                            x       y       z     vdW  Elec       q    Type
REMARK                         _______ _______ _______ _____ _____    ______ ____
ROOT
ATOM      1  N   UNL     1       8.424   1.909  23.571  0.00  0.00    +0.000 NA
ATOM      2  C   UNL     1       8.269   2.775  22.307  0.00  0.00    +0.000 C 
ATOM      3  C   UNL     1       7.147   2.000  21.537  0.00  0.00    +0.000 C 
ATOM      4  N   UNL     1       7.682   0.628  21.361  0.00  0.00    +0.000 N 
ATOM      5  C   UNL     1       9.158   0.563  21.687  0.00  0.00    +0.000 C 
ATOM      6  C   UNL     1       9.187   0.867  23.161  0.00  0.00    +0.000 C 
ATOM      7  C   UNL     1       6.964  -0.393  21.970  0.00  0.00    +0.000 C 
ATOM      8  O   UNL     1       6.458  -1.182  21.122  0.00  0.00    +0.000 OA
ENDROOT
BRANCH   6   9
ATOM      9  S   UNL     1      10.224  -0.126  24.087  0.00  0.00    +0.000 S 
ATOM     10  O   UNL     1      10.640  -1.280  23.343  0.00  0.00    +0.000 OA
ATOM     11  O   UNL     1       9.538  -0.460  25.350  0.00  0.00    +0.000 OA
ATOM     12  N   UNL     1      11.598   0.691  24.570  0.00  0.00    +0.000 NA
ENDBRANCH   6   9
BRANCH   1  13
ATOM     13  C   UNL     1       7.167   1.749  23.982  0.00  0.00    +0.000 C 
BRANCH  13  18
ATOM     14  C   UNL     1       4.870   2.702  24.299  0.00  0.00    +0.000 C 
ATOM     15  C   UNL     1       3.766   2.454  25.293  0.00  0.00    +0.000 C 
ATOM     16  C   UNL     1       4.342   1.410  26.274  0.00  0.00    +0.000 C 
ATOM     17  C   UNL     1       5.530   0.841  25.631  0.00  0.00    +0.000 C 
ATOM     18  C   UNL     1       5.968   1.648  24.427  0.00  0.00    +0.000 C 
ATOM     19  F   UNL     1       6.439   0.520  26.540  0.00  0.00    +0.000 F 
BRANCH  14  20
ATOM     20  N   UNL     1       4.487   3.097  23.072  0.00  0.00    +0.000 NA
BRANCH  20  22
ATOM     21  C   UNL     1       5.592   5.261  23.197  0.00  0.00    +0.000 C 
ATOM     22  C   UNL     1       4.378   4.484  22.699  0.00  0.00    +0.000 C 
ENDBRANCH  20  22
ENDBRANCH  14  20
ENDBRANCH  13  18
ENDBRANCH   1  13
BRANCH   7  23
ATOM     23  C   UNL     1       7.459  -0.935  23.241  0.00  0.00    +0.000 C 
BRANCH  23  24
ATOM     24  N   UNL     1       7.313  -2.150  23.737  0.00  0.00    +0.000 NA
ATOM     25  C   UNL     1       6.466  -2.341  24.831  0.00  0.00    +0.000 C 
ATOM     26  C   UNL     1       5.789  -3.701  24.831  0.00  0.00    +0.000 C 
ATOM     27  N   UNL     1       6.839  -4.728  24.891  0.00  0.00    +0.000 N 
ATOM     28  C   UNL     1       8.127  -4.386  24.295  0.00  0.00    +0.000 C 
ATOM     29  C   UNL     1       7.928  -3.284  23.263  0.00  0.00    +0.000 C 
ATOM     30  C   UNL     1       6.803  -5.604  25.920  0.00  0.00    +0.000 C 
ATOM     31  O   UNL     1       7.698  -5.643  26.739  0.00  0.00    +0.000 OA
ATOM     32  C   UNL     1       5.445  -6.213  26.214  0.00  0.00    +0.000 C 
ENDBRANCH  23  24
ENDBRANCH   7  23
TORSDOF 7
ENDMDL
MODEL 8
REMARK VINA RESULT:      -5.9      2.608      4.935
REMARK  Name = 
REMARK  7 active torsions:
REMARK  status: ('A' for Active; 'I' for Inactive)
REMARK    1  A    between atoms: C_2  and  N_3
REMARK    2  A    between atoms: N_3  and  C_4
REMARK    3  A    between atoms: C_8  and  C_9
REMARK    4  A    between atoms: C_9  and  N_10
REMARK    5  A    between atoms: C_15  and  S_16
REMARK    6  A    between atoms: C_20  and  C_22
REMARK    7  A    between atoms: C_22  and  N_23
REMARK                            x       y       z     vdW  Elec       q    Type
REMARK                         _______ _______ _______ _____ _____    ______ ____
ROOT
ATOM      1  N   UNL     1       8.820   2.582  24.352  0.00  0.00    +0.000 NA
ATOM      2  C   UNL     1       8.911   3.831  23.455  0.00  0.00    +0.000 C 
ATOM      3  C   UNL     1       7.786   3.540  22.405  0.00  0.00    +0.000 C 
ATOM      4  N   UNL     1       8.157   2.238  21.799  0.00  0.00    +0.000 N 
ATOM      5  C   UNL     1       9.569   1.839  22.163  0.00  0.00    +0.000 C 
ATOM      6  C   UNL     1       9.482   1.630  23.652  0.00  0.00    +0.000 C 
ATOM      7  C   UNL     1       7.254   1.198  21.979  0.00  0.00    +0.000 C 
ATOM      8  O   UNL     1       6.744   0.823  20.886  0.00  0.00    +0.000 OA
ENDROOT
BRANCH   6   9
ATOM      9  S   UNL     1      10.281   0.237  24.236  0.00  0.00    +0.000 S 
ATOM     10  O   UNL     1       9.561  -0.357  25.326  0.00  0.00    +0.000 OA
ATOM     11  O   UNL     1      11.666   0.610  24.583  0.00  0.00    +0.000 OA
ATOM     12  N   UNL     1      10.454  -0.924  23.049  0.00  0.00    +0.000 NA
ENDBRANCH   6   9
BRANCH   1  13
ATOM     13  C   UNL     1       7.516   2.493  24.613  0.00  0.00    +0.000 C 
BRANCH  13  18
ATOM     14  C   UNL     1       5.307   3.587  25.062  0.00  0.00    +0.000 C 
ATOM     15  C   UNL     1       4.096   3.199  25.869  0.00  0.00    +0.000 C 
ATOM     16  C   UNL     1       4.470   1.853  26.525  0.00  0.00    +0.000 C 
ATOM     17  C   UNL     1       5.650   1.353  25.813  0.00  0.00    +0.000 C 
ATOM     18  C   UNL     1       6.277   2.415  24.935  0.00  0.00    +0.000 C 
ATOM     19  F   UNL     1       6.434   0.672  26.637  0.00  0.00    +0.000 F 
BRANCH  14  20
ATOM     20  N   UNL     1       5.082   4.366  23.990  0.00  0.00    +0.000 NA
BRANCH  20  22
ATOM     21  C   UNL     1       4.040   3.234  22.104  0.00  0.00    +0.000 C 
ATOM     22  C   UNL     1       3.878   4.280  23.203  0.00  0.00    +0.000 C 
ENDBRANCH  20  22
ENDBRANCH  14  20
ENDBRANCH  13  18
ENDBRANCH   1  13
BRANCH   7  23
ATOM     23  C   UNL     1       7.540   0.195  23.013  0.00  0.00    +0.000 C 
BRANCH  23  24
ATOM     24  N   UNL     1       7.118  -1.053  23.096  0.00  0.00    +0.000 NA
ATOM     25  C   UNL     1       7.235  -1.887  21.980  0.00  0.00    +0.000 C 
ATOM     26  C   UNL     1       7.466  -3.344  22.346  0.00  0.00    +0.000 C 
ATOM     27  N   UNL     1       6.310  -3.801  23.131  0.00  0.00    +0.000 N 
ATOM     28  C   UNL     1       5.617  -2.793  23.927  0.00  0.00    +0.000 C 
ATOM     29  C   UNL     1       6.564  -1.635  24.210  0.00  0.00    +0.000 C 
ATOM     30  C   UNL     1       5.616  -4.863  22.665  0.00  0.00    +0.000 C 
ATOM     31  O   UNL     1       4.455  -4.752  22.330  0.00  0.00    +0.000 OA
ATOM     32  C   UNL     1       6.452  -6.044  22.210  0.00  0.00    +0.000 C 
ENDBRANCH  23  24
ENDBRANCH   7  23
TORSDOF 7
ENDMDL
MODEL 9
REMARK VINA RESULT:      -5.8      2.685      5.320
REMARK  Name = 
REMARK  7 active torsions:
REMARK  status: ('A' for Active; 'I' for Inactive)
REMARK    1  A    between atoms: C_2  and  N_3
REMARK    2  A    between atoms: N_3  and  C_4
REMARK    3  A    between atoms: C_8  and  C_9
REMARK    4  A    between atoms: C_9  and  N_10
REMARK    5  A    between atoms: C_15  and  S_16
REMARK    6  A    between atoms: C_20  and  C_22
REMARK    7  A    between atoms: C_22  and  N_23
REMARK                            x       y       z     vdW  Elec       q    Type
REMARK                         _______ _______ _______ _____ _____    ______ ____
ROOT
ATOM      1  N   UNL     1       8.813  -3.375  24.839  0.00  0.00    +0.000 NA
ATOM      2  C   UNL     1       8.597  -3.143  26.346  0.00  0.00    +0.000 C 
ATOM      3  C   UNL     1       7.172  -2.493  26.357  0.00  0.00    +0.000 C 
ATOM      4  N   UNL     1       7.294  -1.292  25.493  0.00  0.00    +0.000 N 
ATOM      5  C   UNL     1       8.740  -0.972  25.190  0.00  0.00    +0.000 C 
ATOM      6  C   UNL     1       9.178  -2.157  24.371  0.00  0.00    +0.000 C 
ATOM      7  C   UNL     1       6.500  -1.275  24.353  0.00  0.00    +0.000 C 
ATOM      8  O   UNL     1       5.635  -0.356  24.397  0.00  0.00    +0.000 OA
ENDROOT
BRANCH   6   9
ATOM      9  S   UNL     1      10.117  -1.781  22.994  0.00  0.00    +0.000 S 
ATOM     10  O   UNL     1       9.476  -2.227  21.789  0.00  0.00    +0.000 OA
ATOM     11  O   UNL     1      11.465  -2.347  23.185  0.00  0.00    +0.000 OA
ATOM     12  N   UNL     1      10.379  -0.138  22.851  0.00  0.00    +0.000 NA
ENDBRANCH   6   9
BRANCH   1  13
ATOM     13  C   UNL     1       7.683  -3.971  24.461  0.00  0.00    +0.000 C 
BRANCH  13  18
ATOM     14  C   UNL     1       5.739  -5.480  24.934  0.00  0.00    +0.000 C 
ATOM     15  C   UNL     1       4.894  -6.391  24.083  0.00  0.00    +0.000 C 
ATOM     16  C   UNL     1       5.509  -6.297  22.670  0.00  0.00    +0.000 C 
ATOM     17  C   UNL     1       6.381  -5.119  22.669  0.00  0.00    +0.000 C 
ATOM     18  C   UNL     1       6.636  -4.598  24.068  0.00  0.00    +0.000 C 
ATOM     19  F   UNL     1       7.419  -5.313  21.870  0.00  0.00    +0.000 F 
BRANCH  14  20
ATOM     20  N   UNL     1       5.135  -4.940  26.007  0.00  0.00    +0.000 NA
BRANCH  20  22
ATOM     21  C   UNL     1       6.466  -5.804  27.852  0.00  0.00    +0.000 C 
ATOM     22  C   UNL     1       5.065  -5.608  27.282  0.00  0.00    +0.000 C 
ENDBRANCH  20  22
ENDBRANCH  14  20
ENDBRANCH  13  18
ENDBRANCH   1  13
BRANCH   7  23
ATOM     23  C   UNL     1       7.120  -1.610  23.065  0.00  0.00    +0.000 C 
BRANCH  23  24
ATOM     24  N   UNL     1       6.798  -1.190  21.856  0.00  0.00    +0.000 NA
ATOM     25  C   UNL     1       7.098   0.124  21.489  0.00  0.00    +0.000 C 
ATOM     26  C   UNL     1       7.411   0.274  20.009  0.00  0.00    +0.000 C 
ATOM     27  N   UNL     1       6.222  -0.145  19.252  0.00  0.00    +0.000 N 
ATOM     28  C   UNL     1       5.368  -1.152  19.874  0.00  0.00    +0.000 C 
ATOM     29  C   UNL     1       6.181  -1.946  20.888  0.00  0.00    +0.000 C 
ATOM     30  C   UNL     1       5.670   0.752  18.405  0.00  0.00    +0.000 C 
ATOM     31  O   UNL     1       4.545   1.170  18.583  0.00  0.00    +0.000 OA
ATOM     32  C   UNL     1       6.644   1.487  17.503  0.00  0.00    +0.000 C 
ENDBRANCH  23  24
ENDBRANCH   7  23
TORSDOF 7
ENDMDL
