MODEL 1
REMARK VINA RESULT:      -7.7      0.000      0.000
REMARK  Name = 
REMARK  8 active torsions:
REMARK  status: ('A' for Active; 'I' for Inactive)
REMARK    1  A    between atoms: C_3  and  C_4
REMARK    2  A    between atoms: C_4  and  C_5
REMARK    3  A    between atoms: C_5  and  C_6
REMARK    4  A    between atoms: C_5  and  C_20
REMARK    5  A    between atoms: C_6  and  S_7
REMARK    6  A    between atoms: C_9  and  C_14
REMARK    7  A    between atoms: C_14  and  S_15
REMARK    8  A    between atoms: C_20  and  N_21
REMARK                            x       y       z     vdW  Elec       q    Type
REMARK                         _______ _______ _______ _____ _____    ______ ____
ROOT
ATOM      1  C   UNL     1       8.966  -1.118  24.842  0.00  0.00    +0.000 C 
ENDROOT
BRANCH   1   2
ATOM      2  C   UNL     1      10.106  -0.168  24.947  0.00  0.00    +0.000 C 
BRANCH   2   5
ATOM      3  C   UNL     1      10.506   2.910  22.659  0.00  0.00    +0.000 C 
ATOM      4  C   UNL     1      10.397   2.211  24.014  0.00  0.00    +0.000 C 
ATOM      5  C   UNL     1       9.607   1.252  24.551  0.00  0.00    +0.000 C 
ATOM      6  F   UNL     1       8.846   1.731  25.625  0.00  0.00    +0.000 F 
ENDBRANCH   2   5
ENDBRANCH   1   2
BRANCH   1   7
ATOM      7  C   UNL     1       8.559  -1.768  26.073  0.00  0.00    +0.000 C 
BRANCH   7   8
ATOM      8  S   UNL     1       8.225  -3.412  26.195  0.00  0.00    +0.000 S 
ATOM      9  N   UNL     1       6.636  -3.439  26.033  0.00  0.00    +0.000 NA
ATOM     10  C   UNL     1       6.231  -4.704  26.323  0.00  0.00    +0.000 C 
ATOM     11  C   UNL     1       7.207  -5.452  25.363  0.00  0.00    +0.000 C 
ATOM     12  C   UNL     1       7.889  -4.957  24.143  0.00  0.00    +0.000 C 
ATOM     13  C   UNL     1       9.050  -3.865  24.496  0.00  0.00    +0.000 C 
ATOM     14  O   UNL     1      10.107  -4.717  24.890  0.00  0.00    +0.000 OA
BRANCH  10  15
ATOM     15  C   UNL     1       6.405  -4.981  27.760  0.00  0.00    +0.000 C 
ATOM     16  O   UNL     1       7.374  -5.993  27.960  0.00  0.00    +0.000 OA
BRANCH  15  17
ATOM     17  S   UNL     1       4.889  -5.474  28.548  0.00  0.00    +0.000 S 
ATOM     18  O   UNL     1       3.816  -5.219  27.625  0.00  0.00    +0.000 OA
ATOM     19  O   UNL     1       4.808  -4.800  29.812  0.00  0.00    +0.000 OA
ATOM     20  N   UNL     1       4.948  -7.102  28.832  0.00  0.00    +0.000 NA
ENDBRANCH  15  17
ENDBRANCH  10  15
ENDBRANCH   7   8
ENDBRANCH   1   7
BRANCH   1  21
ATOM     21  C   UNL     1       7.867  -0.622  23.963  0.00  0.00    +0.000 C 
BRANCH  21  22
ATOM     22  N   UNL     1       7.999  -1.131  22.607  0.00  0.00    +0.000 N 
ATOM     23  C   UNL     1       8.915  -0.400  21.706  0.00  0.00    +0.000 C 
ATOM     24  C   UNL     1       8.068   0.593  20.918  0.00  0.00    +0.000 C 
ATOM     25  N   UNL     1       6.938  -0.065  20.317  0.00  0.00    +0.000 N 
ATOM     26  C   UNL     1       6.414  -1.211  20.812  0.00  0.00    +0.000 C 
ATOM     27  C   UNL     1       6.923  -1.749  22.022  0.00  0.00    +0.000 C 
ATOM     28  C   UNL     1       6.777  -0.034  18.972  0.00  0.00    +0.000 C 
ATOM     29  O   UNL     1       7.754  -0.114  18.247  0.00  0.00    +0.000 OA
ATOM     30  C   UNL     1       5.511   0.651  18.491  0.00  0.00    +0.000 C 
ENDBRANCH  21  22
ENDBRANCH   1  21
TORSDOF 8
ENDMDL
MODEL 2
REMARK VINA RESULT:      -7.6      2.514      2.906
REMARK  Name = 
REMARK  8 active torsions:
REMARK  status: ('A' for Active; 'I' for Inactive)
REMARK    1  A    between atoms: C_3  and  C_4
REMARK    2  A    between atoms: C_4  and  C_5
REMARK    3  A    between atoms: C_5  and  C_6
REMARK    4  A    between atoms: C_5  and  C_20
REMARK    5  A    between atoms: C_6  and  S_7
REMARK    6  A    between atoms: C_9  and  C_14
REMARK    7  A    between atoms: C_14  and  S_15
REMARK    8  A    between atoms: C_20  and  N_21
REMARK                            x       y       z     vdW  Elec       q    Type
REMARK                         _______ _______ _______ _____ _____    ______ ____
ROOT
ATOM      1  C   UNL     1       7.525  -2.140  24.767  0.00  0.00    +0.000 C 
ENDROOT
BRANCH   1   2
ATOM      2  C   UNL     1       8.460  -1.650  25.816  0.00  0.00    +0.000 C 
BRANCH   2   5
ATOM      3  C   UNL     1      10.974   0.787  24.202  0.00  0.00    +0.000 C 
ATOM      4  C   UNL     1      10.115   0.263  25.352  0.00  0.00    +0.000 C 
ATOM      5  C   UNL     1       8.842  -0.177  25.491  0.00  0.00    +0.000 C 
ATOM      6  F   UNL     1       8.089   0.637  26.345  0.00  0.00    +0.000 F 
ENDBRANCH   2   5
ENDBRANCH   1   2
BRANCH   1   7
ATOM      7  C   UNL     1       6.491  -3.056  25.209  0.00  0.00    +0.000 C 
BRANCH   7   8
ATOM      8  S   UNL     1       6.276  -4.598  24.574  0.00  0.00    +0.000 S 
ATOM      9  N   UNL     1       5.090  -4.363  23.530  0.00  0.00    +0.000 NA
ATOM     10  C   UNL     1       4.691  -5.591  23.104  0.00  0.00    +0.000 C 
ATOM     11  C   UNL     1       6.097  -6.130  22.700  0.00  0.00    +0.000 C 
ATOM     12  C   UNL     1       7.324  -5.381  22.337  0.00  0.00    +0.000 C 
ATOM     13  C   UNL     1       7.971  -4.613  23.625  0.00  0.00    +0.000 C 
ATOM     14  O   UNL     1       8.659  -5.678  24.251  0.00  0.00    +0.000 OA
BRANCH  10  15
ATOM     15  C   UNL     1       4.012  -6.316  24.193  0.00  0.00    +0.000 C 
ATOM     16  O   UNL     1       4.452  -7.660  24.248  0.00  0.00    +0.000 OA
BRANCH  15  17
ATOM     17  S   UNL     1       2.242  -6.299  24.024  0.00  0.00    +0.000 S 
ATOM     18  O   UNL     1       1.931  -5.687  22.760  0.00  0.00    +0.000 OA
ATOM     19  O   UNL     1       1.693  -5.659  25.185  0.00  0.00    +0.000 OA
ATOM     20  N   UNL     1       1.700  -7.860  23.988  0.00  0.00    +0.000 NA
ENDBRANCH  15  17
ENDBRANCH  10  15
ENDBRANCH   7   8
ENDBRANCH   1   7
BRANCH   1  21
ATOM     21  C   UNL     1       7.098  -1.073  23.816  0.00  0.00    +0.000 C 
BRANCH  21  22
ATOM     22  N   UNL     1       7.401  -1.434  22.440  0.00  0.00    +0.000 N 
ATOM     23  C   UNL     1       8.466  -0.663  21.766  0.00  0.00    +0.000 C 
ATOM     24  C   UNL     1       7.783   0.459  20.992  0.00  0.00    +0.000 C 
ATOM     25  N   UNL     1       6.723  -0.061  20.169  0.00  0.00    +0.000 N 
ATOM     26  C   UNL     1       6.086  -1.222  20.448  0.00  0.00    +0.000 C 
ATOM     27  C   UNL     1       6.394  -1.919  21.644  0.00  0.00    +0.000 C 
ATOM     28  C   UNL     1       6.758   0.130  18.827  0.00  0.00    +0.000 C 
ATOM     29  O   UNL     1       7.824   0.074  18.238  0.00  0.00    +0.000 OA
ATOM     30  C   UNL     1       5.604   0.936  18.262  0.00  0.00    +0.000 C 
ENDBRANCH  21  22
ENDBRANCH   1  21
TORSDOF 8
ENDMDL
MODEL 3
REMARK VINA RESULT:      -7.5      3.072      8.555
REMARK  Name = 
REMARK  8 active torsions:
REMARK  status: ('A' for Active; 'I' for Inactive)
REMARK    1  A    between atoms: C_3  and  C_4
REMARK    2  A    between atoms: C_4  and  C_5
REMARK    3  A    between atoms: C_5  and  C_6
REMARK    4  A    between atoms: C_5  and  C_20
REMARK    5  A    between atoms: C_6  and  S_7
REMARK    6  A    between atoms: C_9  and  C_14
REMARK    7  A    between atoms: C_14  and  S_15
REMARK    8  A    between atoms: C_20  and  N_21
REMARK                            x       y       z     vdW  Elec       q    Type
REMARK                         _______ _______ _______ _____ _____    ______ ____
ROOT
ATOM      1  C   UNL     1       7.437  -2.496  24.217  0.00  0.00    +0.000 C 
ENDROOT
BRANCH   1   2
ATOM      2  C   UNL     1       8.046  -3.287  23.114  0.00  0.00    +0.000 C 
BRANCH   2   5
ATOM      3  C   UNL     1       6.341  -6.585  22.073  0.00  0.00    +0.000 C 
ATOM      4  C   UNL     1       7.000  -5.233  21.798  0.00  0.00    +0.000 C 
ATOM      5  C   UNL     1       6.907  -3.986  22.315  0.00  0.00    +0.000 C 
ATOM      6  F   UNL     1       6.435  -3.056  21.381  0.00  0.00    +0.000 F 
ENDBRANCH   2   5
ENDBRANCH   1   2
BRANCH   1   7
ATOM      7  C   UNL     1       7.317  -1.069  23.990  0.00  0.00    +0.000 C 
BRANCH   7   8
ATOM      8  S   UNL     1       7.925  -0.284  22.632  0.00  0.00    +0.000 S 
ATOM      9  N   UNL     1       6.652   0.538  22.129  0.00  0.00    +0.000 NA
ATOM     10  C   UNL     1       6.971   1.052  20.910  0.00  0.00    +0.000 C 
ATOM     11  C   UNL     1       8.319   1.719  21.321  0.00  0.00    +0.000 C 
ATOM     12  C   UNL     1       8.782   2.160  22.658  0.00  0.00    +0.000 C 
ATOM     13  C   UNL     1       9.091   0.895  23.643  0.00  0.00    +0.000 C 
ATOM     14  O   UNL     1      10.375   0.513  23.189  0.00  0.00    +0.000 OA
BRANCH  10  15
ATOM     15  C   UNL     1       7.064  -0.026  19.909  0.00  0.00    +0.000 C 
ATOM     16  O   UNL     1       8.400  -0.182  19.468  0.00  0.00    +0.000 OA
BRANCH  15  17
ATOM     17  S   UNL     1       6.024   0.264  18.496  0.00  0.00    +0.000 S 
ATOM     18  O   UNL     1       4.792   0.834  18.973  0.00  0.00    +0.000 OA
ATOM     19  O   UNL     1       5.909  -0.969  17.771  0.00  0.00    +0.000 OA
ATOM     20  N   UNL     1       6.760   1.374  17.517  0.00  0.00    +0.000 NA
ENDBRANCH  15  17
ENDBRANCH  10  15
ENDBRANCH   7   8
ENDBRANCH   1   7
BRANCH   1  21
ATOM     21  C   UNL     1       6.258  -3.167  24.838  0.00  0.00    +0.000 C 
BRANCH  21  22
ATOM     22  N   UNL     1       6.640  -3.934  26.014  0.00  0.00    +0.000 N 
ATOM     23  C   UNL     1       6.905  -5.374  25.814  0.00  0.00    +0.000 C 
ATOM     24  C   UNL     1       5.612  -6.114  26.136  0.00  0.00    +0.000 C 
ATOM     25  N   UNL     1       5.098  -5.709  27.419  0.00  0.00    +0.000 N 
ATOM     26  C   UNL     1       5.387  -4.508  27.973  0.00  0.00    +0.000 C 
ATOM     27  C   UNL     1       6.146  -3.562  27.238  0.00  0.00    +0.000 C 
ATOM     28  C   UNL     1       4.920  -6.632  28.395  0.00  0.00    +0.000 C 
ATOM     29  O   UNL     1       5.729  -7.536  28.524  0.00  0.00    +0.000 OA
ATOM     30  C   UNL     1       3.488  -6.804  28.865  0.00  0.00    +0.000 C 
ENDBRANCH  21  22
ENDBRANCH   1  21
TORSDOF 8
ENDMDL
MODEL 4
REMARK VINA RESULT:      -7.5      2.593      4.087
REMARK  Name = 
REMARK  8 active torsions:
REMARK  status: ('A' for Active; 'I' for Inactive)
REMARK    1  A    between atoms: C_3  and  C_4
REMARK    2  A    between atoms: C_4  and  C_5
REMARK    3  A    between atoms: C_5  and  C_6
REMARK    4  A    between atoms: C_5  and  C_20
REMARK    5  A    between atoms: C_6  and  S_7
REMARK    6  A    between atoms: C_9  and  C_14
REMARK    7  A    between atoms: C_14  and  S_15
REMARK    8  A    between atoms: C_20  and  N_21
REMARK                            x       y       z     vdW  Elec       q    Type
REMARK                         _______ _______ _______ _____ _____    ______ ____
ROOT
ATOM      1  C   UNL     1       8.167  -2.460  24.495  0.00  0.00    +0.000 C 
ENDROOT
BRANCH   1   2
ATOM      2  C   UNL     1       9.153  -3.561  24.663  0.00  0.00    +0.000 C 
BRANCH   2   5
ATOM      3  C   UNL     1       7.225  -5.837  22.220  0.00  0.00    +0.000 C 
ATOM      4  C   UNL     1       7.416  -5.088  23.538  0.00  0.00    +0.000 C 
ATOM      5  C   UNL     1       8.428  -4.917  24.420  0.00  0.00    +0.000 C 
ATOM      6  F   UNL     1       8.133  -5.453  25.679  0.00  0.00    +0.000 F 
ENDBRANCH   2   5
ENDBRANCH   1   2
BRANCH   1   7
ATOM      7  C   UNL     1       7.408  -2.093  25.675  0.00  0.00    +0.000 C 
BRANCH   7   8
ATOM      8  S   UNL     1       5.777  -2.447  25.883  0.00  0.00    +0.000 S 
ATOM      9  N   UNL     1       5.830  -3.638  26.946  0.00  0.00    +0.000 NA
ATOM     10  C   UNL     1       4.571  -4.145  27.034  0.00  0.00    +0.000 C 
ATOM     11  C   UNL     1       3.830  -2.797  27.289  0.00  0.00    +0.000 C 
ATOM     12  C   UNL     1       4.354  -1.525  27.841  0.00  0.00    +0.000 C 
ATOM     13  C   UNL     1       5.373  -0.785  26.803  0.00  0.00    +0.000 C 
ATOM     14  O   UNL     1       4.455  -0.167  25.922  0.00  0.00    +0.000 OA
BRANCH  10  15
ATOM     15  C   UNL     1       4.215  -4.850  25.790  0.00  0.00    +0.000 C 
ATOM     16  O   UNL     1       2.915  -4.487  25.365  0.00  0.00    +0.000 OA
BRANCH  15  17
ATOM     17  S   UNL     1       4.290  -6.619  25.963  0.00  0.00    +0.000 S 
ATOM     18  O   UNL     1       3.031  -7.056  26.503  0.00  0.00    +0.000 OA
ATOM     19  O   UNL     1       5.454  -6.938  26.739  0.00  0.00    +0.000 OA
ATOM     20  N   UNL     1       4.467  -7.288  24.462  0.00  0.00    +0.000 NA
ENDBRANCH  15  17
ENDBRANCH  10  15
ENDBRANCH   7   8
ENDBRANCH   1   7
BRANCH   1  21
ATOM     21  C   UNL     1       8.683  -1.331  23.666  0.00  0.00    +0.000 C 
BRANCH  21  22
ATOM     22  N   UNL     1       8.480  -1.575  22.247  0.00  0.00    +0.000 N 
ATOM     23  C   UNL     1       9.293  -0.775  21.308  0.00  0.00    +0.000 C 
ATOM     24  C   UNL     1       8.451   0.429  20.903  0.00  0.00    +0.000 C 
ATOM     25  N   UNL     1       7.147   0.014  20.457  0.00  0.00    +0.000 N 
ATOM     26  C   UNL     1       6.580  -1.151  20.851  0.00  0.00    +0.000 C 
ATOM     27  C   UNL     1       7.237  -1.960  21.812  0.00  0.00    +0.000 C 
ATOM     28  C   UNL     1       6.734   0.322  19.204  0.00  0.00    +0.000 C 
ATOM     29  O   UNL     1       7.531   0.291  18.282  0.00  0.00    +0.000 OA
ATOM     30  C   UNL     1       5.503   1.207  19.131  0.00  0.00    +0.000 C 
ENDBRANCH  21  22
ENDBRANCH   1  21
TORSDOF 8
ENDMDL
MODEL 5
REMARK VINA RESULT:      -7.3      3.040      4.600
REMARK  Name = 
REMARK  8 active torsions:
REMARK  status: ('A' for Active; 'I' for Inactive)
REMARK    1  A    between atoms: C_3  and  C_4
REMARK    2  A    between atoms: C_4  and  C_5
REMARK    3  A    between atoms: C_5  and  C_6
REMARK    4  A    between atoms: C_5  and  C_20
REMARK    5  A    between atoms: C_6  and  S_7
REMARK    6  A    between atoms: C_9  and  C_14
REMARK    7  A    between atoms: C_14  and  S_15
REMARK    8  A    between atoms: C_20  and  N_21
REMARK                            x       y       z     vdW  Elec       q    Type
REMARK                         _______ _______ _______ _____ _____    ______ ____
ROOT
ATOM      1  C   UNL     1       8.847  -1.180  22.471  0.00  0.00    +0.000 C 
ENDROOT
BRANCH   1   2
ATOM      2  C   UNL     1       9.281  -0.508  21.217  0.00  0.00    +0.000 C 
BRANCH   2   5
ATOM      3  C   UNL     1       6.311  -0.339  18.764  0.00  0.00    +0.000 C 
ATOM      4  C   UNL     1       7.603   0.180  19.394  0.00  0.00    +0.000 C 
ATOM      5  C   UNL     1       8.085   0.312  20.652  0.00  0.00    +0.000 C 
ATOM      6  F   UNL     1       8.309   1.650  20.999  0.00  0.00    +0.000 F 
ENDBRANCH   2   5
ENDBRANCH   1   2
BRANCH   1   7
ATOM      7  C   UNL     1       7.937  -2.299  22.317  0.00  0.00    +0.000 C 
BRANCH   7   8
ATOM      8  S   UNL     1       7.294  -3.164  23.607  0.00  0.00    +0.000 S 
ATOM      9  N   UNL     1       5.767  -2.698  23.589  0.00  0.00    +0.000 NA
ATOM     10  C   UNL     1       5.194  -3.179  24.725  0.00  0.00    +0.000 C 
ATOM     11  C   UNL     1       5.642  -4.664  24.561  0.00  0.00    +0.000 C 
ATOM     12  C   UNL     1       6.020  -5.403  23.333  0.00  0.00    +0.000 C 
ATOM     13  C   UNL     1       7.447  -4.890  22.730  0.00  0.00    +0.000 C 
ATOM     14  O   UNL     1       8.354  -5.578  23.570  0.00  0.00    +0.000 OA
BRANCH  10  15
ATOM     15  C   UNL     1       5.724  -2.474  25.905  0.00  0.00    +0.000 C 
ATOM     16  O   UNL     1       5.974  -3.383  26.960  0.00  0.00    +0.000 OA
BRANCH  15  17
ATOM     17  S   UNL     1       4.625  -1.204  26.491  0.00  0.00    +0.000 S 
ATOM     18  O   UNL     1       5.018  -0.874  27.835  0.00  0.00    +0.000 OA
ATOM     19  O   UNL     1       3.279  -1.672  26.325  0.00  0.00    +0.000 OA
ATOM     20  N   UNL     1       4.825   0.142  25.551  0.00  0.00    +0.000 NA
ENDBRANCH  15  17
ENDBRANCH  10  15
ENDBRANCH   7   8
ENDBRANCH   1   7
BRANCH   1  21
ATOM     21  C   UNL     1       9.954  -1.361  23.454  0.00  0.00    +0.000 C 
BRANCH  21  22
ATOM     22  N   UNL     1       9.994  -0.273  24.419  0.00  0.00    +0.000 N 
ATOM     23  C   UNL     1       8.733   0.041  25.124  0.00  0.00    +0.000 C 
ATOM     24  C   UNL     1       8.058   1.167  24.350  0.00  0.00    +0.000 C 
ATOM     25  N   UNL     1       8.976   2.253  24.124  0.00  0.00    +0.000 N 
ATOM     26  C   UNL     1      10.318   2.079  24.101  0.00  0.00    +0.000 C 
ATOM     27  C   UNL     1      10.857   0.772  24.206  0.00  0.00    +0.000 C 
ATOM     28  C   UNL     1       8.684   3.490  24.594  0.00  0.00    +0.000 C 
ATOM     29  O   UNL     1       8.138   3.610  25.678  0.00  0.00    +0.000 OA
ATOM     30  C   UNL     1       8.536   4.564  23.532  0.00  0.00    +0.000 C 
ENDBRANCH  21  22
ENDBRANCH   1  21
TORSDOF 8
ENDMDL
MODEL 6
REMARK VINA RESULT:      -7.3      3.611      5.420
REMARK  Name = 
REMARK  8 active torsions:
REMARK  status: ('A' for Active; 'I' for Inactive)
REMARK    1  A    between atoms: C_3  and  C_4
REMARK    2  A    between atoms: C_4  and  C_5
REMARK    3  A    between atoms: C_5  and  C_6
REMARK    4  A    between atoms: C_5  and  C_20
REMARK    5  A    between atoms: C_6  and  S_7
REMARK    6  A    between atoms: C_9  and  C_14
REMARK    7  A    between atoms: C_14  and  S_15
REMARK    8  A    between atoms: C_20  and  N_21
REMARK                            x       y       z     vdW  Elec       q    Type
REMARK                         _______ _______ _______ _____ _____    ______ ____
ROOT
ATOM      1  C   UNL     1       7.934   0.016  22.025  0.00  0.00    +0.000 C 
ENDROOT
BRANCH   1   2
ATOM      2  C   UNL     1       7.384  -0.778  20.894  0.00  0.00    +0.000 C 
BRANCH   2   5
ATOM      3  C   UNL     1       4.891   1.564  19.115  0.00  0.00    +0.000 C 
ATOM      4  C   UNL     1       5.872   0.394  19.175  0.00  0.00    +0.000 C 
ATOM      5  C   UNL     1       7.101   0.183  19.703  0.00  0.00    +0.000 C 
ATOM      6  F   UNL     1       8.062  -0.089  18.722  0.00  0.00    +0.000 F 
ENDBRANCH   2   5
ENDBRANCH   1   2
BRANCH   1   7
ATOM      7  C   UNL     1       8.499  -0.742  23.125  0.00  0.00    +0.000 C 
BRANCH   7   8
ATOM      8  S   UNL     1       7.602  -1.774  24.104  0.00  0.00    +0.000 S 
ATOM      9  N   UNL     1       8.082  -3.211  23.597  0.00  0.00    +0.000 NA
ATOM     10  C   UNL     1       7.265  -4.128  24.180  0.00  0.00    +0.000 C 
ATOM     11  C   UNL     1       7.429  -3.637  25.651  0.00  0.00    +0.000 C 
ATOM     12  C   UNL     1       8.531  -2.859  26.265  0.00  0.00    +0.000 C 
ATOM     13  C   UNL     1       8.560  -1.317  25.731  0.00  0.00    +0.000 C 
ATOM     14  O   UNL     1       7.544  -0.740  26.528  0.00  0.00    +0.000 OA
BRANCH  10  15
ATOM     15  C   UNL     1       5.906  -4.035  23.618  0.00  0.00    +0.000 C 
ATOM     16  O   UNL     1       4.938  -4.382  24.591  0.00  0.00    +0.000 OA
BRANCH  15  17
ATOM     17  S   UNL     1       5.684  -5.073  22.192  0.00  0.00    +0.000 S 
ATOM     18  O   UNL     1       5.774  -4.236  21.026  0.00  0.00    +0.000 OA
ATOM     19  O   UNL     1       4.455  -5.795  22.356  0.00  0.00    +0.000 OA
ATOM     20  N   UNL     1       6.923  -6.166  22.138  0.00  0.00    +0.000 NA
ENDBRANCH  15  17
ENDBRANCH  10  15
ENDBRANCH   7   8
ENDBRANCH   1   7
BRANCH   1  21
ATOM     21  C   UNL     1       8.710   1.211  21.581  0.00  0.00    +0.000 C 
BRANCH  21  22
ATOM     22  N   UNL     1       8.297   2.409  22.295  0.00  0.00    +0.000 N 
ATOM     23  C   UNL     1       9.323   3.084  23.116  0.00  0.00    +0.000 C 
ATOM     24  C   UNL     1       9.170   2.561  24.540  0.00  0.00    +0.000 C 
ATOM     25  N   UNL     1       7.803   2.664  24.977  0.00  0.00    +0.000 N 
ATOM     26  C   UNL     1       6.761   2.687  24.112  0.00  0.00    +0.000 C 
ATOM     27  C   UNL     1       6.999   2.510  22.725  0.00  0.00    +0.000 C 
ATOM     28  C   UNL     1       7.501   3.396  26.076  0.00  0.00    +0.000 C 
ATOM     29  O   UNL     1       8.097   4.439  26.288  0.00  0.00    +0.000 OA
ATOM     30  C   UNL     1       6.879   2.616  27.219  0.00  0.00    +0.000 C 
ENDBRANCH  21  22
ENDBRANCH   1  21
TORSDOF 8
ENDMDL
MODEL 7
REMARK VINA RESULT:      -7.3      2.738      4.277
REMARK  Name = 
REMARK  8 active torsions:
REMARK  status: ('A' for Active; 'I' for Inactive)
REMARK    1  A    between atoms: C_3  and  C_4
REMARK    2  A    between atoms: C_4  and  C_5
REMARK    3  A    between atoms: C_5  and  C_6
REMARK    4  A    between atoms: C_5  and  C_20
REMARK    5  A    between atoms: C_6  and  S_7
REMARK    6  A    between atoms: C_9  and  C_14
REMARK    7  A    between atoms: C_14  and  S_15
REMARK    8  A    between atoms: C_20  and  N_21
REMARK                            x       y       z     vdW  Elec       q    Type
REMARK                         _______ _______ _______ _____ _____    ______ ____
ROOT
ATOM      1  C   UNL     1       9.407   1.208  23.184  0.00  0.00    +0.000 C 
ENDROOT
BRANCH   1   2
ATOM      2  C   UNL     1      10.540   1.894  23.862  0.00  0.00    +0.000 C 
BRANCH   2   5
ATOM      3  C   UNL     1      12.646   4.895  22.670  0.00  0.00    +0.000 C 
ATOM      4  C   UNL     1      11.627   4.207  23.578  0.00  0.00    +0.000 C 
ATOM      5  C   UNL     1      10.571   3.379  23.399  0.00  0.00    +0.000 C 
ATOM      6  F   UNL     1       9.365   3.960  23.810  0.00  0.00    +0.000 F 
ENDBRANCH   2   5
ENDBRANCH   1   2
BRANCH   1   7
ATOM      7  C   UNL     1       8.109   1.338  23.816  0.00  0.00    +0.000 C 
BRANCH   7   8
ATOM      8  S   UNL     1       7.489   0.224  24.913  0.00  0.00    +0.000 S 
ATOM      9  N   UNL     1       8.816  -0.485  25.449  0.00  0.00    +0.000 NA
ATOM     10  C   UNL     1       8.420  -1.552  26.194  0.00  0.00    +0.000 C 
ATOM     11  C   UNL     1       7.418  -0.792  27.116  0.00  0.00    +0.000 C 
ATOM     12  C   UNL     1       7.368   0.648  27.466  0.00  0.00    +0.000 C 
ATOM     13  C   UNL     1       6.918   1.568  26.195  0.00  0.00    +0.000 C 
ATOM     14  O   UNL     1       5.516   1.388  26.219  0.00  0.00    +0.000 OA
BRANCH  10  15
ATOM     15  C   UNL     1       7.836  -2.592  25.329  0.00  0.00    +0.000 C 
ATOM     16  O   UNL     1       6.622  -3.072  25.875  0.00  0.00    +0.000 OA
BRANCH  15  17
ATOM     17  S   UNL     1       8.935  -3.967  25.077  0.00  0.00    +0.000 S 
ATOM     18  O   UNL     1       9.218  -4.539  26.366  0.00  0.00    +0.000 OA
ATOM     19  O   UNL     1      10.069  -3.496  24.333  0.00  0.00    +0.000 OA
ATOM     20  N   UNL     1       8.155  -5.106  24.168  0.00  0.00    +0.000 NA
ENDBRANCH  15  17
ENDBRANCH  10  15
ENDBRANCH   7   8
ENDBRANCH   1   7
BRANCH   1  21
ATOM     21  C   UNL     1       9.434   1.356  21.699  0.00  0.00    +0.000 C 
BRANCH  21  22
ATOM     22  N   UNL     1       9.058   0.119  21.033  0.00  0.00    +0.000 N 
ATOM     23  C   UNL     1       7.884   0.172  20.138  0.00  0.00    +0.000 C 
ATOM     24  C   UNL     1       6.677  -0.268  20.958  0.00  0.00    +0.000 C 
ATOM     25  N   UNL     1       6.941  -1.515  21.626  0.00  0.00    +0.000 N 
ATOM     26  C   UNL     1       8.195  -1.930  21.927  0.00  0.00    +0.000 C 
ATOM     27  C   UNL     1       9.296  -1.074  21.667  0.00  0.00    +0.000 C 
ATOM     28  C   UNL     1       6.151  -2.589  21.384  0.00  0.00    +0.000 C 
ATOM     29  O   UNL     1       5.735  -2.788  20.255  0.00  0.00    +0.000 OA
ATOM     30  C   UNL     1       5.399  -3.121  22.590  0.00  0.00    +0.000 C 
ENDBRANCH  21  22
ENDBRANCH   1  21
TORSDOF 8
ENDMDL
MODEL 8
REMARK VINA RESULT:      -7.2      3.988      7.729
REMARK  Name = 
REMARK  8 active torsions:
REMARK  status: ('A' for Active; 'I' for Inactive)
REMARK    1  A    between atoms: C_3  and  C_4
REMARK    2  A    between atoms: C_4  and  C_5
REMARK    3  A    between atoms: C_5  and  C_6
REMARK    4  A    between atoms: C_5  and  C_20
REMARK    5  A    between atoms: C_6  and  S_7
REMARK    6  A    between atoms: C_9  and  C_14
REMARK    7  A    between atoms: C_14  and  S_15
REMARK    8  A    between atoms: C_20  and  N_21
REMARK                            x       y       z     vdW  Elec       q    Type
REMARK                         _______ _______ _______ _____ _____    ______ ____
ROOT
ATOM      1  C   UNL     1       7.252  -2.933  24.101  0.00  0.00    +0.000 C 
ENDROOT
BRANCH   1   2
ATOM      2  C   UNL     1       7.908  -4.233  23.796  0.00  0.00    +0.000 C 
BRANCH   2   5
ATOM      3  C   UNL     1       4.332  -5.466  23.053  0.00  0.00    +0.000 C 
ATOM      4  C   UNL     1       5.828  -5.660  23.298  0.00  0.00    +0.000 C 
ATOM      5  C   UNL     1       6.966  -5.062  22.875  0.00  0.00    +0.000 C 
ATOM      6  F   UNL     1       7.779  -5.929  22.135  0.00  0.00    +0.000 F 
ENDBRANCH   2   5
ENDBRANCH   1   2
BRANCH   1   7
ATOM      7  C   UNL     1       6.726  -2.200  22.965  0.00  0.00    +0.000 C 
BRANCH   7   8
ATOM      8  S   UNL     1       7.691  -1.456  21.806  0.00  0.00    +0.000 S 
ATOM      9  N   UNL     1       6.923  -0.074  21.574  0.00  0.00    +0.000 NA
ATOM     10  C   UNL     1       7.503   0.524  20.500  0.00  0.00    +0.000 C 
ATOM     11  C   UNL     1       8.980   0.433  20.993  0.00  0.00    +0.000 C 
ATOM     12  C   UNL     1       9.504   0.305  22.373  0.00  0.00    +0.000 C 
ATOM     13  C   UNL     1       9.185  -1.163  23.012  0.00  0.00    +0.000 C 
ATOM     14  O   UNL     1      10.209  -1.939  22.421  0.00  0.00    +0.000 OA
BRANCH  10  15
ATOM     15  C   UNL     1       7.190  -0.221  19.267  0.00  0.00    +0.000 C 
ATOM     16  O   UNL     1       8.367  -0.474  18.524  0.00  0.00    +0.000 OA
BRANCH  15  17
ATOM     17  S   UNL     1       6.028   0.637  18.229  0.00  0.00    +0.000 S 
ATOM     18  O   UNL     1       5.253  -0.355  17.533  0.00  0.00    +0.000 OA
ATOM     19  O   UNL     1       6.764   1.553  17.405  0.00  0.00    +0.000 OA
ATOM     20  N   UNL     1       5.006   1.509  19.190  0.00  0.00    +0.000 NA
ENDBRANCH  15  17
ENDBRANCH  10  15
ENDBRANCH   7   8
ENDBRANCH   1   7
BRANCH   1  21
ATOM     21  C   UNL     1       6.383  -2.984  25.313  0.00  0.00    +0.000 C 
BRANCH  21  22
ATOM     22  N   UNL     1       6.686  -1.896  26.230  0.00  0.00    +0.000 N 
ATOM     23  C   UNL     1       5.641  -0.868  26.415  0.00  0.00    +0.000 C 
ATOM     24  C   UNL     1       5.962   0.271  25.453  0.00  0.00    +0.000 C 
ATOM     25  N   UNL     1       7.332   0.689  25.596  0.00  0.00    +0.000 N 
ATOM     26  C   UNL     1       8.297  -0.130  26.075  0.00  0.00    +0.000 C 
ATOM     27  C   UNL     1       7.987  -1.484  26.364  0.00  0.00    +0.000 C 
ATOM     28  C   UNL     1       7.613   1.971  25.931  0.00  0.00    +0.000 C 
ATOM     29  O   UNL     1       6.902   2.554  26.733  0.00  0.00    +0.000 OA
ATOM     30  C   UNL     1       8.411   2.747  24.900  0.00  0.00    +0.000 C 
ENDBRANCH  21  22
ENDBRANCH   1  21
TORSDOF 8
ENDMDL
MODEL 9
REMARK VINA RESULT:      -7.1      3.621      6.379
REMARK  Name = 
REMARK  8 active torsions:
REMARK  status: ('A' for Active; 'I' for Inactive)
REMARK    1  A    between atoms: C_3  and  C_4
REMARK    2  A    between atoms: C_4  and  C_5
REMARK    3  A    between atoms: C_5  and  C_6
REMARK    4  A    between atoms: C_5  and  C_20
REMARK    5  A    between atoms: C_6  and  S_7
REMARK    6  A    between atoms: C_9  and  C_14
REMARK    7  A    between atoms: C_14  and  S_15
REMARK    8  A    between atoms: C_20  and  N_21
REMARK                            x       y       z     vdW  Elec       q    Type
REMARK                         _______ _______ _______ _____ _____    ______ ____
ROOT
ATOM      1  C   UNL     1       6.174  -2.846  25.758  0.00  0.00    +0.000 C 
ENDROOT
BRANCH   1   2
ATOM      2  C   UNL     1       6.483  -3.620  26.990  0.00  0.00    +0.000 C 
BRANCH   2   5
ATOM      3  C   UNL     1       9.692  -5.115  25.461  0.00  0.00    +0.000 C 
ATOM      4  C   UNL     1       8.177  -4.940  25.577  0.00  0.00    +0.000 C 
ATOM      5  C   UNL     1       7.280  -4.895  26.589  0.00  0.00    +0.000 C 
ATOM      6  F   UNL     1       6.360  -5.949  26.532  0.00  0.00    +0.000 F 
ENDBRANCH   2   5
ENDBRANCH   1   2
BRANCH   1   7
ATOM      7  C   UNL     1       5.057  -3.323  24.966  0.00  0.00    +0.000 C 
BRANCH   7   8
ATOM      8  S   UNL     1       5.140  -3.602  23.309  0.00  0.00    +0.000 S 
ATOM      9  N   UNL     1       6.665  -3.250  22.990  0.00  0.00    +0.000 NA
ATOM     10  C   UNL     1       6.793  -3.241  21.637  0.00  0.00    +0.000 C 
ATOM     11  C   UNL     1       6.159  -4.640  21.366  0.00  0.00    +0.000 C 
ATOM     12  C   UNL     1       6.028  -5.805  22.274  0.00  0.00    +0.000 C 
ATOM     13  C   UNL     1       4.947  -5.529  23.466  0.00  0.00    +0.000 C 
ATOM     14  O   UNL     1       3.732  -5.768  22.783  0.00  0.00    +0.000 OA
BRANCH  10  15
ATOM     15  C   UNL     1       6.078  -2.088  21.061  0.00  0.00    +0.000 C 
ATOM     16  O   UNL     1       5.475  -2.439  19.830  0.00  0.00    +0.000 OA
BRANCH  15  17
ATOM     17  S   UNL     1       7.140  -0.686  20.802  0.00  0.00    +0.000 S 
ATOM     18  O   UNL     1       8.498  -1.136  20.951  0.00  0.00    +0.000 OA
ATOM     19  O   UNL     1       6.721   0.358  21.693  0.00  0.00    +0.000 OA
ATOM     20  N   UNL     1       6.941  -0.154  19.250  0.00  0.00    +0.000 NA
ENDBRANCH  15  17
ENDBRANCH  10  15
ENDBRANCH   7   8
ENDBRANCH   1   7
BRANCH   1  21
ATOM     21  C   UNL     1       6.259  -1.369  25.955  0.00  0.00    +0.000 C 
BRANCH  21  22
ATOM     22  N   UNL     1       7.640  -0.912  25.968  0.00  0.00    +0.000 N 
ATOM     23  C   UNL     1       7.871   0.505  26.316  0.00  0.00    +0.000 C 
ATOM     24  C   UNL     1       7.955   1.279  25.005  0.00  0.00    +0.000 C 
ATOM     25  N   UNL     1       8.893   0.658  24.107  0.00  0.00    +0.000 N 
ATOM     26  C   UNL     1       9.212  -0.655  24.179  0.00  0.00    +0.000 C 
ATOM     27  C   UNL     1       8.538  -1.489  25.107  0.00  0.00    +0.000 C 
ATOM     28  C   UNL     1       9.959   1.363  23.654  0.00  0.00    +0.000 C 
ATOM     29  O   UNL     1      10.531   2.136  24.403  0.00  0.00    +0.000 OA
ATOM     30  C   UNL     1      10.006   1.564  22.151  0.00  0.00    +0.000 C 
ENDBRANCH  21  22
ENDBRANCH   1  21
TORSDOF 8
ENDMDL
