MODEL 1
REMARK VINA RESULT:      -6.2      0.000      0.000
REMARK  Name = 
REMARK  4 active torsions:
REMARK  status: ('A' for Active; 'I' for Inactive)
REMARK    1  A    between atoms: C_2  and  N_3
REMARK    2  A    between atoms: N_3  and  C_4
REMARK    3  A    between atoms: C_9  and  N_10
REMARK    4  A    between atoms: N_10  and  C_11
REMARK                            x       y       z     vdW  Elec       q    Type
REMARK                         _______ _______ _______ _____ _____    ______ ____
ROOT
ATOM      1  C   UNL     1       7.681  -0.086  20.630  0.00  0.00    +0.000 A 
ATOM      2  C   UNL     1       7.102   1.378  21.205  0.00  0.00    +0.000 A 
ATOM      3  C   UNL     1       8.224   2.079  21.878  0.00  0.00    +0.000 A 
ATOM      4  C   UNL     1       9.584   1.808  22.310  0.00  0.00    +0.000 A 
ATOM      5  C   UNL     1      10.094   0.436  21.931  0.00  0.00    +0.000 A 
ATOM      6  C   UNL     1       8.974  -0.404  21.215  0.00  0.00    +0.000 A 
ATOM      7  F   UNL     1       9.716   2.056  23.594  0.00  0.00    +0.000 F 
ENDROOT
BRANCH   1   8
ATOM      8  N   UNL     1       7.607   0.171  19.233  0.00  0.00    +0.000 NA
BRANCH   8  10
ATOM      9  C   UNL     1       5.819   1.032  17.827  0.00  0.00    +0.000 C 
ATOM     10  C   UNL     1       6.364  -0.178  18.576  0.00  0.00    +0.000 C 
ENDBRANCH   8  10
ENDBRANCH   1   8
BRANCH   6  11
ATOM     11  N   UNL     1       9.010  -1.648  21.941  0.00  0.00    +0.000 NA
BRANCH  11  12
ATOM     12  C   UNL     1       7.746  -1.968  22.590  0.00  0.00    +0.000 C 
ATOM     13  C   UNL     1       7.727  -1.392  23.991  0.00  0.00    +0.000 C 
ATOM     14  C   UNL     1       8.878  -1.967  24.798  0.00  0.00    +0.000 C 
ATOM     15  C   UNL     1       8.841  -3.466  24.789  0.00  0.00    +0.000 C 
ATOM     16  C   UNL     1       7.730  -4.042  23.997  0.00  0.00    +0.000 C 
ATOM     17  C   UNL     1       7.568  -3.467  22.623  0.00  0.00    +0.000 C 
ATOM     18  O   UNL     1      10.073  -3.973  24.396  0.00  0.00    +0.000 OA
ENDBRANCH  11  12
ENDBRANCH   6  11
TORSDOF 4
ENDMDL
MODEL 2
REMARK VINA RESULT:      -6.1      2.824      4.725
REMARK  Name = 
REMARK  4 active torsions:
REMARK  status: ('A' for Active; 'I' for Inactive)
REMARK    1  A    between atoms: C_2  and  N_3
REMARK    2  A    between atoms: N_3  and  C_4
REMARK    3  A    between atoms: C_9  and  N_10
REMARK    4  A    between atoms: N_10  and  C_11
REMARK                            x       y       z     vdW  Elec       q    Type
REMARK                         _______ _______ _______ _____ _____    ______ ____
ROOT
ATOM      1  C   UNL     1       9.244  -2.298  23.206  0.00  0.00    +0.000 A 
ATOM      2  C   UNL     1      10.359  -1.377  22.359  0.00  0.00    +0.000 A 
ATOM      3  C   UNL     1       9.607  -0.415  21.514  0.00  0.00    +0.000 A 
ATOM      4  C   UNL     1       8.239  -0.157  21.099  0.00  0.00    +0.000 A 
ATOM      5  C   UNL     1       7.215  -1.067  21.739  0.00  0.00    +0.000 A 
ATOM      6  C   UNL     1       7.907  -2.140  22.655  0.00  0.00    +0.000 A 
ATOM      7  F   UNL     1       8.151  -0.145  19.788  0.00  0.00    +0.000 F 
ENDROOT
BRANCH   1   8
ATOM      8  N   UNL     1       9.503  -1.817  24.520  0.00  0.00    +0.000 NA
BRANCH   8  10
ATOM      9  C   UNL     1       8.091  -1.741  26.498  0.00  0.00    +0.000 C 
ATOM     10  C   UNL     1       8.431  -1.087  25.165  0.00  0.00    +0.000 C 
ENDBRANCH   8  10
ENDBRANCH   1   8
BRANCH   6  11
ATOM     11  N   UNL     1       7.301  -3.368  22.206  0.00  0.00    +0.000 NA
BRANCH  11  12
ATOM     12  C   UNL     1       7.578  -4.497  23.082  0.00  0.00    +0.000 C 
ATOM     13  C   UNL     1       7.387  -5.795  22.324  0.00  0.00    +0.000 C 
ATOM     14  C   UNL     1       5.962  -5.883  21.808  0.00  0.00    +0.000 C 
ATOM     15  C   UNL     1       4.977  -5.718  22.927  0.00  0.00    +0.000 C 
ATOM     16  C   UNL     1       5.596  -5.488  24.253  0.00  0.00    +0.000 C 
ATOM     17  C   UNL     1       6.661  -4.435  24.280  0.00  0.00    +0.000 C 
ATOM     18  O   UNL     1       4.053  -4.730  22.610  0.00  0.00    +0.000 OA
ENDBRANCH  11  12
ENDBRANCH   6  11
TORSDOF 4
ENDMDL
MODEL 3
REMARK VINA RESULT:      -5.7      1.630      2.125
REMARK  Name = 
REMARK  4 active torsions:
REMARK  status: ('A' for Active; 'I' for Inactive)
REMARK    1  A    between atoms: C_2  and  N_3
REMARK    2  A    between atoms: N_3  and  C_4
REMARK    3  A    between atoms: C_9  and  N_10
REMARK    4  A    between atoms: N_10  and  C_11
REMARK                            x       y       z     vdW  Elec       q    Type
REMARK                         _______ _______ _______ _____ _____    ______ ____
ROOT
ATOM      1  C   UNL     1       7.348  -0.202  21.227  0.00  0.00    +0.000 A 
ATOM      2  C   UNL     1       8.407   1.096  21.291  0.00  0.00    +0.000 A 
ATOM      3  C   UNL     1       9.705   0.599  21.814  0.00  0.00    +0.000 A 
ATOM      4  C   UNL     1      10.256  -0.602  22.416  0.00  0.00    +0.000 A 
ATOM      5  C   UNL     1       9.283  -1.755  22.504  0.00  0.00    +0.000 A 
ATOM      6  C   UNL     1       7.861  -1.335  21.983  0.00  0.00    +0.000 A 
ATOM      7  F   UNL     1      10.811  -0.322  23.575  0.00  0.00    +0.000 F 
ENDROOT
BRANCH   1   8
ATOM      8  N   UNL     1       7.221  -0.324  19.816  0.00  0.00    +0.000 NA
BRANCH   8  10
ATOM      9  C   UNL     1       5.488   0.570  18.363  0.00  0.00    +0.000 C 
ATOM     10  C   UNL     1       5.887  -0.559  19.304  0.00  0.00    +0.000 C 
ENDBRANCH   8  10
ENDBRANCH   1   8
BRANCH   6  11
ATOM     11  N   UNL     1       6.997  -1.781  23.046  0.00  0.00    +0.000 NA
BRANCH  11  12
ATOM     12  C   UNL     1       5.916  -2.639  22.583  0.00  0.00    +0.000 C 
ATOM     13  C   UNL     1       5.269  -3.335  23.763  0.00  0.00    +0.000 C 
ATOM     14  C   UNL     1       6.305  -4.166  24.499  0.00  0.00    +0.000 C 
ATOM     15  C   UNL     1       6.984  -5.124  23.566  0.00  0.00    +0.000 C 
ATOM     16  C   UNL     1       6.522  -5.034  22.161  0.00  0.00    +0.000 C 
ATOM     17  C   UNL     1       6.465  -3.646  21.601  0.00  0.00    +0.000 C 
ATOM     18  O   UNL     1       8.364  -4.992  23.665  0.00  0.00    +0.000 OA
ENDBRANCH  11  12
ENDBRANCH   6  11
TORSDOF 4
ENDMDL
MODEL 4
REMARK VINA RESULT:      -5.7      2.754      5.219
REMARK  Name = 
REMARK  4 active torsions:
REMARK  status: ('A' for Active; 'I' for Inactive)
REMARK    1  A    between atoms: C_2  and  N_3
REMARK    2  A    between atoms: N_3  and  C_4
REMARK    3  A    between atoms: C_9  and  N_10
REMARK    4  A    between atoms: N_10  and  C_11
REMARK                            x       y       z     vdW  Elec       q    Type
REMARK                         _______ _______ _______ _____ _____    ______ ____
ROOT
ATOM      1  C   UNL     1       7.225  -1.348  22.014  0.00  0.00    +0.000 A 
ATOM      2  C   UNL     1       6.013  -2.200  21.231  0.00  0.00    +0.000 A 
ATOM      3  C   UNL     1       5.834  -1.603  19.883  0.00  0.00    +0.000 A 
ATOM      4  C   UNL     1       6.272  -0.438  19.134  0.00  0.00    +0.000 A 
ATOM      5  C   UNL     1       7.264   0.435  19.868  0.00  0.00    +0.000 A 
ATOM      6  C   UNL     1       7.522  -0.103  21.322  0.00  0.00    +0.000 A 
ATOM      7  F   UNL     1       5.236   0.240  18.691  0.00  0.00    +0.000 F 
ENDROOT
BRANCH   1   8
ATOM      8  N   UNL     1       8.224  -2.360  22.058  0.00  0.00    +0.000 NA
BRANCH   8  10
ATOM      9  C   UNL     1       9.906  -2.362  23.814  0.00  0.00    +0.000 C 
ATOM     10  C   UNL     1       9.566  -1.931  22.393  0.00  0.00    +0.000 C 
ENDBRANCH   8  10
ENDBRANCH   1   8
BRANCH   6  11
ATOM     11  N   UNL     1       7.347   1.080  22.126  0.00  0.00    +0.000 NA
BRANCH  11  12
ATOM     12  C   UNL     1       8.242   2.165  21.749  0.00  0.00    +0.000 C 
ATOM     13  C   UNL     1       9.666   1.813  22.128  0.00  0.00    +0.000 C 
ATOM     14  C   UNL     1       9.753   1.571  23.625  0.00  0.00    +0.000 C 
ATOM     15  C   UNL     1       9.227   2.751  24.389  0.00  0.00    +0.000 C 
ATOM     16  C   UNL     1       8.729   3.854  23.536  0.00  0.00    +0.000 C 
ATOM     17  C   UNL     1       7.802   3.435  22.436  0.00  0.00    +0.000 C 
ATOM     18  O   UNL     1       8.272   2.337  25.309  0.00  0.00    +0.000 OA
ENDBRANCH  11  12
ENDBRANCH   6  11
TORSDOF 4
ENDMDL
MODEL 5
REMARK VINA RESULT:      -5.7      2.652      3.799
REMARK  Name = 
REMARK  4 active torsions:
REMARK  status: ('A' for Active; 'I' for Inactive)
REMARK    1  A    between atoms: C_2  and  N_3
REMARK    2  A    between atoms: N_3  and  C_4
REMARK    3  A    between atoms: C_9  and  N_10
REMARK    4  A    between atoms: N_10  and  C_11
REMARK                            x       y       z     vdW  Elec       q    Type
REMARK                         _______ _______ _______ _____ _____    ______ ____
ROOT
ATOM      1  C   UNL     1       7.305  -0.685  22.505  0.00  0.00    +0.000 A 
ATOM      2  C   UNL     1       6.965   0.100  23.946  0.00  0.00    +0.000 A 
ATOM      3  C   UNL     1       7.984  -0.317  24.943  0.00  0.00    +0.000 A 
ATOM      4  C   UNL     1       9.051  -1.293  25.077  0.00  0.00    +0.000 A 
ATOM      5  C   UNL     1       9.293  -2.122  23.835  0.00  0.00    +0.000 A 
ATOM      6  C   UNL     1       8.256  -1.767  22.709  0.00  0.00    +0.000 A 
ATOM      7  F   UNL     1       8.866  -2.033  26.147  0.00  0.00    +0.000 F 
ENDROOT
BRANCH   1   8
ATOM      8  N   UNL     1       7.702   0.435  21.723  0.00  0.00    +0.000 NA
BRANCH   8  10
ATOM      9  C   UNL     1       9.877   1.491  21.980  0.00  0.00    +0.000 C 
ATOM     10  C   UNL     1       9.067   0.435  21.239  0.00  0.00    +0.000 C 
ENDBRANCH   8  10
ENDBRANCH   1   8
BRANCH   6  11
ATOM     11  N   UNL     1       7.772  -3.066  22.314  0.00  0.00    +0.000 NA
BRANCH  11  12
ATOM     12  C   UNL     1       7.034  -3.747  23.369  0.00  0.00    +0.000 C 
ATOM     13  C   UNL     1       7.554  -5.160  23.531  0.00  0.00    +0.000 C 
ATOM     14  C   UNL     1       7.398  -5.918  22.224  0.00  0.00    +0.000 C 
ATOM     15  C   UNL     1       5.976  -5.877  21.748  0.00  0.00    +0.000 C 
ATOM     16  C   UNL     1       5.064  -5.107  22.625  0.00  0.00    +0.000 C 
ATOM     17  C   UNL     1       5.564  -3.752  23.024  0.00  0.00    +0.000 C 
ATOM     18  O   UNL     1       5.924  -5.435  20.432  0.00  0.00    +0.000 OA
ENDBRANCH  11  12
ENDBRANCH   6  11
TORSDOF 4
ENDMDL
MODEL 6
REMARK VINA RESULT:      -5.6      2.067      2.761
REMARK  Name = 
REMARK  4 active torsions:
REMARK  status: ('A' for Active; 'I' for Inactive)
REMARK    1  A    between atoms: C_2  and  N_3
REMARK    2  A    between atoms: N_3  and  C_4
REMARK    3  A    between atoms: C_9  and  N_10
REMARK    4  A    between atoms: N_10  and  C_11
REMARK                            x       y       z     vdW  Elec       q    Type
REMARK                         _______ _______ _______ _____ _____    ______ ____
ROOT
ATOM      1  C   UNL     1       7.579   0.058  23.975  0.00  0.00    +0.000 A 
ATOM      2  C   UNL     1       8.211   1.600  24.143  0.00  0.00    +0.000 A 
ATOM      3  C   UNL     1       9.691   1.498  24.058  0.00  0.00    +0.000 A 
ATOM      4  C   UNL     1      10.718   0.472  24.037  0.00  0.00    +0.000 A 
ATOM      5  C   UNL     1      10.183  -0.942  24.027  0.00  0.00    +0.000 A 
ATOM      6  C   UNL     1       8.615  -0.953  24.124  0.00  0.00    +0.000 A 
ATOM      7  F   UNL     1      11.590   0.673  25.000  0.00  0.00    +0.000 F 
ENDROOT
BRANCH   1   8
ATOM      8  N   UNL     1       6.947   0.207  22.709  0.00  0.00    +0.000 NA
BRANCH   8  10
ATOM      9  C   UNL     1       8.118   0.321  20.581  0.00  0.00    +0.000 C 
ATOM     10  C   UNL     1       7.479  -0.589  21.622  0.00  0.00    +0.000 C 
ENDBRANCH   8  10
ENDBRANCH   1   8
BRANCH   6  11
ATOM     11  N   UNL     1       8.377  -1.896  25.188  0.00  0.00    +0.000 NA
BRANCH  11  12
ATOM     12  C   UNL     1       7.324  -2.853  24.879  0.00  0.00    +0.000 C 
ATOM     13  C   UNL     1       7.101  -3.772  26.063  0.00  0.00    +0.000 C 
ATOM     14  C   UNL     1       8.387  -4.510  26.389  0.00  0.00    +0.000 C 
ATOM     15  C   UNL     1       8.906  -5.237  25.184  0.00  0.00    +0.000 C 
ATOM     16  C   UNL     1       8.083  -5.060  23.965  0.00  0.00    +0.000 C 
ATOM     17  C   UNL     1       7.713  -3.642  23.652  0.00  0.00    +0.000 C 
ATOM     18  O   UNL     1      10.237  -4.905  24.961  0.00  0.00    +0.000 OA
ENDBRANCH  11  12
ENDBRANCH   6  11
TORSDOF 4
ENDMDL
MODEL 7
REMARK VINA RESULT:      -5.6      2.970      5.370
REMARK  Name = 
REMARK  4 active torsions:
REMARK  status: ('A' for Active; 'I' for Inactive)
REMARK    1  A    between atoms: C_2  and  N_3
REMARK    2  A    between atoms: N_3  and  C_4
REMARK    3  A    between atoms: C_9  and  N_10
REMARK    4  A    between atoms: N_10  and  C_11
REMARK                            x       y       z     vdW  Elec       q    Type
REMARK                         _______ _______ _______ _____ _____    ______ ____
ROOT
ATOM      1  C   UNL     1       6.437  -3.412  22.279  0.00  0.00    +0.000 A 
ATOM      2  C   UNL     1       7.135  -4.916  22.038  0.00  0.00    +0.000 A 
ATOM      3  C   UNL     1       7.813  -5.311  23.300  0.00  0.00    +0.000 A 
ATOM      4  C   UNL     1       8.173  -4.725  24.579  0.00  0.00    +0.000 A 
ATOM      5  C   UNL     1       7.678  -3.310  24.776  0.00  0.00    +0.000 A 
ATOM      6  C   UNL     1       6.948  -2.784  23.487  0.00  0.00    +0.000 A 
ATOM      7  F   UNL     1       9.466  -4.840  24.789  0.00  0.00    +0.000 F 
ENDROOT
BRANCH   1   8
ATOM      8  N   UNL     1       5.065  -3.786  22.231  0.00  0.00    +0.000 NA
BRANCH   8  10
ATOM      9  C   UNL     1       3.474  -5.194  23.414  0.00  0.00    +0.000 C 
ATOM     10  C   UNL     1       4.405  -3.991  23.504  0.00  0.00    +0.000 C 
ENDBRANCH   8  10
ENDBRANCH   1   8
BRANCH   6  11
ATOM     11  N   UNL     1       7.582  -1.508  23.272  0.00  0.00    +0.000 NA
BRANCH  11  12
ATOM     12  C   UNL     1       8.503  -1.510  22.145  0.00  0.00    +0.000 C 
ATOM     13  C   UNL     1       9.922  -1.699  22.641  0.00  0.00    +0.000 C 
ATOM     14  C   UNL     1      10.285  -0.577  23.599  0.00  0.00    +0.000 C 
ATOM     15  C   UNL     1      10.070   0.763  22.959  0.00  0.00    +0.000 C 
ATOM     16  C   UNL     1       9.544   0.698  21.576  0.00  0.00    +0.000 C 
ATOM     17  C   UNL     1       8.368  -0.211  21.388  0.00  0.00    +0.000 C 
ATOM     18  O   UNL     1       9.281   1.562  23.776  0.00  0.00    +0.000 OA
ENDBRANCH  11  12
ENDBRANCH   6  11
TORSDOF 4
ENDMDL
MODEL 8
REMARK VINA RESULT:      -5.6      3.014      4.407
REMARK  Name = 
REMARK  4 active torsions:
REMARK  status: ('A' for Active; 'I' for Inactive)
REMARK    1  A    between atoms: C_2  and  N_3
REMARK    2  A    between atoms: N_3  and  C_4
REMARK    3  A    between atoms: C_9  and  N_10
REMARK    4  A    between atoms: N_10  and  C_11
REMARK                            x       y       z     vdW  Elec       q    Type
REMARK                         _______ _______ _______ _____ _____    ______ ____
ROOT
ATOM      1  C   UNL     1       9.861  -1.225  24.039  0.00  0.00    +0.000 A 
ATOM      2  C   UNL     1      10.244  -1.379  22.415  0.00  0.00    +0.000 A 
ATOM      3  C   UNL     1       9.017  -1.096  21.629  0.00  0.00    +0.000 A 
ATOM      4  C   UNL     1       7.596  -0.893  21.851  0.00  0.00    +0.000 A 
ATOM      5  C   UNL     1       7.190  -0.889  23.307  0.00  0.00    +0.000 A 
ATOM      6  C   UNL     1       8.420  -1.191  24.237  0.00  0.00    +0.000 A 
ATOM      7  F   UNL     1       6.893  -1.741  21.134  0.00  0.00    +0.000 F 
ENDROOT
BRANCH   1   8
ATOM      8  N   UNL     1      10.620  -0.061  24.344  0.00  0.00    +0.000 NA
BRANCH   8  10
ATOM      9  C   UNL     1      10.335   2.222  23.559  0.00  0.00    +0.000 C 
ATOM     10  C   UNL     1       9.874   1.163  24.551  0.00  0.00    +0.000 C 
ENDBRANCH   8  10
ENDBRANCH   1   8
BRANCH   6  11
ATOM     11  N   UNL     1       7.913  -2.233  25.094  0.00  0.00    +0.000 NA
BRANCH  11  12
ATOM     12  C   UNL     1       8.722  -3.443  25.063  0.00  0.00    +0.000 C 
ATOM     13  C   UNL     1       8.161  -4.411  24.041  0.00  0.00    +0.000 C 
ATOM     14  C   UNL     1       6.727  -4.761  24.398  0.00  0.00    +0.000 C 
ATOM     15  C   UNL     1       6.638  -5.286  25.800  0.00  0.00    +0.000 C 
ATOM     16  C   UNL     1       7.933  -5.325  26.518  0.00  0.00    +0.000 C 
ATOM     17  C   UNL     1       8.739  -4.065  26.439  0.00  0.00    +0.000 C 
ATOM     18  O   UNL     1       5.673  -4.586  26.514  0.00  0.00    +0.000 OA
ENDBRANCH  11  12
ENDBRANCH   6  11
TORSDOF 4
ENDMDL
MODEL 9
REMARK VINA RESULT:      -5.5      2.178      3.783
REMARK  Name = 
REMARK  4 active torsions:
REMARK  status: ('A' for Active; 'I' for Inactive)
REMARK    1  A    between atoms: C_2  and  N_3
REMARK    2  A    between atoms: N_3  and  C_4
REMARK    3  A    between atoms: C_9  and  N_10
REMARK    4  A    between atoms: N_10  and  C_11
REMARK                            x       y       z     vdW  Elec       q    Type
REMARK                         _______ _______ _______ _____ _____    ______ ____
ROOT
ATOM      1  C   UNL     1       8.274  -0.295  23.043  0.00  0.00    +0.000 A 
ATOM      2  C   UNL     1       9.167   0.841  22.193  0.00  0.00    +0.000 A 
ATOM      3  C   UNL     1       8.545   0.999  20.854  0.00  0.00    +0.000 A 
ATOM      4  C   UNL     1       7.526   0.363  20.037  0.00  0.00    +0.000 A 
ATOM      5  C   UNL     1       6.793  -0.765  20.726  0.00  0.00    +0.000 A 
ATOM      6  C   UNL     1       7.381  -1.028  22.160  0.00  0.00    +0.000 A 
ATOM      7  F   UNL     1       8.026   0.003  18.876  0.00  0.00    +0.000 F 
ENDROOT
BRANCH   1   8
ATOM      8  N   UNL     1       7.710   0.554  24.035  0.00  0.00    +0.000 NA
BRANCH   8  10
ATOM      9  C   UNL     1       9.013  -0.844  25.539  0.00  0.00    +0.000 C 
ATOM     10  C   UNL     1       8.305   0.493  25.354  0.00  0.00    +0.000 C 
ENDBRANCH   8  10
ENDBRANCH   1   8
BRANCH   6  11
ATOM     11  N   UNL     1       7.590  -2.454  22.151  0.00  0.00    +0.000 NA
BRANCH  11  12
ATOM     12  C   UNL     1       6.352  -3.214  22.235  0.00  0.00    +0.000 C 
ATOM     13  C   UNL     1       5.838  -3.205  23.660  0.00  0.00    +0.000 C 
ATOM     14  C   UNL     1       6.877  -3.814  24.585  0.00  0.00    +0.000 C 
ATOM     15  C   UNL     1       7.268  -5.186  24.121  0.00  0.00    +0.000 C 
ATOM     16  C   UNL     1       6.587  -5.625  22.881  0.00  0.00    +0.000 C 
ATOM     17  C   UNL     1       6.602  -4.627  21.764  0.00  0.00    +0.000 C 
ATOM     18  O   UNL     1       8.650  -5.279  24.013  0.00  0.00    +0.000 OA
ENDBRANCH  11  12
ENDBRANCH   6  11
TORSDOF 4
ENDMDL
