MODEL 1
REMARK VINA RESULT:      -6.4      0.000      0.000
REMARK  Name = 
REMARK  7 active torsions:
REMARK  status: ('A' for Active; 'I' for Inactive)
REMARK    1  A    between atoms: C_2  and  N_3
REMARK    2  A    between atoms: N_3  and  C_4
REMARK    3  A    between atoms: C_8  and  C_9
REMARK    4  A    between atoms: C_9  and  C_10
REMARK    5  A    between atoms: C_15  and  N_16
REMARK    6  A    between atoms: N_16  and  C_17
REMARK    7  A    between atoms: C_17  and  C_18
REMARK                            x       y       z     vdW  Elec       q    Type
REMARK                         _______ _______ _______ _____ _____    ______ ____
ROOT
ATOM      1  C   UNL     1       8.530  -2.058  22.540  0.00  0.00    +0.000 C 
ATOM      2  N   UNL     1       8.898  -1.332  23.755  0.00  0.00    +0.000 NA
ATOM      3  C   UNL     1       9.478  -0.317  24.018  0.00  0.00    +0.000 C 
ATOM      4  C   UNL     1      10.206   0.571  23.070  0.00  0.00    +0.000 C 
ATOM      5  C   UNL     1       9.791   0.120  21.800  0.00  0.00    +0.000 C 
ATOM      6  C   UNL     1       8.711  -0.908  21.449  0.00  0.00    +0.000 C 
ATOM      7 CL   UNL     1      10.097   2.177  23.485  0.00  0.00    +0.000 Cl
ENDROOT
BRANCH   1   8
ATOM      8  C   UNL     1       7.084  -2.453  22.534  0.00  0.00    +0.000 C 
BRANCH   8  13
ATOM      9  C   UNL     1       7.893  -4.736  23.177  0.00  0.00    +0.000 C 
ATOM     10  C   UNL     1       7.273  -5.836  22.264  0.00  0.00    +0.000 C 
ATOM     11  C   UNL     1       5.714  -5.494  22.298  0.00  0.00    +0.000 C 
ATOM     12  C   UNL     1       5.515  -4.296  23.103  0.00  0.00    +0.000 C 
ATOM     13  C   UNL     1       6.828  -3.633  23.429  0.00  0.00    +0.000 C 
ATOM     14  F   UNL     1       4.478  -3.589  22.732  0.00  0.00    +0.000 F 
BRANCH   9  15
ATOM     15  N   UNL     1       8.132  -5.379  24.466  0.00  0.00    +0.000 NA
BRANCH  15  17
ATOM     16  C   UNL     1       8.978  -4.536  26.576  0.00  0.00    +0.000 C 
ATOM     17  C   UNL     1       9.228  -4.674  25.082  0.00  0.00    +0.000 C 
ENDBRANCH  15  17
ENDBRANCH   9  15
ENDBRANCH   8  13
ENDBRANCH   1   8
BRANCH   6  18
ATOM     18  N   UNL     1       7.435  -0.191  21.523  0.00  0.00    +0.000 NA
BRANCH  18  19
ATOM     19  C   UNL     1       7.445   0.810  20.492  0.00  0.00    +0.000 C 
BRANCH  19  20
ATOM     20  C   UNL     1       6.987   0.216  19.185  0.00  0.00    +0.000 C 
ATOM     21  O   UNL     1       7.714   0.025  18.251  0.00  0.00    +0.000 OA
ATOM     22  O   UNL     1       5.874  -0.470  19.417  0.00  0.00    +0.000 OA
ENDBRANCH  19  20
ENDBRANCH  18  19
ENDBRANCH   6  18
TORSDOF 7
ENDMDL
MODEL 2
REMARK VINA RESULT:      -6.4      3.083      5.595
REMARK  Name = 
REMARK  7 active torsions:
REMARK  status: ('A' for Active; 'I' for Inactive)
REMARK    1  A    between atoms: C_2  and  N_3
REMARK    2  A    between atoms: N_3  and  C_4
REMARK    3  A    between atoms: C_8  and  C_9
REMARK    4  A    between atoms: C_9  and  C_10
REMARK    5  A    between atoms: C_15  and  N_16
REMARK    6  A    between atoms: N_16  and  C_17
REMARK    7  A    between atoms: C_17  and  C_18
REMARK                            x       y       z     vdW  Elec       q    Type
REMARK                         _______ _______ _______ _____ _____    ______ ____
ROOT
ATOM      1  C   UNL     1       8.582  -1.378  22.992  0.00  0.00    +0.000 C 
ATOM      2  N   UNL     1       9.686  -2.184  23.512  0.00  0.00    +0.000 NA
ATOM      3  C   UNL     1       9.803  -3.126  24.243  0.00  0.00    +0.000 C 
ATOM      4  C   UNL     1       8.733  -3.771  25.054  0.00  0.00    +0.000 C 
ATOM      5  C   UNL     1       7.541  -3.233  24.525  0.00  0.00    +0.000 C 
ATOM      6  C   UNL     1       7.349  -2.344  23.294  0.00  0.00    +0.000 C 
ATOM      7 CL   UNL     1       8.941  -5.413  25.197  0.00  0.00    +0.000 Cl
ENDROOT
BRANCH   1   8
ATOM      8  C   UNL     1       8.660  -1.206  21.504  0.00  0.00    +0.000 C 
BRANCH   8  13
ATOM      9  C   UNL     1       8.143   1.126  22.262  0.00  0.00    +0.000 C 
ATOM     10  C   UNL     1       6.678   1.525  21.910  0.00  0.00    +0.000 C 
ATOM     11  C   UNL     1       6.560   1.134  20.367  0.00  0.00    +0.000 C 
ATOM     12  C   UNL     1       7.815   0.531  19.940  0.00  0.00    +0.000 C 
ATOM     13  C   UNL     1       8.712   0.245  21.116  0.00  0.00    +0.000 C 
ATOM     14  F   UNL     1       7.669  -0.342  18.976  0.00  0.00    +0.000 F 
BRANCH   9  15
ATOM     15  N   UNL     1       8.908   2.369  22.243  0.00  0.00    +0.000 NA
BRANCH  15  17
ATOM     16  C   UNL     1      10.433   1.728  24.015  0.00  0.00    +0.000 C 
ATOM     17  C   UNL     1      10.276   2.016  22.530  0.00  0.00    +0.000 C 
ENDBRANCH  15  17
ENDBRANCH   9  15
ENDBRANCH   8  13
ENDBRANCH   1   8
BRANCH   6  18
ATOM     18  N   UNL     1       7.359  -3.248  22.140  0.00  0.00    +0.000 NA
BRANCH  18  19
ATOM     19  C   UNL     1       6.178  -4.061  22.223  0.00  0.00    +0.000 C 
BRANCH  19  20
ATOM     20  C   UNL     1       6.399  -5.374  21.516  0.00  0.00    +0.000 C 
ATOM     21  O   UNL     1       5.985  -5.615  20.418  0.00  0.00    +0.000 OA
ATOM     22  O   UNL     1       7.467  -5.952  22.054  0.00  0.00    +0.000 OA
ENDBRANCH  19  20
ENDBRANCH  18  19
ENDBRANCH   6  18
TORSDOF 7
ENDMDL
MODEL 3
REMARK VINA RESULT:      -6.3      1.672      1.925
REMARK  Name = 
REMARK  7 active torsions:
REMARK  status: ('A' for Active; 'I' for Inactive)
REMARK    1  A    between atoms: C_2  and  N_3
REMARK    2  A    between atoms: N_3  and  C_4
REMARK    3  A    between atoms: C_8  and  C_9
REMARK    4  A    between atoms: C_9  and  C_10
REMARK    5  A    between atoms: C_15  and  N_16
REMARK    6  A    between atoms: N_16  and  C_17
REMARK    7  A    between atoms: C_17  and  C_18
REMARK                            x       y       z     vdW  Elec       q    Type
REMARK                         _______ _______ _______ _____ _____    ______ ____
ROOT
ATOM      1  C   UNL     1       8.617  -0.903  22.404  0.00  0.00    +0.000 C 
ATOM      2  N   UNL     1       7.548  -0.287  23.190  0.00  0.00    +0.000 NA
ATOM      3  C   UNL     1       6.968   0.761  23.194  0.00  0.00    +0.000 C 
ATOM      4  C   UNL     1       7.281   1.963  22.372  0.00  0.00    +0.000 C 
ATOM      5  C   UNL     1       8.183   1.481  21.401  0.00  0.00    +0.000 C 
ATOM      6  C   UNL     1       8.610   0.038  21.116  0.00  0.00    +0.000 C 
ATOM      7 CL   UNL     1       5.922   2.810  21.932  0.00  0.00    +0.000 Cl
ENDROOT
BRANCH   1   8
ATOM      8  C   UNL     1       8.257  -2.285  21.947  0.00  0.00    +0.000 C 
BRANCH   8  13
ATOM      9  C   UNL     1       7.937  -4.246  23.474  0.00  0.00    +0.000 C 
ATOM     10  C   UNL     1       7.364  -5.475  22.707  0.00  0.00    +0.000 C 
ATOM     11  C   UNL     1       6.122  -4.858  21.917  0.00  0.00    +0.000 C 
ATOM     12  C   UNL     1       6.062  -3.427  22.183  0.00  0.00    +0.000 C 
ATOM     13  C   UNL     1       7.301  -2.952  22.896  0.00  0.00    +0.000 C 
ATOM     14  F   UNL     1       5.545  -2.738  21.198  0.00  0.00    +0.000 F 
BRANCH   9  15
ATOM     15  N   UNL     1       7.446  -4.368  24.844  0.00  0.00    +0.000 NA
BRANCH  15  17
ATOM     16  C   UNL     1       9.702  -4.960  25.503  0.00  0.00    +0.000 C 
ATOM     17  C   UNL     1       8.242  -5.388  25.479  0.00  0.00    +0.000 C 
ENDBRANCH  15  17
ENDBRANCH   9  15
ENDBRANCH   8  13
ENDBRANCH   1   8
BRANCH   6  18
ATOM     18  N   UNL     1       7.542  -0.542  20.298  0.00  0.00    +0.000 NA
BRANCH  18  19
ATOM     19  C   UNL     1       7.454   0.233  19.093  0.00  0.00    +0.000 C 
BRANCH  19  20
ATOM     20  C   UNL     1       6.029   0.279  18.604  0.00  0.00    +0.000 C 
ATOM     21  O   UNL     1       5.255   1.147  18.895  0.00  0.00    +0.000 OA
ATOM     22  O   UNL     1       5.955  -0.446  17.495  0.00  0.00    +0.000 OA
ENDBRANCH  19  20
ENDBRANCH  18  19
ENDBRANCH   6  18
TORSDOF 7
ENDMDL
MODEL 4
REMARK VINA RESULT:      -5.9      3.869      6.652
REMARK  Name = 
REMARK  7 active torsions:
REMARK  status: ('A' for Active; 'I' for Inactive)
REMARK    1  A    between atoms: C_2  and  N_3
REMARK    2  A    between atoms: N_3  and  C_4
REMARK    3  A    between atoms: C_8  and  C_9
REMARK    4  A    between atoms: C_9  and  C_10
REMARK    5  A    between atoms: C_15  and  N_16
REMARK    6  A    between atoms: N_16  and  C_17
REMARK    7  A    between atoms: C_17  and  C_18
REMARK                            x       y       z     vdW  Elec       q    Type
REMARK                         _______ _______ _______ _____ _____    ______ ____
ROOT
ATOM      1  C   UNL     1       6.593  -2.547  22.463  0.00  0.00    +0.000 C 
ATOM      2  N   UNL     1       5.256  -3.063  22.758  0.00  0.00    +0.000 NA
ATOM      3  C   UNL     1       4.756  -4.142  22.910  0.00  0.00    +0.000 C 
ATOM      4  C   UNL     1       5.400  -5.467  22.694  0.00  0.00    +0.000 C 
ATOM      5  C   UNL     1       6.772  -5.161  22.586  0.00  0.00    +0.000 C 
ATOM      6  C   UNL     1       7.481  -3.824  22.818  0.00  0.00    +0.000 C 
ATOM      7 CL   UNL     1       4.861  -6.621  23.761  0.00  0.00    +0.000 Cl
ENDROOT
BRANCH   1   8
ATOM      8  C   UNL     1       6.994  -1.450  23.403  0.00  0.00    +0.000 C 
BRANCH   8  13
ATOM      9  C   UNL     1       7.670  -0.426  21.218  0.00  0.00    +0.000 C 
ATOM     10  C   UNL     1       9.215  -0.245  21.130  0.00  0.00    +0.000 C 
ATOM     11  C   UNL     1       9.570   0.482  22.506  0.00  0.00    +0.000 C 
ATOM     12  C   UNL     1       8.349   0.630  23.286  0.00  0.00    +0.000 C 
ATOM     13  C   UNL     1       7.214  -0.152  22.678  0.00  0.00    +0.000 C 
ATOM     14  F   UNL     1       8.556   0.623  24.578  0.00  0.00    +0.000 F 
BRANCH   9  15
ATOM     15  N   UNL     1       7.098   0.642  20.403  0.00  0.00    +0.000 NA
BRANCH  15  17
ATOM     16  C   UNL     1       6.134  -0.514  18.503  0.00  0.00    +0.000 C 
ATOM     17  C   UNL     1       7.323   0.276  19.027  0.00  0.00    +0.000 C 
ENDBRANCH  15  17
ENDBRANCH   9  15
ENDBRANCH   8  13
ENDBRANCH   1   8
BRANCH   6  18
ATOM     18  N   UNL     1       7.650  -3.705  24.269  0.00  0.00    +0.000 NA
BRANCH  18  19
ATOM     19  C   UNL     1       8.034  -4.998  24.763  0.00  0.00    +0.000 C 
BRANCH  19  20
ATOM     20  C   UNL     1       9.370  -4.916  25.456  0.00  0.00    +0.000 C 
ATOM     21  O   UNL     1      10.418  -4.882  24.875  0.00  0.00    +0.000 OA
ATOM     22  O   UNL     1       9.171  -4.407  26.666  0.00  0.00    +0.000 OA
ENDBRANCH  19  20
ENDBRANCH  18  19
ENDBRANCH   6  18
TORSDOF 7
ENDMDL
MODEL 5
REMARK VINA RESULT:      -5.9      4.013      6.729
REMARK  Name = 
REMARK  7 active torsions:
REMARK  status: ('A' for Active; 'I' for Inactive)
REMARK    1  A    between atoms: C_2  and  N_3
REMARK    2  A    between atoms: N_3  and  C_4
REMARK    3  A    between atoms: C_8  and  C_9
REMARK    4  A    between atoms: C_9  and  C_10
REMARK    5  A    between atoms: C_15  and  N_16
REMARK    6  A    between atoms: N_16  and  C_17
REMARK    7  A    between atoms: C_17  and  C_18
REMARK                            x       y       z     vdW  Elec       q    Type
REMARK                         _______ _______ _______ _____ _____    ______ ____
ROOT
ATOM      1  C   UNL     1       7.800  -2.326  23.025  0.00  0.00    +0.000 C 
ATOM      2  N   UNL     1       6.484  -2.476  22.405  0.00  0.00    +0.000 NA
ATOM      3  C   UNL     1       5.778  -3.386  22.075  0.00  0.00    +0.000 C 
ATOM      4  C   UNL     1       6.123  -4.835  22.080  0.00  0.00    +0.000 C 
ATOM      5  C   UNL     1       7.310  -4.896  22.839  0.00  0.00    +0.000 C 
ATOM      6  C   UNL     1       8.001  -3.786  23.636  0.00  0.00    +0.000 C 
ATOM      7 CL   UNL     1       4.822  -5.801  22.447  0.00  0.00    +0.000 Cl
ENDROOT
BRANCH   1   8
ATOM      8  C   UNL     1       7.777  -1.362  24.173  0.00  0.00    +0.000 C 
BRANCH   8  13
ATOM      9  C   UNL     1       9.187   0.007  22.618  0.00  0.00    +0.000 C 
ATOM     10  C   UNL     1      10.568   0.346  23.255  0.00  0.00    +0.000 C 
ATOM     11  C   UNL     1      10.171   0.913  24.693  0.00  0.00    +0.000 C 
ATOM     12  C   UNL     1       8.725   0.836  24.844  0.00  0.00    +0.000 C 
ATOM     13  C   UNL     1       8.101   0.037  23.729  0.00  0.00    +0.000 C 
ATOM     14  F   UNL     1       8.341   0.675  26.084  0.00  0.00    +0.000 F 
BRANCH   9  15
ATOM     15  N   UNL     1       8.883   1.115  21.717  0.00  0.00    +0.000 NA
BRANCH  15  17
ATOM     16  C   UNL     1       7.819   0.036  19.824  0.00  0.00    +0.000 C 
ATOM     17  C   UNL     1       7.608   0.817  21.113  0.00  0.00    +0.000 C 
ENDBRANCH  15  17
ENDBRANCH   9  15
ENDBRANCH   8  13
ENDBRANCH   1   8
BRANCH   6  18
ATOM     18  N   UNL     1       7.284  -3.702  24.911  0.00  0.00    +0.000 NA
BRANCH  18  19
ATOM     19  C   UNL     1       7.260  -5.022  25.477  0.00  0.00    +0.000 C 
BRANCH  19  20
ATOM     20  C   UNL     1       8.132  -5.079  26.706  0.00  0.00    +0.000 C 
ATOM     21  O   UNL     1       8.997  -4.284  26.943  0.00  0.00    +0.000 OA
ATOM     22  O   UNL     1       7.486  -5.778  27.632  0.00  0.00    +0.000 OA
ENDBRANCH  19  20
ENDBRANCH  18  19
ENDBRANCH   6  18
TORSDOF 7
ENDMDL
MODEL 6
REMARK VINA RESULT:      -5.9      3.645      4.999
REMARK  Name = 
REMARK  7 active torsions:
REMARK  status: ('A' for Active; 'I' for Inactive)
REMARK    1  A    between atoms: C_2  and  N_3
REMARK    2  A    between atoms: N_3  and  C_4
REMARK    3  A    between atoms: C_8  and  C_9
REMARK    4  A    between atoms: C_9  and  C_10
REMARK    5  A    between atoms: C_15  and  N_16
REMARK    6  A    between atoms: N_16  and  C_17
REMARK    7  A    between atoms: C_17  and  C_18
REMARK                            x       y       z     vdW  Elec       q    Type
REMARK                         _______ _______ _______ _____ _____    ______ ____
ROOT
ATOM      1  C   UNL     1       8.380  -0.249  21.442  0.00  0.00    +0.000 C 
ATOM      2  N   UNL     1       8.432  -0.344  19.983  0.00  0.00    +0.000 NA
ATOM      3  C   UNL     1       7.710  -0.063  19.069  0.00  0.00    +0.000 C 
ATOM      4  C   UNL     1       6.302   0.416  19.152  0.00  0.00    +0.000 C 
ATOM      5  C   UNL     1       6.141   0.753  20.512  0.00  0.00    +0.000 C 
ATOM      6  C   UNL     1       7.195   0.803  21.622  0.00  0.00    +0.000 C 
ATOM      7 CL   UNL     1       5.923   1.500  17.951  0.00  0.00    +0.000 Cl
ENDROOT
BRANCH   1   8
ATOM      8  C   UNL     1       9.619   0.374  22.012  0.00  0.00    +0.000 C 
BRANCH   8  13
ATOM      9  C   UNL     1       9.244  -1.550  23.572  0.00  0.00    +0.000 C 
ATOM     10  C   UNL     1       8.733  -1.063  24.961  0.00  0.00    +0.000 C 
ATOM     11  C   UNL     1       9.767   0.092  25.340  0.00  0.00    +0.000 C 
ATOM     12  C   UNL     1      10.710   0.254  24.241  0.00  0.00    +0.000 C 
ATOM     13  C   UNL     1      10.273  -0.521  23.027  0.00  0.00    +0.000 C 
ATOM     14  F   UNL     1      11.173   1.473  24.132  0.00  0.00    +0.000 F 
BRANCH   9  15
ATOM     15  N   UNL     1       9.991  -2.778  23.833  0.00  0.00    +0.000 NA
BRANCH  15  17
ATOM     16  C   UNL     1       9.698  -4.722  25.251  0.00  0.00    +0.000 C 
ATOM     17  C   UNL     1       9.033  -3.757  24.281  0.00  0.00    +0.000 C 
ENDBRANCH  15  17
ENDBRANCH   9  15
ENDBRANCH   8  13
ENDBRANCH   1   8
BRANCH   6  18
ATOM     18  N   UNL     1       7.880   2.089  21.467  0.00  0.00    +0.000 NA
BRANCH  18  19
ATOM     19  C   UNL     1       7.007   3.106  21.986  0.00  0.00    +0.000 C 
BRANCH  19  20
ATOM     20  C   UNL     1       7.791   4.096  22.808  0.00  0.00    +0.000 C 
ATOM     21  O   UNL     1       8.781   3.814  23.421  0.00  0.00    +0.000 OA
ATOM     22  O   UNL     1       7.519   5.312  22.349  0.00  0.00    +0.000 OA
ENDBRANCH  19  20
ENDBRANCH  18  19
ENDBRANCH   6  18
TORSDOF 7
ENDMDL
MODEL 7
REMARK VINA RESULT:      -5.9      3.811      6.217
REMARK  Name = 
REMARK  7 active torsions:
REMARK  status: ('A' for Active; 'I' for Inactive)
REMARK    1  A    between atoms: C_2  and  N_3
REMARK    2  A    between atoms: N_3  and  C_4
REMARK    3  A    between atoms: C_8  and  C_9
REMARK    4  A    between atoms: C_9  and  C_10
REMARK    5  A    between atoms: C_15  and  N_16
REMARK    6  A    between atoms: N_16  and  C_17
REMARK    7  A    between atoms: C_17  and  C_18
REMARK                            x       y       z     vdW  Elec       q    Type
REMARK                         _______ _______ _______ _____ _____    ______ ____
ROOT
ATOM      1  C   UNL     1       6.005  -3.423  21.931  0.00  0.00    +0.000 C 
ATOM      2  N   UNL     1       4.756  -3.877  22.541  0.00  0.00    +0.000 NA
ATOM      3  C   UNL     1       4.378  -4.856  23.119  0.00  0.00    +0.000 C 
ATOM      4  C   UNL     1       5.126  -6.130  23.310  0.00  0.00    +0.000 C 
ATOM      5  C   UNL     1       6.448  -5.802  22.943  0.00  0.00    +0.000 C 
ATOM      6  C   UNL     1       7.041  -4.431  22.606  0.00  0.00    +0.000 C 
ATOM      7 CL   UNL     1       4.797  -6.853  24.769  0.00  0.00    +0.000 Cl
ENDROOT
BRANCH   1   8
ATOM      8  C   UNL     1       6.379  -2.039  22.372  0.00  0.00    +0.000 C 
BRANCH   8  13
ATOM      9  C   UNL     1       8.291  -0.423  22.286  0.00  0.00    +0.000 C 
ATOM     10  C   UNL     1       7.801   1.019  21.956  0.00  0.00    +0.000 C 
ATOM     11  C   UNL     1       6.873   0.799  20.676  0.00  0.00    +0.000 C 
ATOM     12  C   UNL     1       6.820  -0.626  20.376  0.00  0.00    +0.000 C 
ATOM     13  C   UNL     1       7.433  -1.440  21.484  0.00  0.00    +0.000 C 
ATOM     14  F   UNL     1       5.700  -0.994  19.809  0.00  0.00    +0.000 F 
BRANCH   9  15
ATOM     15  N   UNL     1       9.646  -0.514  21.748  0.00  0.00    +0.000 NA
BRANCH  15  17
ATOM     16  C   UNL     1      10.009  -1.275  24.021  0.00  0.00    +0.000 C 
ATOM     17  C   UNL     1      10.344  -1.485  22.552  0.00  0.00    +0.000 C 
ENDBRANCH  15  17
ENDBRANCH   9  15
ENDBRANCH   8  13
ENDBRANCH   1   8
BRANCH   6  18
ATOM     18  N   UNL     1       7.323  -3.789  23.892  0.00  0.00    +0.000 NA
BRANCH  18  19
ATOM     19  C   UNL     1       8.261  -4.622  24.591  0.00  0.00    +0.000 C 
BRANCH  19  20
ATOM     20  C   UNL     1       8.001  -4.570  26.075  0.00  0.00    +0.000 C 
ATOM     21  O   UNL     1       8.858  -4.396  26.894  0.00  0.00    +0.000 OA
ATOM     22  O   UNL     1       6.723  -4.254  26.253  0.00  0.00    +0.000 OA
ENDBRANCH  19  20
ENDBRANCH  18  19
ENDBRANCH   6  18
TORSDOF 7
ENDMDL
MODEL 8
REMARK VINA RESULT:      -5.8      1.957      2.766
REMARK  Name = 
REMARK  7 active torsions:
REMARK  status: ('A' for Active; 'I' for Inactive)
REMARK    1  A    between atoms: C_2  and  N_3
REMARK    2  A    between atoms: N_3  and  C_4
REMARK    3  A    between atoms: C_8  and  C_9
REMARK    4  A    between atoms: C_9  and  C_10
REMARK    5  A    between atoms: C_15  and  N_16
REMARK    6  A    between atoms: N_16  and  C_17
REMARK    7  A    between atoms: C_17  and  C_18
REMARK                            x       y       z     vdW  Elec       q    Type
REMARK                         _______ _______ _______ _____ _____    ______ ____
ROOT
ATOM      1  C   UNL     1       8.588  -0.814  22.893  0.00  0.00    +0.000 C 
ATOM      2  N   UNL     1       8.285   0.356  23.717  0.00  0.00    +0.000 NA
ATOM      3  C   UNL     1       8.202   1.539  23.547  0.00  0.00    +0.000 C 
ATOM      4  C   UNL     1       8.550   2.294  22.312  0.00  0.00    +0.000 C 
ATOM      5  C   UNL     1       8.686   1.290  21.330  0.00  0.00    +0.000 C 
ATOM      6  C   UNL     1       8.374  -0.205  21.434  0.00  0.00    +0.000 C 
ATOM      7 CL   UNL     1       7.560   3.606  22.063  0.00  0.00    +0.000 Cl
ENDROOT
BRANCH   1   8
ATOM      8  C   UNL     1       7.578  -1.908  23.072  0.00  0.00    +0.000 C 
BRANCH   8  13
ATOM      9  C   UNL     1       7.208  -4.367  23.378  0.00  0.00    +0.000 C 
ATOM     10  C   UNL     1       6.656  -4.686  24.799  0.00  0.00    +0.000 C 
ATOM     11  C   UNL     1       7.658  -3.896  25.759  0.00  0.00    +0.000 C 
ATOM     12  C   UNL     1       8.622  -3.175  24.938  0.00  0.00    +0.000 C 
ATOM     13  C   UNL     1       8.227  -3.199  23.485  0.00  0.00    +0.000 C 
ATOM     14  F   UNL     1       9.062  -2.078  25.499  0.00  0.00    +0.000 F 
BRANCH   9  15
ATOM     15  N   UNL     1       7.974  -5.544  22.977  0.00  0.00    +0.000 NA
BRANCH  15  17
ATOM     16  C   UNL     1       6.217  -5.156  21.353  0.00  0.00    +0.000 C 
ATOM     17  C   UNL     1       7.291  -6.115  21.843  0.00  0.00    +0.000 C 
ENDBRANCH  15  17
ENDBRANCH   9  15
ENDBRANCH   8  13
ENDBRANCH   1   8
BRANCH   6  18
ATOM     18  N   UNL     1       6.926  -0.327  21.244  0.00  0.00    +0.000 NA
BRANCH  18  19
ATOM     19  C   UNL     1       6.604   0.289  19.988  0.00  0.00    +0.000 C 
BRANCH  19  20
ATOM     20  C   UNL     1       5.953  -0.712  19.067  0.00  0.00    +0.000 C 
ATOM     21  O   UNL     1       6.114  -0.725  17.880  0.00  0.00    +0.000 OA
ATOM     22  O   UNL     1       5.632  -1.779  19.789  0.00  0.00    +0.000 OA
ENDBRANCH  19  20
ENDBRANCH  18  19
ENDBRANCH   6  18
TORSDOF 7
ENDMDL
MODEL 9
REMARK VINA RESULT:      -5.6      1.959      2.932
REMARK  Name = 
REMARK  7 active torsions:
REMARK  status: ('A' for Active; 'I' for Inactive)
REMARK    1  A    between atoms: C_2  and  N_3
REMARK    2  A    between atoms: N_3  and  C_4
REMARK    3  A    between atoms: C_8  and  C_9
REMARK    4  A    between atoms: C_9  and  C_10
REMARK    5  A    between atoms: C_15  and  N_16
REMARK    6  A    between atoms: N_16  and  C_17
REMARK    7  A    between atoms: C_17  and  C_18
REMARK                            x       y       z     vdW  Elec       q    Type
REMARK                         _______ _______ _______ _____ _____    ______ ____
ROOT
ATOM      1  C   UNL     1       9.666  -1.669  24.422  0.00  0.00    +0.000 C 
ATOM      2  N   UNL     1       9.834  -0.398  25.127  0.00  0.00    +0.000 NA
ATOM      3  C   UNL     1      10.087   0.734  24.827  0.00  0.00    +0.000 C 
ATOM      4  C   UNL     1      10.483   1.238  23.483  0.00  0.00    +0.000 C 
ATOM      5  C   UNL     1      10.186   0.164  22.619  0.00  0.00    +0.000 C 
ATOM      6  C   UNL     1       9.458  -1.147  22.929  0.00  0.00    +0.000 C 
ATOM      7 CL   UNL     1       9.906   2.766  23.178  0.00  0.00    +0.000 Cl
ENDROOT
BRANCH   1   8
ATOM      8  C   UNL     1       8.408  -2.377  24.826  0.00  0.00    +0.000 C 
BRANCH   8  13
ATOM      9  C   UNL     1       7.192  -4.385  23.950  0.00  0.00    +0.000 C 
ATOM     10  C   UNL     1       6.321  -5.049  25.058  0.00  0.00    +0.000 C 
ATOM     11  C   UNL     1       7.339  -5.192  26.279  0.00  0.00    +0.000 C 
ATOM     12  C   UNL     1       8.618  -4.612  25.891  0.00  0.00    +0.000 C 
ATOM     13  C   UNL     1       8.505  -3.858  24.592  0.00  0.00    +0.000 C 
ATOM     14  F   UNL     1       9.290  -4.120  26.900  0.00  0.00    +0.000 F 
BRANCH   9  15
ATOM     15  N   UNL     1       7.582  -5.467  23.050  0.00  0.00    +0.000 NA
BRANCH  15  17
ATOM     16  C   UNL     1       5.991  -5.956  21.288  0.00  0.00    +0.000 C 
ATOM     17  C   UNL     1       7.153  -5.080  21.729  0.00  0.00    +0.000 C 
ENDBRANCH  15  17
ENDBRANCH   9  15
ENDBRANCH   8  13
ENDBRANCH   1   8
BRANCH   6  18
ATOM     18  N   UNL     1       8.028  -0.829  22.896  0.00  0.00    +0.000 NA
BRANCH  18  19
ATOM     19  C   UNL     1       7.540  -1.181  21.592  0.00  0.00    +0.000 C 
BRANCH  19  20
ATOM     20  C   UNL     1       7.570   0.022  20.682  0.00  0.00    +0.000 C 
ATOM     21  O   UNL     1       7.891  -0.026  19.529  0.00  0.00    +0.000 OA
ATOM     22  O   UNL     1       6.757   0.939  21.193  0.00  0.00    +0.000 OA
ENDBRANCH  19  20
ENDBRANCH  18  19
ENDBRANCH   6  18
TORSDOF 7
ENDMDL
