MODEL 1
REMARK VINA RESULT:      -6.2      0.000      0.000
REMARK  Name = 
REMARK  4 active torsions:
REMARK  status: ('A' for Active; 'I' for Inactive)
REMARK    1  A    between atoms: C_3  and  C_4
REMARK    2  A    between atoms: C_4  and  C_5
REMARK    3  A    between atoms: C_12  and  C_14
REMARK    4  A    between atoms: C_14  and  S_15
REMARK                            x       y       z     vdW  Elec       q    Type
REMARK                         _______ _______ _______ _____ _____    ______ ____
ROOT
ATOM      1  C   UNL     1       8.792  -0.060  23.617  0.00  0.00    +0.000 C 
ATOM      2  N   UNL     1       7.911  -1.110  24.420  0.00  0.00    +0.000 N 
ATOM      3  C   UNL     1       7.747  -0.589  25.743  0.00  0.00    +0.000 C 
ATOM      4  C   UNL     1       8.940  -2.196  24.377  0.00  0.00    +0.000 C 
ATOM      5  C   UNL     1       9.212  -3.490  24.323  0.00  0.00    +0.000 C 
ATOM      6  C   UNL     1       9.099  -4.378  25.711  0.00  0.00    +0.000 C 
ATOM      7  N   UNL     1       7.554  -4.595  25.523  0.00  0.00    +0.000 NA
ATOM      8  C   UNL     1       7.257  -4.431  24.192  0.00  0.00    +0.000 C 
ATOM      9  N   UNL     1       8.337  -4.373  23.564  0.00  0.00    +0.000 NA
ATOM     10  C   UNL     1       9.987  -1.201  23.776  0.00  0.00    +0.000 C 
ATOM     11  C   UNL     1      10.426  -1.658  22.516  0.00  0.00    +0.000 C 
ENDROOT
BRANCH   8  12
ATOM     12  C   UNL     1       5.947  -3.976  23.736  0.00  0.00    +0.000 C 
ATOM     13  O   UNL     1       5.144  -3.501  24.772  0.00  0.00    +0.000 OA
BRANCH  12  14
ATOM     14  S   UNL     1       5.099  -5.282  22.860  0.00  0.00    +0.000 S 
ATOM     15  O   UNL     1       3.711  -4.917  22.753  0.00  0.00    +0.000 OA
ATOM     16  O   UNL     1       5.358  -6.513  23.556  0.00  0.00    +0.000 OA
ATOM     17  N   UNL     1       5.720  -5.396  21.339  0.00  0.00    +0.000 NA
ENDBRANCH  12  14
ENDBRANCH   8  12
BRANCH   1  18
ATOM     18  C   UNL     1       9.137   1.005  24.578  0.00  0.00    +0.000 C 
BRANCH  18  21
ATOM     19  F   UNL     1      11.654   3.413  23.451  0.00  0.00    +0.000 F 
ATOM     20  C   UNL     1      10.403   2.899  23.482  0.00  0.00    +0.000 C 
ATOM     21  C   UNL     1      10.407   1.699  24.223  0.00  0.00    +0.000 C 
ENDBRANCH  18  21
ENDBRANCH   1  18
TORSDOF 4
ENDMDL
MODEL 2
REMARK VINA RESULT:      -6.1      2.181      3.168
REMARK  Name = 
REMARK  4 active torsions:
REMARK  status: ('A' for Active; 'I' for Inactive)
REMARK    1  A    between atoms: C_3  and  C_4
REMARK    2  A    between atoms: C_4  and  C_5
REMARK    3  A    between atoms: C_12  and  C_14
REMARK    4  A    between atoms: C_14  and  S_15
REMARK                            x       y       z     vdW  Elec       q    Type
REMARK                         _______ _______ _______ _____ _____    ______ ____
ROOT
ATOM      1  C   UNL     1       8.053  -1.939  24.031  0.00  0.00    +0.000 C 
ATOM      2  N   UNL     1       7.639  -3.468  24.151  0.00  0.00    +0.000 N 
ATOM      3  C   UNL     1       8.821  -4.190  24.513  0.00  0.00    +0.000 C 
ATOM      4  C   UNL     1       7.318  -3.626  22.697  0.00  0.00    +0.000 C 
ATOM      5  C   UNL     1       6.582  -4.204  21.762  0.00  0.00    +0.000 C 
ATOM      6  C   UNL     1       6.957  -5.745  21.304  0.00  0.00    +0.000 C 
ATOM      7  N   UNL     1       6.124  -6.368  22.481  0.00  0.00    +0.000 NA
ATOM      8  C   UNL     1       5.190  -5.443  22.881  0.00  0.00    +0.000 C 
ATOM      9  N   UNL     1       5.187  -4.516  22.042  0.00  0.00    +0.000 NA
ATOM     10  C   UNL     1       7.899  -2.204  22.400  0.00  0.00    +0.000 C 
ATOM     11  C   UNL     1       6.903  -1.378  21.841  0.00  0.00    +0.000 C 
ENDROOT
BRANCH   8  12
ATOM     12  C   UNL     1       4.672  -5.398  24.246  0.00  0.00    +0.000 C 
ATOM     13  O   UNL     1       5.580  -5.876  25.190  0.00  0.00    +0.000 OA
BRANCH  12  14
ATOM     14  S   UNL     1       3.138  -6.306  24.364  0.00  0.00    +0.000 S 
ATOM     15  O   UNL     1       2.491  -6.257  23.080  0.00  0.00    +0.000 OA
ATOM     16  O   UNL     1       2.383  -5.747  25.453  0.00  0.00    +0.000 OA
ATOM     17  N   UNL     1       3.474  -7.880  24.712  0.00  0.00    +0.000 NA
ENDBRANCH  12  14
ENDBRANCH   8  12
BRANCH   1  18
ATOM     18  C   UNL     1       9.505  -1.886  24.284  0.00  0.00    +0.000 C 
BRANCH  18  21
ATOM     19  F   UNL     1      11.224   1.346  24.307  0.00  0.00    +0.000 F 
ATOM     20  C   UNL     1      10.582   0.316  24.903  0.00  0.00    +0.000 C 
ATOM     21  C   UNL     1      10.097  -0.569  23.918  0.00  0.00    +0.000 C 
ENDBRANCH  18  21
ENDBRANCH   1  18
TORSDOF 4
ENDMDL
MODEL 3
REMARK VINA RESULT:      -6.0      2.251      3.238
REMARK  Name = 
REMARK  4 active torsions:
REMARK  status: ('A' for Active; 'I' for Inactive)
REMARK    1  A    between atoms: C_3  and  C_4
REMARK    2  A    between atoms: C_4  and  C_5
REMARK    3  A    between atoms: C_12  and  C_14
REMARK    4  A    between atoms: C_14  and  S_15
REMARK                            x       y       z     vdW  Elec       q    Type
REMARK                         _______ _______ _______ _____ _____    ______ ____
ROOT
ATOM      1  C   UNL     1       9.127  -0.296  24.358  0.00  0.00    +0.000 C 
ATOM      2  N   UNL     1       9.202  -1.881  24.292  0.00  0.00    +0.000 N 
ATOM      3  C   UNL     1      10.359  -2.210  23.516  0.00  0.00    +0.000 C 
ATOM      4  C   UNL     1       7.942  -2.034  23.499  0.00  0.00    +0.000 C 
ATOM      5  C   UNL     1       6.866  -2.752  23.218  0.00  0.00    +0.000 C 
ATOM      6  C   UNL     1       7.027  -4.057  22.218  0.00  0.00    +0.000 C 
ATOM      7  N   UNL     1       7.463  -4.992  23.403  0.00  0.00    +0.000 NA
ATOM      8  C   UNL     1       6.998  -4.446  24.575  0.00  0.00    +0.000 C 
ATOM      9  N   UNL     1       6.219  -3.514  24.278  0.00  0.00    +0.000 NA
ATOM     10  C   UNL     1       7.862  -0.484  23.300  0.00  0.00    +0.000 C 
ATOM     11  C   UNL     1       6.662   0.016  23.847  0.00  0.00    +0.000 C 
ENDROOT
BRANCH   8  12
ATOM     12  C   UNL     1       7.665  -4.662  25.855  0.00  0.00    +0.000 C 
ATOM     13  O   UNL     1       8.852  -5.385  25.736  0.00  0.00    +0.000 OA
BRANCH  12  14
ATOM     14  S   UNL     1       6.568  -5.482  27.003  0.00  0.00    +0.000 S 
ATOM     15  O   UNL     1       7.370  -6.062  28.048  0.00  0.00    +0.000 OA
ATOM     16  O   UNL     1       5.770  -6.413  26.253  0.00  0.00    +0.000 OA
ATOM     17  N   UNL     1       5.570  -4.361  27.681  0.00  0.00    +0.000 NA
ENDBRANCH  12  14
ENDBRANCH   8  12
BRANCH   1  18
ATOM     18  C   UNL     1      10.250   0.202  23.541  0.00  0.00    +0.000 C 
BRANCH  18  21
ATOM     19  F   UNL     1      10.363   3.844  23.888  0.00  0.00    +0.000 F 
ATOM     20  C   UNL     1       9.973   2.701  23.279  0.00  0.00    +0.000 C 
ATOM     21  C   UNL     1      10.621   1.604  23.883  0.00  0.00    +0.000 C 
ENDBRANCH  18  21
ENDBRANCH   1  18
TORSDOF 4
ENDMDL
MODEL 4
REMARK VINA RESULT:      -6.0      1.535      1.918
REMARK  Name = 
REMARK  4 active torsions:
REMARK  status: ('A' for Active; 'I' for Inactive)
REMARK    1  A    between atoms: C_3  and  C_4
REMARK    2  A    between atoms: C_4  and  C_5
REMARK    3  A    between atoms: C_12  and  C_14
REMARK    4  A    between atoms: C_14  and  S_15
REMARK                            x       y       z     vdW  Elec       q    Type
REMARK                         _______ _______ _______ _____ _____    ______ ____
ROOT
ATOM      1  C   UNL     1       8.572  -0.493  24.394  0.00  0.00    +0.000 C 
ATOM      2  N   UNL     1       8.181  -1.641  25.418  0.00  0.00    +0.000 N 
ATOM      3  C   UNL     1       8.721  -1.265  26.690  0.00  0.00    +0.000 C 
ATOM      4  C   UNL     1       9.013  -2.693  24.753  0.00  0.00    +0.000 C 
ATOM      5  C   UNL     1       9.178  -3.967  24.437  0.00  0.00    +0.000 C 
ATOM      6  C   UNL     1       9.750  -4.998  25.594  0.00  0.00    +0.000 C 
ATOM      7  N   UNL     1       8.315  -5.230  26.189  0.00  0.00    +0.000 NA
ATOM      8  C   UNL     1       7.394  -4.935  25.213  0.00  0.00    +0.000 C 
ATOM      9  N   UNL     1       8.013  -4.786  24.137  0.00  0.00    +0.000 NA
ATOM     10  C   UNL     1       9.647  -1.616  23.812  0.00  0.00    +0.000 C 
ATOM     11  C   UNL     1       9.378  -1.928  22.463  0.00  0.00    +0.000 C 
ENDROOT
BRANCH   8  12
ATOM     12  C   UNL     1       6.048  -4.466  25.528  0.00  0.00    +0.000 C 
ATOM     13  O   UNL     1       5.984  -3.756  26.726  0.00  0.00    +0.000 OA
BRANCH  12  14
ATOM     14  S   UNL     1       4.900  -5.834  25.570  0.00  0.00    +0.000 S 
ATOM     15  O   UNL     1       5.039  -6.570  24.341  0.00  0.00    +0.000 OA
ATOM     16  O   UNL     1       3.589  -5.296  25.819  0.00  0.00    +0.000 OA
ATOM     17  N   UNL     1       5.303  -6.832  26.817  0.00  0.00    +0.000 NA
ENDBRANCH  12  14
ENDBRANCH   8  12
BRANCH   1  18
ATOM     18  C   UNL     1       9.388   0.474  25.153  0.00  0.00    +0.000 C 
BRANCH  18  21
ATOM     19  F   UNL     1      11.139   3.019  23.189  0.00  0.00    +0.000 F 
ATOM     20  C   UNL     1      10.045   2.501  23.793  0.00  0.00    +0.000 C 
ATOM     21  C   UNL     1      10.345   1.213  24.283  0.00  0.00    +0.000 C 
ENDBRANCH  18  21
ENDBRANCH   1  18
TORSDOF 4
ENDMDL
MODEL 5
REMARK VINA RESULT:      -5.9      3.012      4.245
REMARK  Name = 
REMARK  4 active torsions:
REMARK  status: ('A' for Active; 'I' for Inactive)
REMARK    1  A    between atoms: C_3  and  C_4
REMARK    2  A    between atoms: C_4  and  C_5
REMARK    3  A    between atoms: C_12  and  C_14
REMARK    4  A    between atoms: C_14  and  S_15
REMARK                            x       y       z     vdW  Elec       q    Type
REMARK                         _______ _______ _______ _____ _____    ______ ____
ROOT
ATOM      1  C   UNL     1       8.503  -1.597  25.221  0.00  0.00    +0.000 C 
ATOM      2  N   UNL     1       8.260  -3.143  25.491  0.00  0.00    +0.000 N 
ATOM      3  C   UNL     1       9.223  -3.858  24.710  0.00  0.00    +0.000 C 
ATOM      4  C   UNL     1       6.904  -3.170  24.857  0.00  0.00    +0.000 C 
ATOM      5  C   UNL     1       5.683  -3.679  24.829  0.00  0.00    +0.000 C 
ATOM      6  C   UNL     1       5.460  -5.155  24.122  0.00  0.00    +0.000 C 
ATOM      7  N   UNL     1       5.852  -5.916  25.440  0.00  0.00    +0.000 NA
ATOM      8  C   UNL     1       5.654  -5.067  26.501  0.00  0.00    +0.000 C 
ATOM      9  N   UNL     1       5.039  -4.063  26.077  0.00  0.00    +0.000 NA
ATOM     10  C   UNL     1       7.102  -1.707  24.338  0.00  0.00    +0.000 C 
ATOM     11  C   UNL     1       6.101  -0.864  24.863  0.00  0.00    +0.000 C 
ENDROOT
BRANCH   8  12
ATOM     12  C   UNL     1       6.423  -5.172  27.738  0.00  0.00    +0.000 C 
ATOM     13  O   UNL     1       7.695  -5.709  27.545  0.00  0.00    +0.000 OA
BRANCH  12  14
ATOM     14  S   UNL     1       5.533  -6.138  28.949  0.00  0.00    +0.000 S 
ATOM     15  O   UNL     1       5.793  -7.529  28.687  0.00  0.00    +0.000 OA
ATOM     16  O   UNL     1       4.150  -5.750  28.886  0.00  0.00    +0.000 OA
ATOM     17  N   UNL     1       6.112  -5.780  30.449  0.00  0.00    +0.000 NA
ENDBRANCH  12  14
ENDBRANCH   8  12
BRANCH   1  18
ATOM     18  C   UNL     1       9.589  -1.520  24.225  0.00  0.00    +0.000 C 
BRANCH  18  21
ATOM     19  F   UNL     1      11.203   1.764  24.150  0.00  0.00    +0.000 F 
ATOM     20  C   UNL     1      10.881   0.591  24.740  0.00  0.00    +0.000 C 
ATOM     21  C   UNL     1       9.978  -0.116  23.918  0.00  0.00    +0.000 C 
ENDBRANCH  18  21
ENDBRANCH   1  18
TORSDOF 4
ENDMDL
MODEL 6
REMARK VINA RESULT:      -5.8      2.711      3.366
REMARK  Name = 
REMARK  4 active torsions:
REMARK  status: ('A' for Active; 'I' for Inactive)
REMARK    1  A    between atoms: C_3  and  C_4
REMARK    2  A    between atoms: C_4  and  C_5
REMARK    3  A    between atoms: C_12  and  C_14
REMARK    4  A    between atoms: C_14  and  S_15
REMARK                            x       y       z     vdW  Elec       q    Type
REMARK                         _______ _______ _______ _____ _____    ______ ____
ROOT
ATOM      1  C   UNL     1       6.672   1.447  22.740  0.00  0.00    +0.000 C 
ATOM      2  N   UNL     1       7.460   0.394  23.630  0.00  0.00    +0.000 N 
ATOM      3  C   UNL     1       8.153   1.139  24.638  0.00  0.00    +0.000 C 
ATOM      4  C   UNL     1       8.379  -0.038  22.531  0.00  0.00    +0.000 C 
ATOM      5  C   UNL     1       9.090  -1.003  21.970  0.00  0.00    +0.000 C 
ATOM      6  C   UNL     1      10.555  -1.388  22.628  0.00  0.00    +0.000 C 
ATOM      7  N   UNL     1       9.900  -2.351  23.683  0.00  0.00    +0.000 NA
ATOM      8  C   UNL     1       8.675  -2.744  23.202  0.00  0.00    +0.000 C 
ATOM      9  N   UNL     1       8.595  -2.372  22.011  0.00  0.00    +0.000 NA
ATOM     10  C   UNL     1       7.840   1.107  21.611  0.00  0.00    +0.000 C 
ATOM     11  C   UNL     1       7.273   0.564  20.439  0.00  0.00    +0.000 C 
ENDROOT
BRANCH   8  12
ATOM     12  C   UNL     1       7.573  -3.116  24.085  0.00  0.00    +0.000 C 
ATOM     13  O   UNL     1       7.662  -2.526  25.346  0.00  0.00    +0.000 OA
BRANCH  12  14
ATOM     14  S   UNL     1       7.474  -4.892  24.252  0.00  0.00    +0.000 S 
ATOM     15  O   UNL     1       6.325  -5.199  25.062  0.00  0.00    +0.000 OA
ATOM     16  O   UNL     1       8.732  -5.352  24.772  0.00  0.00    +0.000 OA
ATOM     17  N   UNL     1       7.246  -5.556  22.762  0.00  0.00    +0.000 NA
ENDBRANCH  12  14
ENDBRANCH   8  12
BRANCH   1  18
ATOM     18  C   UNL     1       7.020   2.778  23.274  0.00  0.00    +0.000 C 
BRANCH  18  21
ATOM     19  F   UNL     1       7.461   5.858  21.346  0.00  0.00    +0.000 F 
ATOM     20  C   UNL     1       7.419   5.151  22.498  0.00  0.00    +0.000 C 
ATOM     21  C   UNL     1       6.989   3.835  22.225  0.00  0.00    +0.000 C 
ENDBRANCH  18  21
ENDBRANCH   1  18
TORSDOF 4
ENDMDL
MODEL 7
REMARK VINA RESULT:      -5.8      1.961      2.775
REMARK  Name = 
REMARK  4 active torsions:
REMARK  status: ('A' for Active; 'I' for Inactive)
REMARK    1  A    between atoms: C_3  and  C_4
REMARK    2  A    between atoms: C_4  and  C_5
REMARK    3  A    between atoms: C_12  and  C_14
REMARK    4  A    between atoms: C_14  and  S_15
REMARK                            x       y       z     vdW  Elec       q    Type
REMARK                         _______ _______ _______ _____ _____    ______ ____
ROOT
ATOM      1  C   UNL     1       9.991   0.617  22.750  0.00  0.00    +0.000 C 
ATOM      2  N   UNL     1       8.625  -0.149  22.486  0.00  0.00    +0.000 N 
ATOM      3  C   UNL     1       7.801   0.729  21.710  0.00  0.00    +0.000 C 
ATOM      4  C   UNL     1       8.211  -0.168  23.924  0.00  0.00    +0.000 C 
ATOM      5  C   UNL     1       7.581  -0.791  24.908  0.00  0.00    +0.000 C 
ATOM      6  C   UNL     1       5.935  -0.682  24.984  0.00  0.00    +0.000 C 
ATOM      7  N   UNL     1       5.745  -1.873  23.978  0.00  0.00    +0.000 NA
ATOM      8  C   UNL     1       6.886  -2.638  23.999  0.00  0.00    +0.000 C 
ATOM      9  N   UNL     1       7.591  -2.246  24.954  0.00  0.00    +0.000 NA
ATOM     10  C   UNL     1       9.406   0.771  24.296  0.00  0.00    +0.000 C 
ATOM     11  C   UNL     1      10.252   0.136  25.228  0.00  0.00    +0.000 C 
ENDROOT
BRANCH   8  12
ATOM     12  C   UNL     1       7.321  -3.421  22.846  0.00  0.00    +0.000 C 
ATOM     13  O   UNL     1       6.517  -3.230  21.722  0.00  0.00    +0.000 OA
BRANCH  12  14
ATOM     14  S   UNL     1       7.387  -5.159  23.256  0.00  0.00    +0.000 S 
ATOM     15  O   UNL     1       6.261  -5.460  24.100  0.00  0.00    +0.000 OA
ATOM     16  O   UNL     1       8.676  -5.420  23.837  0.00  0.00    +0.000 OA
ATOM     17  N   UNL     1       7.245  -6.041  21.873  0.00  0.00    +0.000 NA
ENDBRANCH  12  14
ENDBRANCH   8  12
BRANCH   1  18
ATOM     18  C   UNL     1       9.839   1.950  22.139  0.00  0.00    +0.000 C 
BRANCH  18  21
ATOM     19  F   UNL     1      11.215   4.754  24.050  0.00  0.00    +0.000 F 
ATOM     20  C   UNL     1      11.322   3.682  23.232  0.00  0.00    +0.000 C 
ATOM     21  C   UNL     1      10.066   3.051  23.117  0.00  0.00    +0.000 C 
ENDBRANCH  18  21
ENDBRANCH   1  18
TORSDOF 4
ENDMDL
MODEL 8
REMARK VINA RESULT:      -5.7      2.913      3.637
REMARK  Name = 
REMARK  4 active torsions:
REMARK  status: ('A' for Active; 'I' for Inactive)
REMARK    1  A    between atoms: C_3  and  C_4
REMARK    2  A    between atoms: C_4  and  C_5
REMARK    3  A    between atoms: C_12  and  C_14
REMARK    4  A    between atoms: C_14  and  S_15
REMARK                            x       y       z     vdW  Elec       q    Type
REMARK                         _______ _______ _______ _____ _____    ______ ____
ROOT
ATOM      1  C   UNL     1       6.534  -2.206  23.042  0.00  0.00    +0.000 C 
ATOM      2  N   UNL     1       7.016  -2.458  24.534  0.00  0.00    +0.000 N 
ATOM      3  C   UNL     1       7.770  -1.306  24.927  0.00  0.00    +0.000 C 
ATOM      4  C   UNL     1       7.908  -3.609  24.186  0.00  0.00    +0.000 C 
ATOM      5  C   UNL     1       8.444  -4.766  24.538  0.00  0.00    +0.000 C 
ATOM      6  C   UNL     1       9.743  -4.756  25.558  0.00  0.00    +0.000 C 
ATOM      7  N   UNL     1       8.824  -4.683  26.831  0.00  0.00    +0.000 NA
ATOM      8  C   UNL     1       7.584  -5.169  26.493  0.00  0.00    +0.000 C 
ATOM      9  N   UNL     1       7.675  -5.690  25.360  0.00  0.00    +0.000 NA
ATOM     10  C   UNL     1       7.689  -3.335  22.661  0.00  0.00    +0.000 C 
ATOM     11  C   UNL     1       7.114  -4.464  22.041  0.00  0.00    +0.000 C 
ENDROOT
BRANCH   8  12
ATOM     12  C   UNL     1       6.365  -4.733  27.168  0.00  0.00    +0.000 C 
ATOM     13  O   UNL     1       6.403  -4.935  28.547  0.00  0.00    +0.000 OA
BRANCH  12  14
ATOM     14  S   UNL     1       4.937  -5.551  26.474  0.00  0.00    +0.000 S 
ATOM     15  O   UNL     1       5.161  -6.971  26.540  0.00  0.00    +0.000 OA
ATOM     16  O   UNL     1       4.732  -5.023  25.152  0.00  0.00    +0.000 OA
ATOM     17  N   UNL     1       3.618  -5.195  27.392  0.00  0.00    +0.000 NA
ENDBRANCH  12  14
ENDBRANCH   8  12
BRANCH   1  18
ATOM     18  C   UNL     1       7.108  -0.908  22.639  0.00  0.00    +0.000 C 
BRANCH  18  21
ATOM     19  F   UNL     1       8.133  -0.177  19.201  0.00  0.00    +0.000 F 
ATOM     20  C   UNL     1       8.204  -0.016  20.542  0.00  0.00    +0.000 C 
ATOM     21  C   UNL     1       7.169  -0.750  21.159  0.00  0.00    +0.000 C 
ENDBRANCH  18  21
ENDBRANCH   1  18
TORSDOF 4
ENDMDL
MODEL 9
REMARK VINA RESULT:      -5.7      2.672      3.934
REMARK  Name = 
REMARK  4 active torsions:
REMARK  status: ('A' for Active; 'I' for Inactive)
REMARK    1  A    between atoms: C_3  and  C_4
REMARK    2  A    between atoms: C_4  and  C_5
REMARK    3  A    between atoms: C_12  and  C_14
REMARK    4  A    between atoms: C_14  and  S_15
REMARK                            x       y       z     vdW  Elec       q    Type
REMARK                         _______ _______ _______ _____ _____    ______ ____
ROOT
ATOM      1  C   UNL     1       8.552   1.820  24.056  0.00  0.00    +0.000 C 
ATOM      2  N   UNL     1       8.978   0.404  23.477  0.00  0.00    +0.000 N 
ATOM      3  C   UNL     1       9.766   0.654  22.308  0.00  0.00    +0.000 C 
ATOM      4  C   UNL     1       7.584  -0.013  23.124  0.00  0.00    +0.000 C 
ATOM      5  C   UNL     1       6.698  -0.987  22.995  0.00  0.00    +0.000 C 
ATOM      6  C   UNL     1       6.756  -1.930  21.641  0.00  0.00    +0.000 C 
ATOM      7  N   UNL     1       7.845  -2.873  22.266  0.00  0.00    +0.000 NA
ATOM      8  C   UNL     1       7.774  -2.763  23.634  0.00  0.00    +0.000 C 
ATOM      9  N   UNL     1       6.739  -2.118  23.911  0.00  0.00    +0.000 NA
ATOM     10  C   UNL     1       7.055   1.421  23.459  0.00  0.00    +0.000 C 
ATOM     11  C   UNL     1       6.095   1.359  24.489  0.00  0.00    +0.000 C 
ENDROOT
BRANCH   8  12
ATOM     12  C   UNL     1       8.931  -2.986  24.496  0.00  0.00    +0.000 C 
ATOM     13  O   UNL     1      10.145  -2.842  23.827  0.00  0.00    +0.000 OA
BRANCH  12  14
ATOM     14  S   UNL     1       8.844  -4.601  25.257  0.00  0.00    +0.000 S 
ATOM     15  O   UNL     1      10.097  -5.270  25.025  0.00  0.00    +0.000 OA
ATOM     16  O   UNL     1       7.685  -5.270  24.730  0.00  0.00    +0.000 OA
ATOM     17  N   UNL     1       8.652  -4.417  26.882  0.00  0.00    +0.000 NA
ENDBRANCH  12  14
ENDBRANCH   8  12
BRANCH   1  18
ATOM     18  C   UNL     1       9.091   2.826  23.121  0.00  0.00    +0.000 C 
BRANCH  18  21
ATOM     19  F   UNL     1      10.483   5.859  24.627  0.00  0.00    +0.000 F 
ATOM     20  C   UNL     1       9.645   5.199  23.795  0.00  0.00    +0.000 C 
ATOM     21  C   UNL     1       9.961   3.824  23.803  0.00  0.00    +0.000 C 
ENDBRANCH  18  21
ENDBRANCH   1  18
TORSDOF 4
ENDMDL
