MODEL 1
REMARK VINA RESULT:      -7.4      0.000      0.000
REMARK  Name = 
REMARK  9 active torsions:
REMARK  status: ('A' for Active; 'I' for Inactive)
REMARK    1  A    between atoms: C_2  and  N_3
REMARK    2  A    between atoms: N_3  and  C_4
REMARK    3  A    between atoms: C_9  and  C_10
REMARK    4  A    between atoms: C_10  and  C_11
REMARK    5  A    between atoms: N_13  and  C_14
REMARK    6  A    between atoms: N_13  and  C_24
REMARK    7  A    between atoms: C_19  and  C_20
REMARK    8  A    between atoms: C_24  and  C_25
REMARK    9  A    between atoms: C_30  and  C_31
REMARK                            x       y       z     vdW  Elec       q    Type
REMARK                         _______ _______ _______ _____ _____    ______ ____
ROOT
ATOM      1  C   UNL     1       9.665  -1.845  23.445  0.00  0.00    +0.000 C 
ATOM      2  O   UNL     1      10.596  -2.620  23.224  0.00  0.00    +0.000 OA
ATOM      3  N   UNL     1       8.441  -2.142  23.017  0.00  0.00    +0.000 N 
ENDROOT
BRANCH   3   4
ATOM      4  C   UNL     1       7.771  -2.877  23.961  0.00  0.00    +0.000 A 
ATOM      5  C   UNL     1       6.513  -1.817  24.414  0.00  0.00    +0.000 A 
ATOM      6  C   UNL     1       5.232  -2.553  24.137  0.00  0.00    +0.000 A 
ATOM      7  C   UNL     1       4.790  -3.927  23.770  0.00  0.00    +0.000 A 
ATOM      8  C   UNL     1       5.964  -4.786  23.312  0.00  0.00    +0.000 A 
ATOM      9  C   UNL     1       7.283  -4.208  23.787  0.00  0.00    +0.000 A 
ATOM     10  C   UNL     1       5.866  -6.133  22.930  0.00  0.00    +0.000 C 
BRANCH   9  11
ATOM     11  C   UNL     1       7.758  -5.190  24.815  0.00  0.00    +0.000 C 
ATOM     12  O   UNL     1       7.440  -5.015  25.971  0.00  0.00    +0.000 OA
ATOM     13  N   UNL     1       9.085  -5.320  24.503  0.00  0.00    +0.000 NA
ENDBRANCH   9  11
ENDBRANCH   3   4
BRANCH   1  14
ATOM     14  C   UNL     1       9.972  -0.340  23.481  0.00  0.00    +0.000 C 
BRANCH  14  20
ATOM     15  C   UNL     1       8.592   1.465  24.722  0.00  0.00    +0.000 A 
ATOM     16  C   UNL     1       7.423   1.553  25.491  0.00  0.00    +0.000 A 
ATOM     17  C   UNL     1       7.201   0.903  26.944  0.00  0.00    +0.000 A 
ATOM     18  C   UNL     1       8.246  -0.190  26.862  0.00  0.00    +0.000 A 
ATOM     19  C   UNL     1       9.323  -0.333  25.990  0.00  0.00    +0.000 A 
ATOM     20  C   UNL     1       9.560   0.278  24.714  0.00  0.00    +0.000 A 
ATOM     21  F   UNL     1       8.613  -0.478  28.112  0.00  0.00    +0.000 F 
BRANCH  15  22
ATOM     22  N   UNL     1       9.359   2.625  24.554  0.00  0.00    +0.000 NA
BRANCH  22  24
ATOM     23  C   UNL     1       9.740   4.898  23.876  0.00  0.00    +0.000 C 
ATOM     24  C   UNL     1       8.729   3.902  24.452  0.00  0.00    +0.000 C 
ENDBRANCH  22  24
ENDBRANCH  15  22
ENDBRANCH  14  20
ENDBRANCH   1  14
BRANCH   3  25
ATOM     25  C   UNL     1       8.119  -2.208  21.646  0.00  0.00    +0.000 C 
BRANCH  25  26
ATOM     26  C   UNL     1       7.206  -1.049  21.256  0.00  0.00    +0.000 A 
ATOM     27  C   UNL     1       5.857  -1.863  20.606  0.00  0.00    +0.000 A 
ATOM     28  N   UNL     1       5.788  -1.409  19.330  0.00  0.00    +0.000 NA
ATOM     29  C   UNL     1       6.111  -0.433  18.550  0.00  0.00    +0.000 A 
ATOM     30  C   UNL     1       7.411   0.374  18.953  0.00  0.00    +0.000 A 
ATOM     31  C   UNL     1       7.570   0.097  20.467  0.00  0.00    +0.000 A 
BRANCH  31  32
ATOM     32  C   UNL     1       7.393   1.411  21.095  0.00  0.00    +0.000 C 
ATOM     33  O   UNL     1       6.418   1.686  21.733  0.00  0.00    +0.000 OA
ATOM     34  O   UNL     1       8.593   1.954  21.338  0.00  0.00    +0.000 OA
ENDBRANCH  31  32
ENDBRANCH  25  26
ENDBRANCH   3  25
TORSDOF 9
ENDMDL
MODEL 2
REMARK VINA RESULT:      -7.0      1.481      2.055
REMARK  Name = 
REMARK  9 active torsions:
REMARK  status: ('A' for Active; 'I' for Inactive)
REMARK    1  A    between atoms: C_2  and  N_3
REMARK    2  A    between atoms: N_3  and  C_4
REMARK    3  A    between atoms: C_9  and  C_10
REMARK    4  A    between atoms: C_10  and  C_11
REMARK    5  A    between atoms: N_13  and  C_14
REMARK    6  A    between atoms: N_13  and  C_24
REMARK    7  A    between atoms: C_19  and  C_20
REMARK    8  A    between atoms: C_24  and  C_25
REMARK    9  A    between atoms: C_30  and  C_31
REMARK                            x       y       z     vdW  Elec       q    Type
REMARK                         _______ _______ _______ _____ _____    ______ ____
ROOT
ATOM      1  C   UNL     1       7.827  -0.768  24.240  0.00  0.00    +0.000 C 
ATOM      2  O   UNL     1       9.032  -0.736  24.494  0.00  0.00    +0.000 OA
ATOM      3  N   UNL     1       7.363  -1.637  23.346  0.00  0.00    +0.000 N 
ENDROOT
BRANCH   3   4
ATOM      4  C   UNL     1       7.048  -2.825  23.954  0.00  0.00    +0.000 A 
ATOM      5  C   UNL     1       5.376  -2.651  24.239  0.00  0.00    +0.000 A 
ATOM      6  C   UNL     1       4.713  -3.797  23.528  0.00  0.00    +0.000 A 
ATOM      7  C   UNL     1       5.102  -5.059  22.839  0.00  0.00    +0.000 A 
ATOM      8  C   UNL     1       6.601  -5.103  22.562  0.00  0.00    +0.000 A 
ATOM      9  C   UNL     1       7.349  -4.125  23.446  0.00  0.00    +0.000 A 
ATOM     10  C   UNL     1       7.268  -6.177  21.951  0.00  0.00    +0.000 C 
BRANCH   9  11
ATOM     11  C   UNL     1       8.119  -5.005  24.384  0.00  0.00    +0.000 C 
ATOM     12  O   UNL     1       7.590  -5.347  25.419  0.00  0.00    +0.000 OA
ATOM     13  N   UNL     1       9.337  -4.380  24.436  0.00  0.00    +0.000 NA
ENDBRANCH   9  11
ENDBRANCH   3   4
BRANCH   1  14
ATOM     14  C   UNL     1       7.039   0.549  24.307  0.00  0.00    +0.000 C 
BRANCH  14  20
ATOM     15  C   UNL     1       8.391   2.739  24.585  0.00  0.00    +0.000 A 
ATOM     16  C   UNL     1       8.170   4.072  24.961  0.00  0.00    +0.000 A 
ATOM     17  C   UNL     1       7.743   4.578  26.425  0.00  0.00    +0.000 A 
ATOM     18  C   UNL     1       7.115   3.295  26.930  0.00  0.00    +0.000 A 
ATOM     19  C   UNL     1       7.234   1.993  26.450  0.00  0.00    +0.000 A 
ATOM     20  C   UNL     1       7.662   1.523  25.164  0.00  0.00    +0.000 A 
ATOM     21  F   UNL     1       7.200   3.314  28.262  0.00  0.00    +0.000 F 
BRANCH  15  22
ATOM     22  N   UNL     1       9.705   2.341  24.309  0.00  0.00    +0.000 NA
BRANCH  22  24
ATOM     23  C   UNL     1      10.042   1.597  22.049  0.00  0.00    +0.000 C 
ATOM     24  C   UNL     1      10.327   2.699  23.075  0.00  0.00    +0.000 C 
ENDBRANCH  22  24
ENDBRANCH  15  22
ENDBRANCH  14  20
ENDBRANCH   1  14
BRANCH   3  25
ATOM     25  C   UNL     1       7.694  -1.558  21.978  0.00  0.00    +0.000 C 
BRANCH  25  26
ATOM     26  C   UNL     1       6.657  -0.727  21.226  0.00  0.00    +0.000 A 
ATOM     27  C   UNL     1       5.785  -1.926  20.385  0.00  0.00    +0.000 A 
ATOM     28  N   UNL     1       5.950  -1.591  19.080  0.00  0.00    +0.000 NA
ATOM     29  C   UNL     1       6.213  -0.616  18.278  0.00  0.00    +0.000 A 
ATOM     30  C   UNL     1       7.109   0.546  18.871  0.00  0.00    +0.000 A 
ATOM     31  C   UNL     1       6.918   0.422  20.401  0.00  0.00    +0.000 A 
BRANCH  31  32
ATOM     32  C   UNL     1       6.252   1.671  20.784  0.00  0.00    +0.000 C 
ATOM     33  O   UNL     1       6.824   2.544  21.373  0.00  0.00    +0.000 OA
ATOM     34  O   UNL     1       5.238   1.912  19.943  0.00  0.00    +0.000 OA
ENDBRANCH  31  32
ENDBRANCH  25  26
ENDBRANCH   3  25
TORSDOF 9
ENDMDL
MODEL 3
REMARK VINA RESULT:      -6.9      2.765      7.193
REMARK  Name = 
REMARK  9 active torsions:
REMARK  status: ('A' for Active; 'I' for Inactive)
REMARK    1  A    between atoms: C_2  and  N_3
REMARK    2  A    between atoms: N_3  and  C_4
REMARK    3  A    between atoms: C_9  and  C_10
REMARK    4  A    between atoms: C_10  and  C_11
REMARK    5  A    between atoms: N_13  and  C_14
REMARK    6  A    between atoms: N_13  and  C_24
REMARK    7  A    between atoms: C_19  and  C_20
REMARK    8  A    between atoms: C_24  and  C_25
REMARK    9  A    between atoms: C_30  and  C_31
REMARK                            x       y       z     vdW  Elec       q    Type
REMARK                         _______ _______ _______ _____ _____    ______ ____
ROOT
ATOM      1  C   UNL     1       5.812  -2.160  22.715  0.00  0.00    +0.000 C 
ATOM      2  O   UNL     1       5.617  -2.582  21.575  0.00  0.00    +0.000 OA
ATOM      3  N   UNL     1       6.974  -1.584  23.017  0.00  0.00    +0.000 N 
ENDROOT
BRANCH   3   4
ATOM      4  C   UNL     1       6.920  -0.239  22.759  0.00  0.00    +0.000 A 
ATOM      5  C   UNL     1       6.364   0.390  24.243  0.00  0.00    +0.000 A 
ATOM      6  C   UNL     1       7.414   1.365  24.700  0.00  0.00    +0.000 A 
ATOM      7  C   UNL     1       8.636   2.022  24.161  0.00  0.00    +0.000 A 
ATOM      8  C   UNL     1       9.105   1.356  22.872  0.00  0.00    +0.000 A 
ATOM      9  C   UNL     1       7.989   0.551  22.235  0.00  0.00    +0.000 A 
ATOM     10  C   UNL     1      10.213   1.771  22.116  0.00  0.00    +0.000 C 
BRANCH   9  11
ATOM     11  C   UNL     1       7.653   1.320  20.993  0.00  0.00    +0.000 C 
ATOM     12  O   UNL     1       6.698   2.066  21.017  0.00  0.00    +0.000 OA
ATOM     13  N   UNL     1       7.716   0.353  20.026  0.00  0.00    +0.000 NA
ENDBRANCH   9  11
ENDBRANCH   3   4
BRANCH   1  14
ATOM     14  C   UNL     1       5.158  -2.909  23.885  0.00  0.00    +0.000 C 
BRANCH  14  20
ATOM     15  C   UNL     1       5.650  -5.443  24.089  0.00  0.00    +0.000 A 
ATOM     16  C   UNL     1       5.130  -6.567  24.747  0.00  0.00    +0.000 A 
ATOM     17  C   UNL     1       3.696  -7.237  24.473  0.00  0.00    +0.000 A 
ATOM     18  C   UNL     1       2.996  -6.033  23.879  0.00  0.00    +0.000 A 
ATOM     19  C   UNL     1       3.529  -4.856  23.359  0.00  0.00    +0.000 A 
ATOM     20  C   UNL     1       4.824  -4.270  23.552  0.00  0.00    +0.000 A 
ATOM     21  F   UNL     1       2.021  -6.493  23.092  0.00  0.00    +0.000 F 
BRANCH  15  22
ATOM     22  N   UNL     1       6.721  -5.633  23.207  0.00  0.00    +0.000 NA
BRANCH  22  24
ATOM     23  C   UNL     1       6.247  -5.812  20.858  0.00  0.00    +0.000 C 
ATOM     24  C   UNL     1       6.621  -6.571  22.136  0.00  0.00    +0.000 C 
ENDBRANCH  22  24
ENDBRANCH  15  22
ENDBRANCH  14  20
ENDBRANCH   1  14
BRANCH   3  25
ATOM     25  C   UNL     1       8.188  -2.300  23.026  0.00  0.00    +0.000 C 
BRANCH  25  26
ATOM     26  C   UNL     1       8.754  -2.372  24.442  0.00  0.00    +0.000 A 
ATOM     27  C   UNL     1      10.095  -3.404  24.235  0.00  0.00    +0.000 A 
ATOM     28  N   UNL     1       9.827  -4.451  25.057  0.00  0.00    +0.000 NA
ATOM     29  C   UNL     1       9.170  -4.812  26.107  0.00  0.00    +0.000 A 
ATOM     30  C   UNL     1       7.832  -4.018  26.394  0.00  0.00    +0.000 A 
ATOM     31  C   UNL     1       8.022  -2.680  25.640  0.00  0.00    +0.000 A 
BRANCH  31  32
ATOM     32  C   UNL     1       8.040  -1.668  26.701  0.00  0.00    +0.000 C 
ATOM     33  O   UNL     1       8.952  -0.903  26.837  0.00  0.00    +0.000 OA
ATOM     34  O   UNL     1       6.783  -1.361  27.048  0.00  0.00    +0.000 OA
ENDBRANCH  31  32
ENDBRANCH  25  26
ENDBRANCH   3  25
TORSDOF 9
ENDMDL
MODEL 4
REMARK VINA RESULT:      -6.6      2.998      5.969
REMARK  Name = 
REMARK  9 active torsions:
REMARK  status: ('A' for Active; 'I' for Inactive)
REMARK    1  A    between atoms: C_2  and  N_3
REMARK    2  A    between atoms: N_3  and  C_4
REMARK    3  A    between atoms: C_9  and  C_10
REMARK    4  A    between atoms: C_10  and  C_11
REMARK    5  A    between atoms: N_13  and  C_14
REMARK    6  A    between atoms: N_13  and  C_24
REMARK    7  A    between atoms: C_19  and  C_20
REMARK    8  A    between atoms: C_24  and  C_25
REMARK    9  A    between atoms: C_30  and  C_31
REMARK                            x       y       z     vdW  Elec       q    Type
REMARK                         _______ _______ _______ _____ _____    ______ ____
ROOT
ATOM      1  C   UNL     1       5.968  -1.673  24.206  0.00  0.00    +0.000 C 
ATOM      2  O   UNL     1       6.578  -0.631  24.448  0.00  0.00    +0.000 OA
ATOM      3  N   UNL     1       5.839  -2.598  25.154  0.00  0.00    +0.000 N 
ENDROOT
BRANCH   3   4
ATOM      4  C   UNL     1       4.712  -2.364  25.898  0.00  0.00    +0.000 A 
ATOM      5  C   UNL     1       3.507  -3.156  24.986  0.00  0.00    +0.000 A 
ATOM      6  C   UNL     1       2.893  -4.175  25.905  0.00  0.00    +0.000 A 
ATOM      7  C   UNL     1       2.922  -4.536  27.349  0.00  0.00    +0.000 A 
ATOM      8  C   UNL     1       4.068  -3.839  28.076  0.00  0.00    +0.000 A 
ATOM      9  C   UNL     1       4.563  -2.639  27.292  0.00  0.00    +0.000 A 
ATOM     10  C   UNL     1       4.334  -3.960  29.449  0.00  0.00    +0.000 C 
BRANCH   9  11
ATOM     11  C   UNL     1       4.137  -1.466  28.122  0.00  0.00    +0.000 C 
ATOM     12  O   UNL     1       3.015  -1.031  27.974  0.00  0.00    +0.000 OA
ATOM     13  N   UNL     1       5.202  -0.615  27.992  0.00  0.00    +0.000 NA
ENDBRANCH   9  11
ENDBRANCH   3   4
BRANCH   1  14
ATOM     14  C   UNL     1       6.040  -2.238  22.780  0.00  0.00    +0.000 C 
BRANCH  14  20
ATOM     15  C   UNL     1       7.191  -0.418  21.343  0.00  0.00    +0.000 A 
ATOM     16  C   UNL     1       8.165   0.581  21.492  0.00  0.00    +0.000 A 
ATOM     17  C   UNL     1       9.726   0.337  21.781  0.00  0.00    +0.000 A 
ATOM     18  C   UNL     1       9.626  -1.041  22.404  0.00  0.00    +0.000 A 
ATOM     19  C   UNL     1       8.584  -1.965  22.365  0.00  0.00    +0.000 A 
ATOM     20  C   UNL     1       7.196  -1.772  22.058  0.00  0.00    +0.000 A 
ATOM     21  F   UNL     1      10.798  -1.647  22.208  0.00  0.00    +0.000 F 
BRANCH  15  22
ATOM     22  N   UNL     1       6.648  -0.624  20.069  0.00  0.00    +0.000 NA
BRANCH  22  24
ATOM     23  C   UNL     1       5.906   0.697  18.205  0.00  0.00    +0.000 C 
ATOM     24  C   UNL     1       7.117   0.128  18.951  0.00  0.00    +0.000 C 
ENDBRANCH  22  24
ENDBRANCH  15  22
ENDBRANCH  14  20
ENDBRANCH   1  14
BRANCH   3  25
ATOM     25  C   UNL     1       6.942  -3.311  25.665  0.00  0.00    +0.000 C 
BRANCH  25  26
ATOM     26  C   UNL     1       6.878  -4.774  25.236  0.00  0.00    +0.000 A 
ATOM     27  C   UNL     1       8.438  -5.025  24.596  0.00  0.00    +0.000 A 
ATOM     28  N   UNL     1       8.205  -5.380  23.307  0.00  0.00    +0.000 NA
ATOM     29  C   UNL     1       7.330  -5.886  22.505  0.00  0.00    +0.000 A 
ATOM     30  C   UNL     1       5.815  -5.656  22.900  0.00  0.00    +0.000 A 
ATOM     31  C   UNL     1       5.861  -5.382  24.422  0.00  0.00    +0.000 A 
BRANCH  31  32
ATOM     32  C   UNL     1       5.129  -6.507  25.013  0.00  0.00    +0.000 C 
ATOM     33  O   UNL     1       4.632  -7.366  24.344  0.00  0.00    +0.000 OA
ATOM     34  O   UNL     1       5.580  -6.728  26.255  0.00  0.00    +0.000 OA
ENDBRANCH  31  32
ENDBRANCH  25  26
ENDBRANCH   3  25
TORSDOF 9
ENDMDL
MODEL 5
REMARK VINA RESULT:      -6.5      2.766      4.580
REMARK  Name = 
REMARK  9 active torsions:
REMARK  status: ('A' for Active; 'I' for Inactive)
REMARK    1  A    between atoms: C_2  and  N_3
REMARK    2  A    between atoms: N_3  and  C_4
REMARK    3  A    between atoms: C_9  and  C_10
REMARK    4  A    between atoms: C_10  and  C_11
REMARK    5  A    between atoms: N_13  and  C_14
REMARK    6  A    between atoms: N_13  and  C_24
REMARK    7  A    between atoms: C_19  and  C_20
REMARK    8  A    between atoms: C_24  and  C_25
REMARK    9  A    between atoms: C_30  and  C_31
REMARK                            x       y       z     vdW  Elec       q    Type
REMARK                         _______ _______ _______ _____ _____    ______ ____
ROOT
ATOM      1  C   UNL     1       7.941  -2.078  22.756  0.00  0.00    +0.000 C 
ATOM      2  O   UNL     1       7.667  -1.803  21.588  0.00  0.00    +0.000 OA
ATOM      3  N   UNL     1       7.015  -2.622  23.542  0.00  0.00    +0.000 N 
ENDROOT
BRANCH   3   4
ATOM      4  C   UNL     1       7.045  -3.989  23.438  0.00  0.00    +0.000 A 
ATOM      5  C   UNL     1       7.796  -4.445  24.900  0.00  0.00    +0.000 A 
ATOM      6  C   UNL     1       6.822  -5.352  25.600  0.00  0.00    +0.000 A 
ATOM      7  C   UNL     1       5.545  -6.058  25.306  0.00  0.00    +0.000 A 
ATOM      8  C   UNL     1       4.906  -5.544  24.020  0.00  0.00    +0.000 A 
ATOM      9  C   UNL     1       5.924  -4.826  23.154  0.00  0.00    +0.000 A 
ATOM     10  C   UNL     1       3.712  -6.035  23.470  0.00  0.00    +0.000 C 
BRANCH   9  11
ATOM     11  C   UNL     1       6.101  -5.738  21.977  0.00  0.00    +0.000 C 
ATOM     12  O   UNL     1       7.040  -6.503  21.977  0.00  0.00    +0.000 OA
ATOM     13  N   UNL     1       5.940  -4.883  20.920  0.00  0.00    +0.000 NA
ENDBRANCH   9  11
ENDBRANCH   3   4
BRANCH   1  14
ATOM     14  C   UNL     1       8.944  -1.179  23.494  0.00  0.00    +0.000 C 
BRANCH  14  20
ATOM     15  C   UNL     1       7.985   1.224  23.586  0.00  0.00    +0.000 A 
ATOM     16  C   UNL     1       8.361   2.491  24.055  0.00  0.00    +0.000 A 
ATOM     17  C   UNL     1       9.568   3.385  23.483  0.00  0.00    +0.000 A 
ATOM     18  C   UNL     1      10.397   2.275  22.869  0.00  0.00    +0.000 A 
ATOM     19  C   UNL     1      10.039   0.969  22.543  0.00  0.00    +0.000 A 
ATOM     20  C   UNL     1       8.937   0.175  23.005  0.00  0.00    +0.000 A 
ATOM     21  F   UNL     1      11.122   2.821  21.890  0.00  0.00    +0.000 F 
BRANCH  15  22
ATOM     22  N   UNL     1       6.773   1.111  22.893  0.00  0.00    +0.000 NA
BRANCH  22  24
ATOM     23  C   UNL     1       6.529   1.281  20.509  0.00  0.00    +0.000 C 
ATOM     24  C   UNL     1       6.448   2.025  21.846  0.00  0.00    +0.000 C 
ENDBRANCH  22  24
ENDBRANCH  15  22
ENDBRANCH  14  20
ENDBRANCH   1  14
BRANCH   3  25
ATOM     25  C   UNL     1       5.855  -1.923  23.932  0.00  0.00    +0.000 C 
BRANCH  25  26
ATOM     26  C   UNL     1       5.890  -1.625  25.429  0.00  0.00    +0.000 A 
ATOM     27  C   UNL     1       4.388  -2.240  25.949  0.00  0.00    +0.000 A 
ATOM     28  N   UNL     1       3.760  -1.158  26.474  0.00  0.00    +0.000 NA
ATOM     29  C   UNL     1       3.947   0.006  27.000  0.00  0.00    +0.000 A 
ATOM     30  C   UNL     1       5.257   0.768  26.543  0.00  0.00    +0.000 A 
ATOM     31  C   UNL     1       6.190  -0.358  26.040  0.00  0.00    +0.000 A 
BRANCH  31  32
ATOM     32  C   UNL     1       7.325  -0.329  26.970  0.00  0.00    +0.000 C 
ATOM     33  O   UNL     1       7.306   0.318  27.978  0.00  0.00    +0.000 OA
ATOM     34  O   UNL     1       8.027  -1.463  26.852  0.00  0.00    +0.000 OA
ENDBRANCH  31  32
ENDBRANCH  25  26
ENDBRANCH   3  25
TORSDOF 9
ENDMDL
MODEL 6
REMARK VINA RESULT:      -6.5      2.516      4.984
REMARK  Name = 
REMARK  9 active torsions:
REMARK  status: ('A' for Active; 'I' for Inactive)
REMARK    1  A    between atoms: C_2  and  N_3
REMARK    2  A    between atoms: N_3  and  C_4
REMARK    3  A    between atoms: C_9  and  C_10
REMARK    4  A    between atoms: C_10  and  C_11
REMARK    5  A    between atoms: N_13  and  C_14
REMARK    6  A    between atoms: N_13  and  C_24
REMARK    7  A    between atoms: C_19  and  C_20
REMARK    8  A    between atoms: C_24  and  C_25
REMARK    9  A    between atoms: C_30  and  C_31
REMARK                            x       y       z     vdW  Elec       q    Type
REMARK                         _______ _______ _______ _____ _____    ______ ____
ROOT
ATOM      1  C   UNL     1       7.064  -2.792  22.165  0.00  0.00    +0.000 C 
ATOM      2  O   UNL     1       6.196  -2.570  21.321  0.00  0.00    +0.000 OA
ATOM      3  N   UNL     1       6.733  -2.854  23.453  0.00  0.00    +0.000 N 
ENDROOT
BRANCH   3   4
ATOM      4  C   UNL     1       6.377  -4.134  23.792  0.00  0.00    +0.000 A 
ATOM      5  C   UNL     1       7.821  -4.742  24.465  0.00  0.00    +0.000 A 
ATOM      6  C   UNL     1       7.480  -5.164  25.868  0.00  0.00    +0.000 A 
ATOM      7  C   UNL     1       6.269  -5.351  26.713  0.00  0.00    +0.000 A 
ATOM      8  C   UNL     1       5.038  -4.720  26.072  0.00  0.00    +0.000 A 
ATOM      9  C   UNL     1       5.247  -4.500  24.586  0.00  0.00    +0.000 A 
ATOM     10  C   UNL     1       3.745  -4.757  26.618  0.00  0.00    +0.000 C 
BRANCH   9  11
ATOM     11  C   UNL     1       4.320  -5.487  23.942  0.00  0.00    +0.000 C 
ATOM     12  O   UNL     1       4.709  -6.622  23.776  0.00  0.00    +0.000 OA
ATOM     13  N   UNL     1       3.847  -4.783  22.867  0.00  0.00    +0.000 NA
ENDBRANCH   9  11
ENDBRANCH   3   4
BRANCH   1  14
ATOM     14  C   UNL     1       8.480  -2.259  21.904  0.00  0.00    +0.000 C 
BRANCH  14  20
ATOM     15  C   UNL     1       7.180  -0.099  21.312  0.00  0.00    +0.000 A 
ATOM     16  C   UNL     1       6.981   1.187  21.835  0.00  0.00    +0.000 A 
ATOM     17  C   UNL     1       8.100   2.331  21.970  0.00  0.00    +0.000 A 
ATOM     18  C   UNL     1       9.328   1.444  21.979  0.00  0.00    +0.000 A 
ATOM     19  C   UNL     1       9.472   0.115  21.588  0.00  0.00    +0.000 A 
ATOM     20  C   UNL     1       8.479  -0.905  21.413  0.00  0.00    +0.000 A 
ATOM     21  F   UNL     1      10.347   2.178  21.530  0.00  0.00    +0.000 F 
BRANCH  15  22
ATOM     22  N   UNL     1       6.599  -0.405  20.075  0.00  0.00    +0.000 NA
BRANCH  22  24
ATOM     23  C   UNL     1       5.815   0.500  17.992  0.00  0.00    +0.000 C 
ATOM     24  C   UNL     1       7.034   0.254  18.887  0.00  0.00    +0.000 C 
ENDBRANCH  22  24
ENDBRANCH  15  22
ENDBRANCH  14  20
ENDBRANCH   1  14
BRANCH   3  25
ATOM     25  C   UNL     1       6.266  -1.730  24.164  0.00  0.00    +0.000 C 
BRANCH  25  26
ATOM     26  C   UNL     1       7.300  -1.284  25.195  0.00  0.00    +0.000 A 
ATOM     27  C   UNL     1       6.376  -1.238  26.627  0.00  0.00    +0.000 A 
ATOM     28  N   UNL     1       6.468   0.054  27.030  0.00  0.00    +0.000 NA
ATOM     29  C   UNL     1       7.186   1.123  26.953  0.00  0.00    +0.000 A 
ATOM     30  C   UNL     1       8.037   1.292  25.630  0.00  0.00    +0.000 A 
ATOM     31  C   UNL     1       8.178  -0.150  25.088  0.00  0.00    +0.000 A 
BRANCH  31  32
ATOM     32  C   UNL     1       9.617  -0.424  25.160  0.00  0.00    +0.000 C 
ATOM     33  O   UNL     1      10.094  -1.442  24.746  0.00  0.00    +0.000 OA
ATOM     34  O   UNL     1      10.291   0.733  25.180  0.00  0.00    +0.000 OA
ENDBRANCH  31  32
ENDBRANCH  25  26
ENDBRANCH   3  25
TORSDOF 9
ENDMDL
MODEL 7
REMARK VINA RESULT:      -6.3      3.176      5.519
REMARK  Name = 
REMARK  9 active torsions:
REMARK  status: ('A' for Active; 'I' for Inactive)
REMARK    1  A    between atoms: C_2  and  N_3
REMARK    2  A    between atoms: N_3  and  C_4
REMARK    3  A    between atoms: C_9  and  C_10
REMARK    4  A    between atoms: C_10  and  C_11
REMARK    5  A    between atoms: N_13  and  C_14
REMARK    6  A    between atoms: N_13  and  C_24
REMARK    7  A    between atoms: C_19  and  C_20
REMARK    8  A    between atoms: C_24  and  C_25
REMARK    9  A    between atoms: C_30  and  C_31
REMARK                            x       y       z     vdW  Elec       q    Type
REMARK                         _______ _______ _______ _____ _____    ______ ____
ROOT
ATOM      1  C   UNL     1       6.016  -3.705  22.768  0.00  0.00    +0.000 C 
ATOM      2  O   UNL     1       5.107  -3.682  21.937  0.00  0.00    +0.000 OA
ATOM      3  N   UNL     1       5.725  -3.699  24.067  0.00  0.00    +0.000 N 
ENDROOT
BRANCH   3   4
ATOM      4  C   UNL     1       5.563  -4.981  24.525  0.00  0.00    +0.000 A 
ATOM      5  C   UNL     1       7.044  -5.269  25.320  0.00  0.00    +0.000 A 
ATOM      6  C   UNL     1       6.693  -5.602  26.744  0.00  0.00    +0.000 A 
ATOM      7  C   UNL     1       5.480  -5.906  27.552  0.00  0.00    +0.000 A 
ATOM      8  C   UNL     1       4.203  -5.557  26.795  0.00  0.00    +0.000 A 
ATOM      9  C   UNL     1       4.463  -5.452  25.304  0.00  0.00    +0.000 A 
ATOM     10  C   UNL     1       2.903  -5.758  27.286  0.00  0.00    +0.000 C 
BRANCH   9  11
ATOM     11  C   UNL     1       3.748  -6.639  24.730  0.00  0.00    +0.000 C 
ATOM     12  O   UNL     1       4.366  -7.671  24.589  0.00  0.00    +0.000 OA
ATOM     13  N   UNL     1       3.105  -6.097  23.650  0.00  0.00    +0.000 NA
ENDBRANCH   9  11
ENDBRANCH   3   4
BRANCH   1  14
ATOM     14  C   UNL     1       7.336  -3.004  22.415  0.00  0.00    +0.000 C 
BRANCH  14  20
ATOM     15  C   UNL     1       8.308  -0.769  21.541  0.00  0.00    +0.000 A 
ATOM     16  C   UNL     1       8.581  -0.148  20.314  0.00  0.00    +0.000 A 
ATOM     17  C   UNL     1       7.488   0.325  19.235  0.00  0.00    +0.000 A 
ATOM     18  C   UNL     1       6.359  -0.599  19.641  0.00  0.00    +0.000 A 
ATOM     19  C   UNL     1       6.177  -1.325  20.816  0.00  0.00    +0.000 A 
ATOM     20  C   UNL     1       7.131  -1.712  21.815  0.00  0.00    +0.000 A 
ATOM     21  F   UNL     1       5.219  -0.012  19.272  0.00  0.00    +0.000 F 
BRANCH  15  22
ATOM     22  N   UNL     1       8.534  -0.038  22.714  0.00  0.00    +0.000 NA
BRANCH  22  24
ATOM     23  C   UNL     1       9.767   1.433  24.159  0.00  0.00    +0.000 C 
ATOM     24  C   UNL     1       9.858   0.340  23.090  0.00  0.00    +0.000 C 
ENDBRANCH  22  24
ENDBRANCH  15  22
ENDBRANCH  14  20
ENDBRANCH   1  14
BRANCH   3  25
ATOM     25  C   UNL     1       5.119  -2.593  24.696  0.00  0.00    +0.000 C 
BRANCH  25  26
ATOM     26  C   UNL     1       5.994  -2.083  25.839  0.00  0.00    +0.000 A 
ATOM     27  C   UNL     1       4.863  -1.917  27.103  0.00  0.00    +0.000 A 
ATOM     28  N   UNL     1       4.924  -0.599  27.421  0.00  0.00    +0.000 NA
ATOM     29  C   UNL     1       5.672   0.451  27.378  0.00  0.00    +0.000 A 
ATOM     30  C   UNL     1       6.718   0.508  26.194  0.00  0.00    +0.000 A 
ATOM     31  C   UNL     1       6.905  -0.973  25.787  0.00  0.00    +0.000 A 
BRANCH  31  32
ATOM     32  C   UNL     1       8.309  -1.259  26.099  0.00  0.00    +0.000 C 
ATOM     33  O   UNL     1       8.820  -0.902  27.122  0.00  0.00    +0.000 OA
ATOM     34  O   UNL     1       8.696  -2.362  25.445  0.00  0.00    +0.000 OA
ENDBRANCH  31  32
ENDBRANCH  25  26
ENDBRANCH   3  25
TORSDOF 9
ENDMDL
MODEL 8
REMARK VINA RESULT:      -6.2      2.956      6.472
REMARK  Name = 
REMARK  9 active torsions:
REMARK  status: ('A' for Active; 'I' for Inactive)
REMARK    1  A    between atoms: C_2  and  N_3
REMARK    2  A    between atoms: N_3  and  C_4
REMARK    3  A    between atoms: C_9  and  C_10
REMARK    4  A    between atoms: C_10  and  C_11
REMARK    5  A    between atoms: N_13  and  C_14
REMARK    6  A    between atoms: N_13  and  C_24
REMARK    7  A    between atoms: C_19  and  C_20
REMARK    8  A    between atoms: C_24  and  C_25
REMARK    9  A    between atoms: C_30  and  C_31
REMARK                            x       y       z     vdW  Elec       q    Type
REMARK                         _______ _______ _______ _____ _____    ______ ____
ROOT
ATOM      1  C   UNL     1       6.092  -0.680  25.376  0.00  0.00    +0.000 C 
ATOM      2  O   UNL     1       5.156   0.115  25.279  0.00  0.00    +0.000 OA
ATOM      3  N   UNL     1       6.623  -1.213  24.278  0.00  0.00    +0.000 N 
ENDROOT
BRANCH   3   4
ATOM      4  C   UNL     1       7.630  -0.415  23.801  0.00  0.00    +0.000 A 
ATOM      5  C   UNL     1       9.025  -1.261  24.299  0.00  0.00    +0.000 A 
ATOM      6  C   UNL     1       9.798  -1.563  23.045  0.00  0.00    +0.000 A 
ATOM      7  C   UNL     1       9.772  -1.194  21.603  0.00  0.00    +0.000 A 
ATOM      8  C   UNL     1       8.465  -0.504  21.226  0.00  0.00    +0.000 A 
ATOM      9  C   UNL     1       7.762   0.042  22.454  0.00  0.00    +0.000 A 
ATOM     10  C   UNL     1       8.160  -0.015  19.946  0.00  0.00    +0.000 C 
BRANCH   9  11
ATOM     11  C   UNL     1       7.877   1.529  22.303  0.00  0.00    +0.000 C 
ATOM     12  O   UNL     1       8.830   2.088  22.802  0.00  0.00    +0.000 OA
ATOM     13  N   UNL     1       6.615   1.952  22.626  0.00  0.00    +0.000 NA
ENDBRANCH   9  11
ENDBRANCH   3   4
BRANCH   1  14
ATOM     14  C   UNL     1       6.135  -1.598  26.606  0.00  0.00    +0.000 C 
BRANCH  14  20
ATOM     15  C   UNL     1       4.057  -3.123  26.840  0.00  0.00    +0.000 A 
ATOM     16  C   UNL     1       3.484  -3.984  27.788  0.00  0.00    +0.000 A 
ATOM     17  C   UNL     1       2.871  -3.546  29.208  0.00  0.00    +0.000 A 
ATOM     18  C   UNL     1       3.632  -2.249  29.389  0.00  0.00    +0.000 A 
ATOM     19  C   UNL     1       4.322  -1.480  28.454  0.00  0.00    +0.000 A 
ATOM     20  C   UNL     1       4.830  -1.840  27.162  0.00  0.00    +0.000 A 
ATOM     21  F   UNL     1       2.898  -1.470  30.186  0.00  0.00    +0.000 F 
BRANCH  15  22
ATOM     22  N   UNL     1       3.358  -2.897  25.648  0.00  0.00    +0.000 NA
BRANCH  22  24
ATOM     23  C   UNL     1       2.076  -4.475  24.367  0.00  0.00    +0.000 C 
ATOM     24  C   UNL     1       2.039  -3.413  25.471  0.00  0.00    +0.000 C 
ENDBRANCH  22  24
ENDBRANCH  15  22
ENDBRANCH  14  20
ENDBRANCH   1  14
BRANCH   3  25
ATOM     25  C   UNL     1       5.903  -2.094  23.446  0.00  0.00    +0.000 C 
BRANCH  25  26
ATOM     26  C   UNL     1       6.581  -3.461  23.402  0.00  0.00    +0.000 A 
ATOM     27  C   UNL     1       6.170  -4.009  21.841  0.00  0.00    +0.000 A 
ATOM     28  N   UNL     1       5.480  -5.155  22.073  0.00  0.00    +0.000 NA
ATOM     29  C   UNL     1       5.295  -6.109  22.921  0.00  0.00    +0.000 A 
ATOM     30  C   UNL     1       5.536  -5.740  24.441  0.00  0.00    +0.000 A 
ATOM     31  C   UNL     1       6.465  -4.504  24.384  0.00  0.00    +0.000 A 
BRANCH  31  32
ATOM     32  C   UNL     1       7.711  -4.959  25.010  0.00  0.00    +0.000 C 
ATOM     33  O   UNL     1       7.717  -5.660  25.981  0.00  0.00    +0.000 OA
ATOM     34  O   UNL     1       8.686  -4.988  24.092  0.00  0.00    +0.000 OA
ENDBRANCH  31  32
ENDBRANCH  25  26
ENDBRANCH   3  25
TORSDOF 9
ENDMDL
MODEL 9
REMARK VINA RESULT:      -6.2      3.174      5.810
REMARK  Name = 
REMARK  9 active torsions:
REMARK  status: ('A' for Active; 'I' for Inactive)
REMARK    1  A    between atoms: C_2  and  N_3
REMARK    2  A    between atoms: N_3  and  C_4
REMARK    3  A    between atoms: C_9  and  C_10
REMARK    4  A    between atoms: C_10  and  C_11
REMARK    5  A    between atoms: N_13  and  C_14
REMARK    6  A    between atoms: N_13  and  C_24
REMARK    7  A    between atoms: C_19  and  C_20
REMARK    8  A    between atoms: C_24  and  C_25
REMARK    9  A    between atoms: C_30  and  C_31
REMARK                            x       y       z     vdW  Elec       q    Type
REMARK                         _______ _______ _______ _____ _____    ______ ____
ROOT
ATOM      1  C   UNL     1       7.545  -1.571  25.584  0.00  0.00    +0.000 C 
ATOM      2  O   UNL     1       8.194  -0.803  26.293  0.00  0.00    +0.000 OA
ATOM      3  N   UNL     1       6.804  -2.524  26.145  0.00  0.00    +0.000 N 
ENDROOT
BRANCH   3   4
ATOM      4  C   UNL     1       5.546  -2.051  26.416  0.00  0.00    +0.000 A 
ATOM      5  C   UNL     1       4.725  -2.359  24.952  0.00  0.00    +0.000 A 
ATOM      6  C   UNL     1       3.564  -3.246  25.307  0.00  0.00    +0.000 A 
ATOM      7  C   UNL     1       2.876  -3.750  26.528  0.00  0.00    +0.000 A 
ATOM      8  C   UNL     1       3.707  -3.497  27.781  0.00  0.00    +0.000 A 
ATOM      9  C   UNL     1       4.744  -2.416  27.540  0.00  0.00    +0.000 A 
ATOM     10  C   UNL     1       3.309  -3.833  29.084  0.00  0.00    +0.000 C 
BRANCH   9  11
ATOM     11  C   UNL     1       4.263  -1.264  28.370  0.00  0.00    +0.000 C 
ATOM     12  O   UNL     1       3.200  -0.754  28.088  0.00  0.00    +0.000 OA
ATOM     13  N   UNL     1       5.379  -0.475  28.447  0.00  0.00    +0.000 NA
ENDBRANCH   9  11
ENDBRANCH   3   4
BRANCH   1  14
ATOM     14  C   UNL     1       8.122  -1.950  24.212  0.00  0.00    +0.000 C 
BRANCH  14  20
ATOM     15  C   UNL     1       8.777   0.015  22.659  0.00  0.00    +0.000 A 
ATOM     16  C   UNL     1       9.086   0.231  21.308  0.00  0.00    +0.000 A 
ATOM     17  C   UNL     1       8.069   0.072  20.073  0.00  0.00    +0.000 A 
ATOM     18  C   UNL     1       7.082  -0.880  20.718  0.00  0.00    +0.000 A 
ATOM     19  C   UNL     1       6.889  -1.191  22.062  0.00  0.00    +0.000 A 
ATOM     20  C   UNL     1       7.765  -1.008  23.183  0.00  0.00    +0.000 A 
ATOM     21  F   UNL     1       5.911  -0.707  20.103  0.00  0.00    +0.000 F 
BRANCH  15  22
ATOM     22  N   UNL     1       8.720   1.127  23.508  0.00  0.00    +0.000 NA
BRANCH  22  24
ATOM     23  C   UNL     1      10.840   0.685  24.548  0.00  0.00    +0.000 C 
ATOM     24  C   UNL     1       9.918   1.758  23.959  0.00  0.00    +0.000 C 
ENDBRANCH  22  24
ENDBRANCH  15  22
ENDBRANCH  14  20
ENDBRANCH   1  14
BRANCH   3  25
ATOM     25  C   UNL     1       7.374  -3.596  26.861  0.00  0.00    +0.000 C 
BRANCH  25  26
ATOM     26  C   UNL     1       7.188  -4.905  26.099  0.00  0.00    +0.000 A 
ATOM     27  C   UNL     1       8.785  -5.273  25.631  0.00  0.00    +0.000 A 
ATOM     28  N   UNL     1       8.726  -5.306  24.276  0.00  0.00    +0.000 NA
ATOM     29  C   UNL     1       7.938  -5.479  23.269  0.00  0.00    +0.000 A 
ATOM     30  C   UNL     1       6.423  -5.087  23.501  0.00  0.00    +0.000 A 
ATOM     31  C   UNL     1       6.250  -5.150  25.037  0.00  0.00    +0.000 A 
BRANCH  31  32
ATOM     32  C   UNL     1       5.286  -6.235  25.247  0.00  0.00    +0.000 C 
ATOM     33  O   UNL     1       4.826  -6.865  24.338  0.00  0.00    +0.000 OA
ATOM     34  O   UNL     1       5.458  -6.753  26.471  0.00  0.00    +0.000 OA
ENDBRANCH  31  32
ENDBRANCH  25  26
ENDBRANCH   3  25
TORSDOF 9
ENDMDL
