MODEL 1
REMARK VINA RESULT:      -7.5      0.000      0.000
REMARK  Name = 
REMARK  5 active torsions:
REMARK  status: ('A' for Active; 'I' for Inactive)
REMARK    1  A    between atoms: C_2  and  N_3
REMARK    2  A    between atoms: N_3  and  C_4
REMARK    3  A    between atoms: C_9  and  N_10
REMARK    4  A    between atoms: N_19  and  C_20
REMARK    5  A    between atoms: C_25  and  C_26
REMARK                            x       y       z     vdW  Elec       q    Type
REMARK                         _______ _______ _______ _____ _____    ______ ____
ROOT
ATOM      1  N   UNL     1       9.104   0.794  23.641  0.00  0.00    +0.000 N 
ATOM      2  C   UNL     1      10.433   0.226  23.423  0.00  0.00    +0.000 C 
ATOM      3  C   UNL     1      10.320  -1.275  23.218  0.00  0.00    +0.000 C 
ATOM      4  N   UNL     1       9.626  -1.880  24.347  0.00  0.00    +0.000 N 
ATOM      5  C   UNL     1       8.854  -1.088  25.139  0.00  0.00    +0.000 C 
ATOM      6  C   UNL     1       8.866  -1.253  26.537  0.00  0.00    +0.000 C 
ATOM      7  C   UNL     1       8.164   0.061  24.484  0.00  0.00    +0.000 C 
ATOM      8  C   UNL     1       8.926  -3.052  24.106  0.00  0.00    +0.000 C 
ATOM      9  O   UNL     1       9.496  -4.101  24.314  0.00  0.00    +0.000 OA
ATOM     10  N   UNL     1       8.009  -2.796  23.290  0.00  0.00    +0.000 NA
ENDROOT
BRANCH   1  16
ATOM     11  C   UNL     1       7.777   2.381  22.331  0.00  0.00    +0.000 A 
ATOM     12  C   UNL     1       7.193   3.641  22.167  0.00  0.00    +0.000 A 
ATOM     13  C   UNL     1       6.737   4.602  23.386  0.00  0.00    +0.000 A 
ATOM     14  C   UNL     1       7.761   4.133  24.412  0.00  0.00    +0.000 A 
ATOM     15  C   UNL     1       8.550   3.003  24.444  0.00  0.00    +0.000 A 
ATOM     16  C   UNL     1       8.862   2.079  23.343  0.00  0.00    +0.000 A 
ATOM     17  F   UNL     1       7.187   4.340  25.611  0.00  0.00    +0.000 F 
BRANCH  11  18
ATOM     18  N   UNL     1       7.050   1.273  21.920  0.00  0.00    +0.000 NA
BRANCH  18  20
ATOM     19  C   UNL     1       8.226  -0.083  20.261  0.00  0.00    +0.000 C 
ATOM     20  C   UNL     1       7.111   0.920  20.510  0.00  0.00    +0.000 C 
ENDBRANCH  18  20
ENDBRANCH  11  18
ENDBRANCH   1  16
BRANCH  10  21
ATOM     21  C   UNL     1       7.057  -3.597  22.855  0.00  0.00    +0.000 A 
ATOM     22  C   UNL     1       5.623  -2.697  22.897  0.00  0.00    +0.000 A 
ATOM     23  N   UNL     1       4.799  -3.445  23.687  0.00  0.00    +0.000 NA
ATOM     24  C   UNL     1       4.547  -4.666  24.041  0.00  0.00    +0.000 A 
ATOM     25  C   UNL     1       5.829  -5.604  24.178  0.00  0.00    +0.000 A 
ATOM     26  C   UNL     1       6.823  -4.985  23.164  0.00  0.00    +0.000 A 
BRANCH  26  27
ATOM     27  C   UNL     1       7.011  -6.025  22.139  0.00  0.00    +0.000 C 
ATOM     28  C   UNL     1       6.331  -5.823  20.922  0.00  0.00    +0.000 C 
ENDBRANCH  26  27
ENDBRANCH  10  21
TORSDOF 5
ENDMDL
MODEL 2
REMARK VINA RESULT:      -7.1      1.477      2.046
REMARK  Name = 
REMARK  5 active torsions:
REMARK  status: ('A' for Active; 'I' for Inactive)
REMARK    1  A    between atoms: C_2  and  N_3
REMARK    2  A    between atoms: N_3  and  C_4
REMARK    3  A    between atoms: C_9  and  N_10
REMARK    4  A    between atoms: N_19  and  C_20
REMARK    5  A    between atoms: C_25  and  C_26
REMARK                            x       y       z     vdW  Elec       q    Type
REMARK                         _______ _______ _______ _____ _____    ______ ____
ROOT
ATOM      1  N   UNL     1       8.396   0.364  23.274  0.00  0.00    +0.000 N 
ATOM      2  C   UNL     1       9.733   0.021  22.794  0.00  0.00    +0.000 C 
ATOM      3  C   UNL     1       9.932  -1.484  22.868  0.00  0.00    +0.000 C 
ATOM      4  N   UNL     1       9.681  -1.953  24.224  0.00  0.00    +0.000 N 
ATOM      5  C   UNL     1       8.950  -1.168  25.062  0.00  0.00    +0.000 C 
ATOM      6  C   UNL     1       9.324  -1.025  26.411  0.00  0.00    +0.000 C 
ATOM      7  C   UNL     1       7.876  -0.335  24.446  0.00  0.00    +0.000 C 
ATOM      8  C   UNL     1       9.241  -3.259  24.372  0.00  0.00    +0.000 C 
ATOM      9  O   UNL     1      10.074  -4.113  24.580  0.00  0.00    +0.000 OA
ATOM     10  N   UNL     1       8.126  -3.358  23.807  0.00  0.00    +0.000 NA
ENDROOT
BRANCH   1  16
ATOM     11  C   UNL     1       7.079   1.454  21.520  0.00  0.00    +0.000 A 
ATOM     12  C   UNL     1       6.148   2.415  21.111  0.00  0.00    +0.000 A 
ATOM     13  C   UNL     1       4.985   3.021  22.057  0.00  0.00    +0.000 A 
ATOM     14  C   UNL     1       5.708   2.876  23.390  0.00  0.00    +0.000 A 
ATOM     15  C   UNL     1       6.809   2.124  23.740  0.00  0.00    +0.000 A 
ATOM     16  C   UNL     1       7.795   1.487  22.854  0.00  0.00    +0.000 A 
ATOM     17  F   UNL     1       4.736   2.743  24.312  0.00  0.00    +0.000 F 
BRANCH  11  18
ATOM     18  N   UNL     1       7.010   0.197  20.936  0.00  0.00    +0.000 NA
BRANCH  18  20
ATOM     19  C   UNL     1       6.330  -0.314  18.645  0.00  0.00    +0.000 C 
ATOM     20  C   UNL     1       7.478   0.072  19.564  0.00  0.00    +0.000 C 
ENDBRANCH  18  20
ENDBRANCH  11  18
ENDBRANCH   1  16
BRANCH  10  21
ATOM     21  C   UNL     1       7.315  -4.397  23.780  0.00  0.00    +0.000 A 
ATOM     22  C   UNL     1       7.032  -4.736  22.145  0.00  0.00    +0.000 A 
ATOM     23  N   UNL     1       5.672  -4.672  22.035  0.00  0.00    +0.000 NA
ATOM     24  C   UNL     1       4.579  -4.859  22.705  0.00  0.00    +0.000 A 
ATOM     25  C   UNL     1       4.656  -4.450  24.245  0.00  0.00    +0.000 A 
ATOM     26  C   UNL     1       6.151  -4.664  24.588  0.00  0.00    +0.000 A 
BRANCH  26  27
ATOM     27  C   UNL     1       6.157  -5.755  25.577  0.00  0.00    +0.000 C 
ATOM     28  C   UNL     1       6.960  -5.550  26.716  0.00  0.00    +0.000 C 
ENDBRANCH  26  27
ENDBRANCH  10  21
TORSDOF 5
ENDMDL
MODEL 3
REMARK VINA RESULT:      -7.1      2.308      3.427
REMARK  Name = 
REMARK  5 active torsions:
REMARK  status: ('A' for Active; 'I' for Inactive)
REMARK    1  A    between atoms: C_2  and  N_3
REMARK    2  A    between atoms: N_3  and  C_4
REMARK    3  A    between atoms: C_9  and  N_10
REMARK    4  A    between atoms: N_19  and  C_20
REMARK    5  A    between atoms: C_25  and  C_26
REMARK                            x       y       z     vdW  Elec       q    Type
REMARK                         _______ _______ _______ _____ _____    ______ ____
ROOT
ATOM      1  N   UNL     1       7.889  -0.273  25.119  0.00  0.00    +0.000 N 
ATOM      2  C   UNL     1       8.569  -0.522  26.389  0.00  0.00    +0.000 C 
ATOM      3  C   UNL     1       8.398  -1.979  26.784  0.00  0.00    +0.000 C 
ATOM      4  N   UNL     1       6.983  -2.321  26.825  0.00  0.00    +0.000 N 
ATOM      5  C   UNL     1       6.101  -1.532  26.153  0.00  0.00    +0.000 C 
ATOM      6  C   UNL     1       4.860  -1.203  26.728  0.00  0.00    +0.000 C 
ATOM      7  C   UNL     1       6.586  -0.891  24.895  0.00  0.00    +0.000 C 
ATOM      8  C   UNL     1       6.642  -3.642  26.582  0.00  0.00    +0.000 C 
ATOM      9  O   UNL     1       6.512  -4.375  27.539  0.00  0.00    +0.000 OA
ATOM     10  N   UNL     1       6.986  -3.922  25.409  0.00  0.00    +0.000 NA
ENDROOT
BRANCH   1  16
ATOM     11  C   UNL     1       9.527   0.504  23.473  0.00  0.00    +0.000 A 
ATOM     12  C   UNL     1       9.872   1.298  22.375  0.00  0.00    +0.000 A 
ATOM     13  C   UNL     1       8.826   1.805  21.250  0.00  0.00    +0.000 A 
ATOM     14  C   UNL     1       7.584   1.853  22.130  0.00  0.00    +0.000 A 
ATOM     15  C   UNL     1       7.330   1.283  23.359  0.00  0.00    +0.000 A 
ATOM     16  C   UNL     1       8.293   0.726  24.322  0.00  0.00    +0.000 A 
ATOM     17  F   UNL     1       6.546   1.653  21.296  0.00  0.00    +0.000 F 
BRANCH  11  18
ATOM     18  N   UNL     1      10.032  -0.789  23.520  0.00  0.00    +0.000 NA
BRANCH  18  20
ATOM     19  C   UNL     1       8.576  -2.144  22.100  0.00  0.00    +0.000 C 
ATOM     20  C   UNL     1       9.972  -1.574  22.297  0.00  0.00    +0.000 C 
ENDBRANCH  18  20
ENDBRANCH  11  18
ENDBRANCH   1  16
BRANCH  10  21
ATOM     21  C   UNL     1       6.775  -5.038  24.741  0.00  0.00    +0.000 A 
ATOM     22  C   UNL     1       8.257  -5.460  24.040  0.00  0.00    +0.000 A 
ATOM     23  N   UNL     1       7.970  -5.539  22.707  0.00  0.00    +0.000 NA
ATOM     24  C   UNL     1       7.012  -5.814  21.878  0.00  0.00    +0.000 A 
ATOM     25  C   UNL     1       5.562  -5.347  22.349  0.00  0.00    +0.000 A 
ATOM     26  C   UNL     1       5.664  -5.395  23.894  0.00  0.00    +0.000 A 
BRANCH  26  27
ATOM     27  C   UNL     1       4.715  -6.445  24.301  0.00  0.00    +0.000 C 
ATOM     28  C   UNL     1       4.712  -6.777  25.670  0.00  0.00    +0.000 C 
ENDBRANCH  26  27
ENDBRANCH  10  21
TORSDOF 5
ENDMDL
MODEL 4
REMARK VINA RESULT:      -7.1      2.236      3.305
REMARK  Name = 
REMARK  5 active torsions:
REMARK  status: ('A' for Active; 'I' for Inactive)
REMARK    1  A    between atoms: C_2  and  N_3
REMARK    2  A    between atoms: N_3  and  C_4
REMARK    3  A    between atoms: C_9  and  N_10
REMARK    4  A    between atoms: N_19  and  C_20
REMARK    5  A    between atoms: C_25  and  C_26
REMARK                            x       y       z     vdW  Elec       q    Type
REMARK                         _______ _______ _______ _____ _____    ______ ____
ROOT
ATOM      1  N   UNL     1       8.629  -1.199  23.567  0.00  0.00    +0.000 N 
ATOM      2  C   UNL     1       9.759  -2.117  23.690  0.00  0.00    +0.000 C 
ATOM      3  C   UNL     1       9.340  -3.341  24.486  0.00  0.00    +0.000 C 
ATOM      4  N   UNL     1       8.798  -2.935  25.776  0.00  0.00    +0.000 N 
ATOM      5  C   UNL     1       8.362  -1.655  25.927  0.00  0.00    +0.000 C 
ATOM      6  C   UNL     1       8.635  -0.946  27.112  0.00  0.00    +0.000 C 
ATOM      7  C   UNL     1       7.768  -0.994  24.728  0.00  0.00    +0.000 C 
ATOM      8  C   UNL     1       7.866  -3.774  26.365  0.00  0.00    +0.000 C 
ATOM      9  O   UNL     1       8.270  -4.595  27.160  0.00  0.00    +0.000 OA
ATOM     10  N   UNL     1       6.860  -3.822  25.617  0.00  0.00    +0.000 NA
ENDROOT
BRANCH   1  16
ATOM     11  C   UNL     1       7.983  -0.845  21.231  0.00  0.00    +0.000 A 
ATOM     12  C   UNL     1       7.550  -0.008  20.197  0.00  0.00    +0.000 A 
ATOM     13  C   UNL     1       6.674   1.333  20.415  0.00  0.00    +0.000 A 
ATOM     14  C   UNL     1       7.188   1.692  21.803  0.00  0.00    +0.000 A 
ATOM     15  C   UNL     1       7.864   0.936  22.736  0.00  0.00    +0.000 A 
ATOM     16  C   UNL     1       8.563  -0.343  22.536  0.00  0.00    +0.000 A 
ATOM     17  F   UNL     1       6.188   2.377  22.390  0.00  0.00    +0.000 F 
BRANCH  11  18
ATOM     18  N   UNL     1       7.449  -2.125  21.294  0.00  0.00    +0.000 NA
BRANCH  18  20
ATOM     19  C   UNL     1       5.512  -3.211  22.313  0.00  0.00    +0.000 C 
ATOM     20  C   UNL     1       6.000  -2.247  21.244  0.00  0.00    +0.000 C 
ENDBRANCH  18  20
ENDBRANCH  11  18
ENDBRANCH   1  16
BRANCH  10  21
ATOM     21  C   UNL     1       5.711  -4.430  25.833  0.00  0.00    +0.000 A 
ATOM     22  C   UNL     1       4.894  -3.505  26.992  0.00  0.00    +0.000 A 
ATOM     23  N   UNL     1       4.649  -4.394  27.998  0.00  0.00    +0.000 NA
ATOM     24  C   UNL     1       4.432  -5.652  28.226  0.00  0.00    +0.000 A 
ATOM     25  C   UNL     1       5.248  -6.654  27.292  0.00  0.00    +0.000 A 
ATOM     26  C   UNL     1       5.441  -5.838  25.990  0.00  0.00    +0.000 A 
BRANCH  26  27
ATOM     27  C   UNL     1       4.683  -6.576  24.966  0.00  0.00    +0.000 C 
ATOM     28  C   UNL     1       3.674  -5.851  24.303  0.00  0.00    +0.000 C 
ENDBRANCH  26  27
ENDBRANCH  10  21
TORSDOF 5
ENDMDL
MODEL 5
REMARK VINA RESULT:      -7.0      2.717      7.184
REMARK  Name = 
REMARK  5 active torsions:
REMARK  status: ('A' for Active; 'I' for Inactive)
REMARK    1  A    between atoms: C_2  and  N_3
REMARK    2  A    between atoms: N_3  and  C_4
REMARK    3  A    between atoms: C_9  and  N_10
REMARK    4  A    between atoms: N_19  and  C_20
REMARK    5  A    between atoms: C_25  and  C_26
REMARK                            x       y       z     vdW  Elec       q    Type
REMARK                         _______ _______ _______ _____ _____    ______ ____
ROOT
ATOM      1  N   UNL     1       8.647  -2.310  23.014  0.00  0.00    +0.000 N 
ATOM      2  C   UNL     1      10.076  -2.006  23.015  0.00  0.00    +0.000 C 
ATOM      3  C   UNL     1      10.281  -0.509  23.173  0.00  0.00    +0.000 C 
ATOM      4  N   UNL     1       9.553   0.205  22.133  0.00  0.00    +0.000 N 
ATOM      5  C   UNL     1       8.535  -0.433  21.493  0.00  0.00    +0.000 C 
ATOM      6  C   UNL     1       8.369  -0.290  20.103  0.00  0.00    +0.000 C 
ATOM      7  C   UNL     1       7.747  -1.420  22.287  0.00  0.00    +0.000 C 
ATOM      8  C   UNL     1       9.131   1.493  22.424  0.00  0.00    +0.000 C 
ATOM      9  O   UNL     1       9.851   2.409  22.094  0.00  0.00    +0.000 OA
ATOM     10  N   UNL     1       8.315   1.428  23.374  0.00  0.00    +0.000 NA
ENDROOT
BRANCH   1  16
ATOM     11  C   UNL     1       7.590  -3.651  24.769  0.00  0.00    +0.000 A 
ATOM     12  C   UNL     1       6.810  -4.740  25.171  0.00  0.00    +0.000 A 
ATOM     13  C   UNL     1       5.665  -5.429  24.259  0.00  0.00    +0.000 A 
ATOM     14  C   UNL     1       6.273  -5.121  22.897  0.00  0.00    +0.000 A 
ATOM     15  C   UNL     1       7.251  -4.221  22.531  0.00  0.00    +0.000 A 
ATOM     16  C   UNL     1       8.213  -3.520  23.396  0.00  0.00    +0.000 A 
ATOM     17  F   UNL     1       5.233  -5.056  22.046  0.00  0.00    +0.000 F 
BRANCH  11  18
ATOM     18  N   UNL     1       7.413  -2.447  25.437  0.00  0.00    +0.000 NA
BRANCH  18  20
ATOM     19  C   UNL     1       8.647  -0.612  26.476  0.00  0.00    +0.000 C 
ATOM     20  C   UNL     1       8.379  -2.108  26.470  0.00  0.00    +0.000 C 
ENDBRANCH  18  20
ENDBRANCH  11  18
ENDBRANCH   1  16
BRANCH  10  21
ATOM     21  C   UNL     1       7.607   2.402  23.910  0.00  0.00    +0.000 A 
ATOM     22  C   UNL     1       6.517   2.909  22.718  0.00  0.00    +0.000 A 
ATOM     23  N   UNL     1       6.783   4.242  22.586  0.00  0.00    +0.000 NA
ATOM     24  C   UNL     1       7.204   5.275  23.247  0.00  0.00    +0.000 A 
ATOM     25  C   UNL     1       8.342   4.967  24.320  0.00  0.00    +0.000 A 
ATOM     26  C   UNL     1       8.048   3.503  24.730  0.00  0.00    +0.000 A 
BRANCH  26  27
ATOM     27  C   UNL     1       7.674   3.578  26.152  0.00  0.00    +0.000 C 
ATOM     28  C   UNL     1       6.738   2.623  26.595  0.00  0.00    +0.000 C 
ENDBRANCH  26  27
ENDBRANCH  10  21
TORSDOF 5
ENDMDL
MODEL 6
REMARK VINA RESULT:      -6.9      1.812      2.762
REMARK  Name = 
REMARK  5 active torsions:
REMARK  status: ('A' for Active; 'I' for Inactive)
REMARK    1  A    between atoms: C_2  and  N_3
REMARK    2  A    between atoms: N_3  and  C_4
REMARK    3  A    between atoms: C_9  and  N_10
REMARK    4  A    between atoms: N_19  and  C_20
REMARK    5  A    between atoms: C_25  and  C_26
REMARK                            x       y       z     vdW  Elec       q    Type
REMARK                         _______ _______ _______ _____ _____    ______ ____
ROOT
ATOM      1  N   UNL     1       8.832   2.065  22.808  0.00  0.00    +0.000 N 
ATOM      2  C   UNL     1       9.438   1.480  21.614  0.00  0.00    +0.000 C 
ATOM      3  C   UNL     1       9.455  -0.034  21.739  0.00  0.00    +0.000 C 
ATOM      4  N   UNL     1      10.134  -0.425  22.967  0.00  0.00    +0.000 N 
ATOM      5  C   UNL     1      10.262   0.493  23.962  0.00  0.00    +0.000 C 
ATOM      6  C   UNL     1      11.463   0.592  24.688  0.00  0.00    +0.000 C 
ATOM      7  C   UNL     1       9.164   1.492  24.109  0.00  0.00    +0.000 C 
ATOM      8  C   UNL     1       9.759  -1.629  23.543  0.00  0.00    +0.000 C 
ATOM      9  O   UNL     1      10.404  -2.614  23.258  0.00  0.00    +0.000 OA
ATOM     10  N   UNL     1       8.555  -1.539  23.879  0.00  0.00    +0.000 NA
ENDROOT
BRANCH   1  16
ATOM     11  C   UNL     1       6.731   3.323  22.764  0.00  0.00    +0.000 A 
ATOM     12  C   UNL     1       5.996   4.481  23.035  0.00  0.00    +0.000 A 
ATOM     13  C   UNL     1       6.344   5.527  24.219  0.00  0.00    +0.000 A 
ATOM     14  C   UNL     1       7.850   5.304  24.256  0.00  0.00    +0.000 A 
ATOM     15  C   UNL     1       8.620   4.280  23.746  0.00  0.00    +0.000 A 
ATOM     16  C   UNL     1       8.244   3.269  22.746  0.00  0.00    +0.000 A 
ATOM     17  F   UNL     1       8.224   5.590  25.516  0.00  0.00    +0.000 F 
BRANCH  11  18
ATOM     18  N   UNL     1       6.115   2.099  22.983  0.00  0.00    +0.000 NA
BRANCH  18  20
ATOM     19  C   UNL     1       5.684   0.580  24.847  0.00  0.00    +0.000 C 
ATOM     20  C   UNL     1       5.381   1.934  24.228  0.00  0.00    +0.000 C 
ENDBRANCH  18  20
ENDBRANCH  11  18
ENDBRANCH   1  16
BRANCH  10  21
ATOM     21  C   UNL     1       7.823  -2.416  24.536  0.00  0.00    +0.000 A 
ATOM     22  C   UNL     1       8.343  -2.358  26.147  0.00  0.00    +0.000 A 
ATOM     23  N   UNL     1       8.708  -3.646  26.413  0.00  0.00    +0.000 NA
ATOM     24  C   UNL     1       8.442  -4.874  26.095  0.00  0.00    +0.000 A 
ATOM     25  C   UNL     1       8.066  -5.105  24.563  0.00  0.00    +0.000 A 
ATOM     26  C   UNL     1       7.438  -3.751  24.151  0.00  0.00    +0.000 A 
BRANCH  26  27
ATOM     27  C   UNL     1       6.034  -4.067  23.840  0.00  0.00    +0.000 C 
ATOM     28  C   UNL     1       5.080  -3.121  24.262  0.00  0.00    +0.000 C 
ENDBRANCH  26  27
ENDBRANCH  10  21
TORSDOF 5
ENDMDL
MODEL 7
REMARK VINA RESULT:      -6.8      3.413      7.583
REMARK  Name = 
REMARK  5 active torsions:
REMARK  status: ('A' for Active; 'I' for Inactive)
REMARK    1  A    between atoms: C_2  and  N_3
REMARK    2  A    between atoms: N_3  and  C_4
REMARK    3  A    between atoms: C_9  and  N_10
REMARK    4  A    between atoms: N_19  and  C_20
REMARK    5  A    between atoms: C_25  and  C_26
REMARK                            x       y       z     vdW  Elec       q    Type
REMARK                         _______ _______ _______ _____ _____    ______ ____
ROOT
ATOM      1  N   UNL     1       6.502  -4.421  26.302  0.00  0.00    +0.000 N 
ATOM      2  C   UNL     1       7.841  -4.877  26.671  0.00  0.00    +0.000 C 
ATOM      3  C   UNL     1       8.882  -3.964  26.045  0.00  0.00    +0.000 C 
ATOM      4  N   UNL     1       8.685  -3.899  24.603  0.00  0.00    +0.000 N 
ATOM      5  C   UNL     1       7.474  -4.251  24.094  0.00  0.00    +0.000 C 
ATOM      6  C   UNL     1       7.393  -5.012  22.913  0.00  0.00    +0.000 C 
ATOM      7  C   UNL     1       6.274  -3.965  24.934  0.00  0.00    +0.000 C 
ATOM      8  C   UNL     1       9.098  -2.743  23.959  0.00  0.00    +0.000 C 
ATOM      9  O   UNL     1      10.210  -2.733  23.479  0.00  0.00    +0.000 OA
ATOM     10  N   UNL     1       8.416  -1.788  24.400  0.00  0.00    +0.000 NA
ENDROOT
BRANCH   1  16
ATOM     11  C   UNL     1       4.564  -5.864  26.700  0.00  0.00    +0.000 A 
ATOM     12  C   UNL     1       3.654  -6.475  27.570  0.00  0.00    +0.000 A 
ATOM     13  C   UNL     1       3.975  -6.849  29.110  0.00  0.00    +0.000 A 
ATOM     14  C   UNL     1       4.987  -5.745  29.384  0.00  0.00    +0.000 A 
ATOM     15  C   UNL     1       5.699  -4.942  28.519  0.00  0.00    +0.000 A 
ATOM     16  C   UNL     1       5.453  -4.702  27.089  0.00  0.00    +0.000 A 
ATOM     17  F   UNL     1       5.794  -6.230  30.347  0.00  0.00    +0.000 F 
BRANCH  11  18
ATOM     18  N   UNL     1       5.026  -6.606  25.622  0.00  0.00    +0.000 NA
BRANCH  18  20
ATOM     19  C   UNL     1       3.794  -6.291  23.535  0.00  0.00    +0.000 C 
ATOM     20  C   UNL     1       4.030  -7.190  24.738  0.00  0.00    +0.000 C 
ENDBRANCH  18  20
ENDBRANCH  11  18
ENDBRANCH   1  16
BRANCH  10  21
ATOM     21  C   UNL     1       8.419  -0.531  24.004  0.00  0.00    +0.000 A 
ATOM     22  C   UNL     1       7.046  -0.336  23.033  0.00  0.00    +0.000 A 
ATOM     23  N   UNL     1       7.552   0.116  21.848  0.00  0.00    +0.000 NA
ATOM     24  C   UNL     1       8.532   0.801  21.346  0.00  0.00    +0.000 A 
ATOM     25  C   UNL     1       9.933   0.609  22.081  0.00  0.00    +0.000 A 
ATOM     26  C   UNL     1       9.520   0.273  23.536  0.00  0.00    +0.000 A 
BRANCH  26  27
ATOM     27  C   UNL     1      10.022   1.401  24.339  0.00  0.00    +0.000 C 
ATOM     28  C   UNL     1      10.622   2.452  23.620  0.00  0.00    +0.000 C 
ENDBRANCH  26  27
ENDBRANCH  10  21
TORSDOF 5
ENDMDL
MODEL 8
REMARK VINA RESULT:      -6.8      2.866      6.819
REMARK  Name = 
REMARK  5 active torsions:
REMARK  status: ('A' for Active; 'I' for Inactive)
REMARK    1  A    between atoms: C_2  and  N_3
REMARK    2  A    between atoms: N_3  and  C_4
REMARK    3  A    between atoms: C_9  and  N_10
REMARK    4  A    between atoms: N_19  and  C_20
REMARK    5  A    between atoms: C_25  and  C_26
REMARK                            x       y       z     vdW  Elec       q    Type
REMARK                         _______ _______ _______ _____ _____    ______ ____
ROOT
ATOM      1  N   UNL     1       8.622  -2.326  23.038  0.00  0.00    +0.000 N 
ATOM      2  C   UNL     1      10.051  -2.019  23.032  0.00  0.00    +0.000 C 
ATOM      3  C   UNL     1      10.252  -0.519  23.165  0.00  0.00    +0.000 C 
ATOM      4  N   UNL     1       9.521   0.176  22.114  0.00  0.00    +0.000 N 
ATOM      5  C   UNL     1       8.504  -0.474  21.486  0.00  0.00    +0.000 C 
ATOM      6  C   UNL     1       8.336  -0.355  20.094  0.00  0.00    +0.000 C 
ATOM      7  C   UNL     1       7.719  -1.450  22.298  0.00  0.00    +0.000 C 
ATOM      8  C   UNL     1       9.096   1.468  22.385  0.00  0.00    +0.000 C 
ATOM      9  O   UNL     1       9.814   2.380  22.039  0.00  0.00    +0.000 OA
ATOM     10  N   UNL     1       8.281   1.417  23.337  0.00  0.00    +0.000 NA
ENDROOT
BRANCH   1  16
ATOM     11  C   UNL     1       7.835  -3.707  24.901  0.00  0.00    +0.000 A 
ATOM     12  C   UNL     1       7.077  -4.773  25.395  0.00  0.00    +0.000 A 
ATOM     13  C   UNL     1       5.737  -5.344  24.692  0.00  0.00    +0.000 A 
ATOM     14  C   UNL     1       6.093  -4.992  23.254  0.00  0.00    +0.000 A 
ATOM     15  C   UNL     1       7.039  -4.127  22.747  0.00  0.00    +0.000 A 
ATOM     16  C   UNL     1       8.192  -3.531  23.440  0.00  0.00    +0.000 A 
ATOM     17  F   UNL     1       4.915  -4.820  22.625  0.00  0.00    +0.000 F 
BRANCH  11  18
ATOM     18  N   UNL     1       7.867  -2.536  25.645  0.00  0.00    +0.000 NA
BRANCH  18  20
ATOM     19  C   UNL     1       5.784  -1.286  25.383  0.00  0.00    +0.000 C 
ATOM     20  C   UNL     1       6.638  -2.135  26.312  0.00  0.00    +0.000 C 
ENDBRANCH  18  20
ENDBRANCH  11  18
ENDBRANCH   1  16
BRANCH  10  21
ATOM     21  C   UNL     1       7.572   2.398  23.858  0.00  0.00    +0.000 A 
ATOM     22  C   UNL     1       7.827   2.332  25.531  0.00  0.00    +0.000 A 
ATOM     23  N   UNL     1       6.567   2.209  26.042  0.00  0.00    +0.000 NA
ATOM     24  C   UNL     1       5.330   2.522  25.810  0.00  0.00    +0.000 A 
ATOM     25  C   UNL     1       4.906   2.492  24.273  0.00  0.00    +0.000 A 
ATOM     26  C   UNL     1       6.231   2.819  23.540  0.00  0.00    +0.000 A 
BRANCH  26  27
ATOM     27  C   UNL     1       5.986   4.113  22.882  0.00  0.00    +0.000 C 
ATOM     28  C   UNL     1       7.128   4.805  22.436  0.00  0.00    +0.000 C 
ENDBRANCH  26  27
ENDBRANCH  10  21
TORSDOF 5
ENDMDL
MODEL 9
REMARK VINA RESULT:      -6.7      3.306      7.223
REMARK  Name = 
REMARK  5 active torsions:
REMARK  status: ('A' for Active; 'I' for Inactive)
REMARK    1  A    between atoms: C_2  and  N_3
REMARK    2  A    between atoms: N_3  and  C_4
REMARK    3  A    between atoms: C_9  and  N_10
REMARK    4  A    between atoms: N_19  and  C_20
REMARK    5  A    between atoms: C_25  and  C_26
REMARK                            x       y       z     vdW  Elec       q    Type
REMARK                         _______ _______ _______ _____ _____    ______ ____
ROOT
ATOM      1  N   UNL     1       6.630  -5.030  26.026  0.00  0.00    +0.000 N 
ATOM      2  C   UNL     1       8.017  -5.241  26.436  0.00  0.00    +0.000 C 
ATOM      3  C   UNL     1       8.907  -4.197  25.784  0.00  0.00    +0.000 C 
ATOM      4  N   UNL     1       8.735  -4.230  24.337  0.00  0.00    +0.000 N 
ATOM      5  C   UNL     1       7.610  -4.800  23.827  0.00  0.00    +0.000 C 
ATOM      6  C   UNL     1       7.683  -5.616  22.683  0.00  0.00    +0.000 C 
ATOM      7  C   UNL     1       6.361  -4.680  24.634  0.00  0.00    +0.000 C 
ATOM      8  C   UNL     1       8.967  -3.052  23.645  0.00  0.00    +0.000 C 
ATOM      9  O   UNL     1      10.073  -2.880  23.182  0.00  0.00    +0.000 OA
ATOM     10  N   UNL     1       8.127  -2.204  24.029  0.00  0.00    +0.000 NA
ENDROOT
BRANCH   1  16
ATOM     11  C   UNL     1       4.921  -4.415  27.668  0.00  0.00    +0.000 A 
ATOM     12  C   UNL     1       3.674  -4.620  28.268  0.00  0.00    +0.000 A 
ATOM     13  C   UNL     1       2.408  -5.305  27.532  0.00  0.00    +0.000 A 
ATOM     14  C   UNL     1       3.185  -6.204  26.579  0.00  0.00    +0.000 A 
ATOM     15  C   UNL     1       4.506  -6.168  26.184  0.00  0.00    +0.000 A 
ATOM     16  C   UNL     1       5.624  -5.445  26.810  0.00  0.00    +0.000 A 
ATOM     17  F   UNL     1       2.381  -6.377  25.514  0.00  0.00    +0.000 F 
BRANCH  11  18
ATOM     18  N   UNL     1       5.321  -3.106  27.439  0.00  0.00    +0.000 NA
BRANCH  18  20
ATOM     19  C   UNL     1       5.084  -1.227  25.894  0.00  0.00    +0.000 C 
ATOM     20  C   UNL     1       4.365  -2.218  26.796  0.00  0.00    +0.000 C 
ENDBRANCH  18  20
ENDBRANCH  11  18
ENDBRANCH   1  16
BRANCH  10  21
ATOM     21  C   UNL     1       7.932  -0.983  23.573  0.00  0.00    +0.000 A 
ATOM     22  C   UNL     1       7.004  -1.144  22.166  0.00  0.00    +0.000 A 
ATOM     23  N   UNL     1       7.761  -0.529  21.211  0.00  0.00    +0.000 NA
ATOM     24  C   UNL     1       8.631   0.418  21.043  0.00  0.00    +0.000 A 
ATOM     25  C   UNL     1       9.668   0.597  22.240  0.00  0.00    +0.000 A 
ATOM     26  C   UNL     1       8.866   0.111  23.473  0.00  0.00    +0.000 A 
BRANCH  26  27
ATOM     27  C   UNL     1       8.719   1.305  24.321  0.00  0.00    +0.000 C 
ATOM     28  C   UNL     1       9.735   2.274  24.205  0.00  0.00    +0.000 C 
ENDBRANCH  26  27
ENDBRANCH  10  21
TORSDOF 5
ENDMDL
