MODEL 1
REMARK VINA RESULT:      -7.7      0.000      0.000
REMARK  Name = 
REMARK  4 active torsions:
REMARK  status: ('A' for Active; 'I' for Inactive)
REMARK    1  A    between atoms: C_2  and  C_3
REMARK    2  A    between atoms: C_3  and  C_4
REMARK    3  A    between atoms: C_10  and  S_14
REMARK    4  A    between atoms: N_24  and  C_25
REMARK                            x       y       z     vdW  Elec       q    Type
REMARK                         _______ _______ _______ _____ _____    ______ ____
ROOT
ATOM      1  C   UNL     1       5.815  -4.582  24.607  0.00  0.00    +0.000 C 
ATOM      2  C   UNL     1       6.195  -3.163  24.971  0.00  0.00    +0.000 C 
ATOM      3  C   UNL     1       6.441  -5.591  25.546  0.00  0.00    +0.000 C 
ATOM      4  C   UNL     1       5.045  -6.317  26.213  0.00  0.00    +0.000 C 
ATOM      5  C   UNL     1       4.204  -5.204  26.293  0.00  0.00    +0.000 C 
ATOM      6  C   UNL     1       4.386  -4.826  24.571  0.00  0.00    +0.000 C 
ATOM      7  C   UNL     1       3.169  -3.949  24.709  0.00  0.00    +0.000 C 
ATOM      8  C   UNL     1       2.718  -4.893  26.079  0.00  0.00    +0.000 C 
ATOM      9  C   UNL     1       2.296  -3.766  27.018  0.00  0.00    +0.000 C 
ATOM     10  C   UNL     1       4.815  -3.927  26.873  0.00  0.00    +0.000 C 
ATOM     11  C   UNL     1       6.102  -4.165  27.587  0.00  0.00    +0.000 C 
ATOM     12  C   UNL     1       7.026  -5.079  26.841  0.00  0.00    +0.000 C 
ATOM     13  C   UNL     1       8.430  -4.583  26.736  0.00  0.00    +0.000 C 
ATOM     14  O   UNL     1       7.090  -6.279  27.667  0.00  0.00    +0.000 OA
ENDROOT
BRANCH   6  15
ATOM     15  S   UNL     1       3.992  -6.149  23.929  0.00  0.00    +0.000 S 
ATOM     16  O   UNL     1       4.881  -7.215  24.340  0.00  0.00    +0.000 OA
ATOM     17  O   UNL     1       4.003  -5.952  22.479  0.00  0.00    +0.000 OA
ATOM     18  N   UNL     1       2.467  -6.608  24.343  0.00  0.00    +0.000 NA
ENDBRANCH   6  15
BRANCH   1  19
ATOM     19  C   UNL     1       6.292  -4.790  23.128  0.00  0.00    +0.000 C 
ATOM     20  O   UNL     1       7.462  -5.474  23.106  0.00  0.00    +0.000 OA
BRANCH  19  22
ATOM     21  O   UNL     1       5.319  -3.033  21.868  0.00  0.00    +0.000 OA
ATOM     22  C   UNL     1       6.352  -3.429  22.467  0.00  0.00    +0.000 C 
ATOM     23  N   UNL     1       7.497  -2.895  22.182  0.00  0.00    +0.000 NA
BRANCH  23  24
ATOM     24  C   UNL     1       7.912  -1.732  22.662  0.00  0.00    +0.000 A 
ATOM     25  C   UNL     1       9.608  -1.776  22.552  0.00  0.00    +0.000 A 
ATOM     26  N   UNL     1       9.904  -0.667  21.813  0.00  0.00    +0.000 NA
ATOM     27  C   UNL     1       9.488   0.526  21.530  0.00  0.00    +0.000 A 
ATOM     28  C   UNL     1       7.905   0.692  21.481  0.00  0.00    +0.000 A 
ATOM     29  C   UNL     1       7.406  -0.400  22.470  0.00  0.00    +0.000 A 
ATOM     30  C   UNL     1       6.721   0.388  23.641  0.00  0.00    +0.000 C 
ENDBRANCH  23  24
ENDBRANCH  19  22
ENDBRANCH   1  19
TORSDOF 4
ENDMDL
MODEL 2
REMARK VINA RESULT:      -7.5      3.754      7.570
REMARK  Name = 
REMARK  4 active torsions:
REMARK  status: ('A' for Active; 'I' for Inactive)
REMARK    1  A    between atoms: C_2  and  C_3
REMARK    2  A    between atoms: C_3  and  C_4
REMARK    3  A    between atoms: C_10  and  S_14
REMARK    4  A    between atoms: N_24  and  C_25
REMARK                            x       y       z     vdW  Elec       q    Type
REMARK                         _______ _______ _______ _____ _____    ______ ____
ROOT
ATOM      1  C   UNL     1       8.598  -0.087  23.069  0.00  0.00    +0.000 C 
ATOM      2  C   UNL     1       7.356  -0.778  23.587  0.00  0.00    +0.000 C 
ATOM      3  C   UNL     1       8.476   0.264  21.601  0.00  0.00    +0.000 C 
ATOM      4  C   UNL     1       8.617   1.966  21.664  0.00  0.00    +0.000 C 
ATOM      5  C   UNL     1       7.933   2.224  22.856  0.00  0.00    +0.000 C 
ATOM      6  C   UNL     1       8.955   1.119  23.791  0.00  0.00    +0.000 C 
ATOM      7  C   UNL     1       8.427   1.794  25.030  0.00  0.00    +0.000 C 
ATOM      8  C   UNL     1       8.069   3.170  24.055  0.00  0.00    +0.000 C 
ATOM      9  C   UNL     1       6.682   3.497  24.602  0.00  0.00    +0.000 C 
ATOM     10  C   UNL     1       6.593   1.509  23.042  0.00  0.00    +0.000 C 
ATOM     11  C   UNL     1       6.059   0.927  21.779  0.00  0.00    +0.000 C 
ATOM     12  C   UNL     1       7.102   0.210  20.976  0.00  0.00    +0.000 C 
ATOM     13  C   UNL     1       6.689  -1.141  20.496  0.00  0.00    +0.000 C 
ATOM     14  O   UNL     1       7.257   1.026  19.776  0.00  0.00    +0.000 OA
ENDROOT
BRANCH   6  15
ATOM     15  S   UNL     1      10.345   1.652  23.472  0.00  0.00    +0.000 S 
ATOM     16  O   UNL     1      10.631   1.553  22.057  0.00  0.00    +0.000 OA
ATOM     17  O   UNL     1      11.301   0.894  24.281  0.00  0.00    +0.000 OA
ATOM     18  N   UNL     1      10.510   3.236  23.886  0.00  0.00    +0.000 NA
ENDBRANCH   6  15
BRANCH   1  19
ATOM     19  C   UNL     1       9.784  -1.077  23.333  0.00  0.00    +0.000 C 
ATOM     20  O   UNL     1      10.176  -1.658  22.173  0.00  0.00    +0.000 OA
BRANCH  19  22
ATOM     21  O   UNL     1       9.108  -1.589  25.547  0.00  0.00    +0.000 OA
ATOM     22  C   UNL     1       9.340  -2.054  24.402  0.00  0.00    +0.000 C 
ATOM     23  N   UNL     1       9.579  -3.318  24.265  0.00  0.00    +0.000 NA
BRANCH  23  24
ATOM     24  C   UNL     1       8.637  -4.251  24.230  0.00  0.00    +0.000 A 
ATOM     25  C   UNL     1       9.162  -5.465  25.298  0.00  0.00    +0.000 A 
ATOM     26  N   UNL     1       8.121  -5.583  26.174  0.00  0.00    +0.000 NA
ATOM     27  C   UNL     1       6.838  -5.449  26.275  0.00  0.00    +0.000 A 
ATOM     28  C   UNL     1       6.215  -4.264  25.413  0.00  0.00    +0.000 A 
ATOM     29  C   UNL     1       7.204  -4.141  24.219  0.00  0.00    +0.000 A 
ATOM     30  C   UNL     1       6.367  -4.528  22.950  0.00  0.00    +0.000 C 
ENDBRANCH  23  24
ENDBRANCH  19  22
ENDBRANCH   1  19
TORSDOF 4
ENDMDL
MODEL 3
REMARK VINA RESULT:      -7.4      2.638      3.859
REMARK  Name = 
REMARK  4 active torsions:
REMARK  status: ('A' for Active; 'I' for Inactive)
REMARK    1  A    between atoms: C_2  and  C_3
REMARK    2  A    between atoms: C_3  and  C_4
REMARK    3  A    between atoms: C_10  and  S_14
REMARK    4  A    between atoms: N_24  and  C_25
REMARK                            x       y       z     vdW  Elec       q    Type
REMARK                         _______ _______ _______ _____ _____    ______ ____
ROOT
ATOM      1  C   UNL     1       7.859  -2.256  24.222  0.00  0.00    +0.000 C 
ATOM      2  C   UNL     1       6.801  -1.224  23.900  0.00  0.00    +0.000 C 
ATOM      3  C   UNL     1       8.759  -1.804  25.353  0.00  0.00    +0.000 C 
ATOM      4  C   UNL     1       8.460  -3.027  26.509  0.00  0.00    +0.000 C 
ATOM      5  C   UNL     1       7.097  -3.246  26.288  0.00  0.00    +0.000 C 
ATOM      6  C   UNL     1       7.333  -3.564  24.561  0.00  0.00    +0.000 C 
ATOM      7  C   UNL     1       5.955  -4.173  24.558  0.00  0.00    +0.000 C 
ATOM      8  C   UNL     1       6.136  -4.439  26.252  0.00  0.00    +0.000 C 
ATOM      9  C   UNL     1       4.752  -3.988  26.713  0.00  0.00    +0.000 C 
ATOM     10  C   UNL     1       6.216  -2.000  26.172  0.00  0.00    +0.000 C 
ATOM     11  C   UNL     1       6.886  -0.762  26.663  0.00  0.00    +0.000 C 
ATOM     12  C   UNL     1       8.302  -0.634  26.192  0.00  0.00    +0.000 C 
ATOM     13  C   UNL     1       8.647   0.705  25.631  0.00  0.00    +0.000 C 
ATOM     14  O   UNL     1       9.099  -0.772  27.406  0.00  0.00    +0.000 OA
ENDROOT
BRANCH   6  15
ATOM     15  S   UNL     1       8.380  -4.669  24.599  0.00  0.00    +0.000 S 
ATOM     16  O   UNL     1       9.713  -4.123  24.730  0.00  0.00    +0.000 OA
ATOM     17  O   UNL     1       8.227  -5.459  23.376  0.00  0.00    +0.000 OA
ATOM     18  N   UNL     1       8.152  -5.693  25.867  0.00  0.00    +0.000 NA
ENDBRANCH   6  15
BRANCH   1  19
ATOM     19  C   UNL     1       8.662  -2.479  22.895  0.00  0.00    +0.000 C 
ATOM     20  O   UNL     1       9.931  -2.024  23.033  0.00  0.00    +0.000 OA
BRANCH  19  22
ATOM     21  O   UNL     1       6.746  -2.295  21.511  0.00  0.00    +0.000 OA
ATOM     22  C   UNL     1       7.884  -1.828  21.770  0.00  0.00    +0.000 C 
ATOM     23  N   UNL     1       8.502  -1.124  20.876  0.00  0.00    +0.000 NA
BRANCH  23  24
ATOM     24  C   UNL     1       8.255   0.157  20.641  0.00  0.00    +0.000 A 
ATOM     25  C   UNL     1       7.507   0.201  19.115  0.00  0.00    +0.000 A 
ATOM     26  N   UNL     1       6.329   0.846  19.362  0.00  0.00    +0.000 NA
ATOM     27  C   UNL     1       5.776   1.724  20.135  0.00  0.00    +0.000 A 
ATOM     28  C   UNL     1       6.299   1.720  21.639  0.00  0.00    +0.000 A 
ATOM     29  C   UNL     1       7.756   1.192  21.504  0.00  0.00    +0.000 A 
ATOM     30  C   UNL     1       8.669   2.384  21.959  0.00  0.00    +0.000 C 
ENDBRANCH  23  24
ENDBRANCH  19  22
ENDBRANCH   1  19
TORSDOF 4
ENDMDL
MODEL 4
REMARK VINA RESULT:      -7.3      2.814      4.080
REMARK  Name = 
REMARK  4 active torsions:
REMARK  status: ('A' for Active; 'I' for Inactive)
REMARK    1  A    between atoms: C_2  and  C_3
REMARK    2  A    between atoms: C_3  and  C_4
REMARK    3  A    between atoms: C_10  and  S_14
REMARK    4  A    between atoms: N_24  and  C_25
REMARK                            x       y       z     vdW  Elec       q    Type
REMARK                         _______ _______ _______ _____ _____    ______ ____
ROOT
ATOM      1  C   UNL     1       7.157  -2.694  25.533  0.00  0.00    +0.000 C 
ATOM      2  C   UNL     1       6.621  -1.662  24.565  0.00  0.00    +0.000 C 
ATOM      3  C   UNL     1       6.266  -2.842  26.748  0.00  0.00    +0.000 C 
ATOM      4  C   UNL     1       5.810  -4.483  26.614  0.00  0.00    +0.000 C 
ATOM      5  C   UNL     1       5.702  -4.595  25.224  0.00  0.00    +0.000 C 
ATOM      6  C   UNL     1       7.353  -4.009  24.956  0.00  0.00    +0.000 C 
ATOM      7  C   UNL     1       7.247  -4.568  23.560  0.00  0.00    +0.000 C 
ATOM      8  C   UNL     1       6.026  -5.634  24.146  0.00  0.00    +0.000 C 
ATOM      9  C   UNL     1       5.025  -5.504  23.000  0.00  0.00    +0.000 C 
ATOM     10  C   UNL     1       4.944  -3.476  24.507  0.00  0.00    +0.000 C 
ATOM     11  C   UNL     1       4.137  -2.629  25.431  0.00  0.00    +0.000 C 
ATOM     12  C   UNL     1       4.877  -2.252  26.679  0.00  0.00    +0.000 C 
ATOM     13  C   UNL     1       4.798  -0.804  27.028  0.00  0.00    +0.000 C 
ATOM     14  O   UNL     1       4.170  -2.956  27.743  0.00  0.00    +0.000 OA
ENDROOT
BRANCH   6  15
ATOM     15  S   UNL     1       8.156  -4.963  25.828  0.00  0.00    +0.000 S 
ATOM     16  O   UNL     1       7.348  -6.084  26.260  0.00  0.00    +0.000 OA
ATOM     17  O   UNL     1       8.674  -4.191  26.959  0.00  0.00    +0.000 OA
ATOM     18  N   UNL     1       9.455  -5.585  25.033  0.00  0.00    +0.000 NA
ENDBRANCH   6  15
BRANCH   1  19
ATOM     19  C   UNL     1       8.597  -2.211  25.924  0.00  0.00    +0.000 C 
ATOM     20  O   UNL     1       8.540  -1.398  27.008  0.00  0.00    +0.000 OA
BRANCH  19  22
ATOM     21  O   UNL     1       9.727  -2.345  23.845  0.00  0.00    +0.000 OA
ATOM     22  C   UNL     1       9.218  -1.575  24.698  0.00  0.00    +0.000 C 
ATOM     23  N   UNL     1       9.570  -0.329  24.721  0.00  0.00    +0.000 NA
BRANCH  23  24
ATOM     24  C   UNL     1       9.086   0.593  23.900  0.00  0.00    +0.000 A 
ATOM     25  C   UNL     1       8.522   1.842  24.904  0.00  0.00    +0.000 A 
ATOM     26  N   UNL     1       9.196   2.939  24.448  0.00  0.00    +0.000 NA
ATOM     27  C   UNL     1       9.737   3.451  23.390  0.00  0.00    +0.000 A 
ATOM     28  C   UNL     1      10.414   2.400  22.405  0.00  0.00    +0.000 A 
ATOM     29  C   UNL     1       9.593   1.103  22.656  0.00  0.00    +0.000 A 
ATOM     30  C   UNL     1       8.866   0.807  21.297  0.00  0.00    +0.000 C 
ENDBRANCH  23  24
ENDBRANCH  19  22
ENDBRANCH   1  19
TORSDOF 4
ENDMDL
MODEL 5
REMARK VINA RESULT:      -7.2      2.812      4.706
REMARK  Name = 
REMARK  4 active torsions:
REMARK  status: ('A' for Active; 'I' for Inactive)
REMARK    1  A    between atoms: C_2  and  C_3
REMARK    2  A    between atoms: C_3  and  C_4
REMARK    3  A    between atoms: C_10  and  S_14
REMARK    4  A    between atoms: N_24  and  C_25
REMARK                            x       y       z     vdW  Elec       q    Type
REMARK                         _______ _______ _______ _____ _____    ______ ____
ROOT
ATOM      1  C   UNL     1       6.883  -2.211  24.610  0.00  0.00    +0.000 C 
ATOM      2  C   UNL     1       8.043  -1.783  23.739  0.00  0.00    +0.000 C 
ATOM      3  C   UNL     1       5.792  -2.883  23.804  0.00  0.00    +0.000 C 
ATOM      4  C   UNL     1       5.769  -4.433  24.524  0.00  0.00    +0.000 C 
ATOM      5  C   UNL     1       7.133  -4.607  24.776  0.00  0.00    +0.000 C 
ATOM      6  C   UNL     1       7.249  -3.098  25.698  0.00  0.00    +0.000 C 
ATOM      7  C   UNL     1       8.559  -3.611  26.236  0.00  0.00    +0.000 C 
ATOM      8  C   UNL     1       8.010  -5.206  25.881  0.00  0.00    +0.000 C 
ATOM      9  C   UNL     1       9.288  -5.768  25.264  0.00  0.00    +0.000 C 
ATOM     10  C   UNL     1       8.089  -4.251  23.636  0.00  0.00    +0.000 C 
ATOM     11  C   UNL     1       7.404  -4.113  22.319  0.00  0.00    +0.000 C 
ATOM     12  C   UNL     1       6.128  -3.331  22.400  0.00  0.00    +0.000 C 
ATOM     13  C   UNL     1       5.988  -2.271  21.359  0.00  0.00    +0.000 C 
ATOM     14  O   UNL     1       5.086  -4.310  22.112  0.00  0.00    +0.000 OA
ENDROOT
BRANCH   6  15
ATOM     15  S   UNL     1       6.156  -3.296  26.739  0.00  0.00    +0.000 S 
ATOM     16  O   UNL     1       4.888  -3.602  26.114  0.00  0.00    +0.000 OA
ATOM     17  O   UNL     1       6.092  -2.076  27.545  0.00  0.00    +0.000 OA
ATOM     18  N   UNL     1       6.498  -4.535  27.766  0.00  0.00    +0.000 NA
ENDBRANCH   6  15
BRANCH   1  19
ATOM     19  C   UNL     1       6.367  -0.908  25.313  0.00  0.00    +0.000 C 
ATOM     20  O   UNL     1       5.190  -0.517  24.767  0.00  0.00    +0.000 OA
BRANCH  19  22
ATOM     21  O   UNL     1       8.514  -0.089  25.896  0.00  0.00    +0.000 OA
ATOM     22  C   UNL     1       7.469   0.127  25.231  0.00  0.00    +0.000 C 
ATOM     23  N   UNL     1       7.199   1.333  24.844  0.00  0.00    +0.000 NA
BRANCH  23  24
ATOM     24  C   UNL     1       7.748   1.912  23.785  0.00  0.00    +0.000 A 
ATOM     25  C   UNL     1       8.446   3.348  24.365  0.00  0.00    +0.000 A 
ATOM     26  N   UNL     1       9.753   3.239  23.982  0.00  0.00    +0.000 NA
ATOM     27  C   UNL     1      10.523   2.723  23.079  0.00  0.00    +0.000 A 
ATOM     28  C   UNL     1      10.052   1.307  22.523  0.00  0.00    +0.000 A 
ATOM     29  C   UNL     1       8.507   1.357  22.698  0.00  0.00    +0.000 A 
ATOM     30  C   UNL     1       7.927   1.305  21.241  0.00  0.00    +0.000 C 
ENDBRANCH  23  24
ENDBRANCH  19  22
ENDBRANCH   1  19
TORSDOF 4
ENDMDL
MODEL 6
REMARK VINA RESULT:      -7.2      3.151      7.491
REMARK  Name = 
REMARK  4 active torsions:
REMARK  status: ('A' for Active; 'I' for Inactive)
REMARK    1  A    between atoms: C_2  and  C_3
REMARK    2  A    between atoms: C_3  and  C_4
REMARK    3  A    between atoms: C_10  and  S_14
REMARK    4  A    between atoms: N_24  and  C_25
REMARK                            x       y       z     vdW  Elec       q    Type
REMARK                         _______ _______ _______ _____ _____    ______ ____
ROOT
ATOM      1  C   UNL     1       7.816  -0.417  22.915  0.00  0.00    +0.000 C 
ATOM      2  C   UNL     1       6.323  -0.293  23.120  0.00  0.00    +0.000 C 
ATOM      3  C   UNL     1       8.181  -0.460  21.446  0.00  0.00    +0.000 C 
ATOM      4  C   UNL     1       9.161   0.934  21.317  0.00  0.00    +0.000 C 
ATOM      5  C   UNL     1       8.490   1.788  22.198  0.00  0.00    +0.000 C 
ATOM      6  C   UNL     1       8.594   0.636  23.540  0.00  0.00    +0.000 C 
ATOM      7  C   UNL     1       8.258   1.784  24.457  0.00  0.00    +0.000 C 
ATOM      8  C   UNL     1       8.856   2.849  23.241  0.00  0.00    +0.000 C 
ATOM      9  C   UNL     1       7.758   3.910  23.291  0.00  0.00    +0.000 C 
ATOM     10  C   UNL     1       6.967   1.846  22.064  0.00  0.00    +0.000 C 
ATOM     11  C   UNL     1       6.468   1.256  20.789  0.00  0.00    +0.000 C 
ATOM     12  C   UNL     1       7.127  -0.045  20.446  0.00  0.00    +0.000 C 
ATOM     13  C   UNL     1       6.181  -1.130  20.053  0.00  0.00    +0.000 C 
ATOM     14  O   UNL     1       7.909   0.252  19.251  0.00  0.00    +0.000 OA
ENDROOT
BRANCH   6  15
ATOM     15  S   UNL     1      10.090   0.365  23.589  0.00  0.00    +0.000 S 
ATOM     16  O   UNL     1      10.570  -0.155  22.326  0.00  0.00    +0.000 OA
ATOM     17  O   UNL     1      10.331  -0.566  24.693  0.00  0.00    +0.000 OA
ATOM     18  N   UNL     1      10.956   1.727  23.908  0.00  0.00    +0.000 NA
ENDBRANCH   6  15
BRANCH   1  19
ATOM     19  C   UNL     1       8.247  -1.727  23.659  0.00  0.00    +0.000 C 
ATOM     20  O   UNL     1       8.558  -2.695  22.762  0.00  0.00    +0.000 OA
BRANCH  19  22
ATOM     21  O   UNL     1       7.117  -1.515  25.733  0.00  0.00    +0.000 OA
ATOM     22  C   UNL     1       7.136  -2.099  24.619  0.00  0.00    +0.000 C 
ATOM     23  N   UNL     1       6.503  -3.219  24.477  0.00  0.00    +0.000 NA
BRANCH  23  24
ATOM     24  C   UNL     1       5.197  -3.312  24.274  0.00  0.00    +0.000 A 
ATOM     25  C   UNL     1       5.022  -3.759  22.644  0.00  0.00    +0.000 A 
ATOM     26  N   UNL     1       4.283  -4.906  22.711  0.00  0.00    +0.000 NA
ATOM     27  C   UNL     1       3.390  -5.518  23.420  0.00  0.00    +0.000 A 
ATOM     28  C   UNL     1       3.503  -5.283  24.991  0.00  0.00    +0.000 A 
ATOM     29  C   UNL     1       4.156  -3.875  25.091  0.00  0.00    +0.000 A 
ATOM     30  C   UNL     1       3.072  -2.966  25.770  0.00  0.00    +0.000 C 
ENDBRANCH  23  24
ENDBRANCH  19  22
ENDBRANCH   1  19
TORSDOF 4
ENDMDL
MODEL 7
REMARK VINA RESULT:      -7.2      3.806      7.755
REMARK  Name = 
REMARK  4 active torsions:
REMARK  status: ('A' for Active; 'I' for Inactive)
REMARK    1  A    between atoms: C_2  and  C_3
REMARK    2  A    between atoms: C_3  and  C_4
REMARK    3  A    between atoms: C_10  and  S_14
REMARK    4  A    between atoms: N_24  and  C_25
REMARK                            x       y       z     vdW  Elec       q    Type
REMARK                         _______ _______ _______ _____ _____    ______ ____
ROOT
ATOM      1  C   UNL     1       8.449   0.172  23.395  0.00  0.00    +0.000 C 
ATOM      2  C   UNL     1       7.093  -0.242  23.922  0.00  0.00    +0.000 C 
ATOM      3  C   UNL     1       8.491   0.166  21.882  0.00  0.00    +0.000 C 
ATOM      4  C   UNL     1       8.838   1.809  21.564  0.00  0.00    +0.000 C 
ATOM      5  C   UNL     1       8.098   2.418  22.582  0.00  0.00    +0.000 C 
ATOM      6  C   UNL     1       8.895   1.474  23.853  0.00  0.00    +0.000 C 
ATOM      7  C   UNL     1       8.358   2.480  24.837  0.00  0.00    +0.000 C 
ATOM      8  C   UNL     1       8.255   3.607  23.536  0.00  0.00    +0.000 C 
ATOM      9  C   UNL     1       6.880   4.197  23.839  0.00  0.00    +0.000 C 
ATOM     10  C   UNL     1       6.669   1.910  22.783  0.00  0.00    +0.000 C 
ATOM     11  C   UNL     1       6.170   1.096  21.638  0.00  0.00    +0.000 C 
ATOM     12  C   UNL     1       7.176   0.104  21.141  0.00  0.00    +0.000 C 
ATOM     13  C   UNL     1       6.637  -1.275  20.947  0.00  0.00    +0.000 C 
ATOM     14  O   UNL     1       7.528   0.583  19.809  0.00  0.00    +0.000 OA
ENDROOT
BRANCH   6  15
ATOM     15  S   UNL     1      10.362   1.769  23.571  0.00  0.00    +0.000 S 
ATOM     16  O   UNL     1      10.718   1.405  22.216  0.00  0.00    +0.000 OA
ATOM     17  O   UNL     1      11.154   1.038  24.562  0.00  0.00    +0.000 OA
ATOM     18  N   UNL     1      10.718   3.365  23.749  0.00  0.00    +0.000 NA
ENDBRANCH   6  15
BRANCH   1  19
ATOM     19  C   UNL     1       9.477  -0.840  24.009  0.00  0.00    +0.000 C 
ATOM     20  O   UNL     1       9.887  -1.721  23.064  0.00  0.00    +0.000 OA
BRANCH  19  22
ATOM     21  O   UNL     1       8.628  -0.744  26.220  0.00  0.00    +0.000 OA
ATOM     22  C   UNL     1       8.829  -1.478  25.219  0.00  0.00    +0.000 C 
ATOM     23  N   UNL     1       8.859  -2.764  25.370  0.00  0.00    +0.000 NA
BRANCH  23  24
ATOM     24  C   UNL     1       7.777  -3.525  25.456  0.00  0.00    +0.000 A 
ATOM     25  C   UNL     1       8.275  -4.928  26.276  0.00  0.00    +0.000 A 
ATOM     26  N   UNL     1       7.422  -4.988  27.342  0.00  0.00    +0.000 NA
ATOM     27  C   UNL     1       6.229  -4.667  27.727  0.00  0.00    +0.000 A 
ATOM     28  C   UNL     1       5.672  -3.302  27.125  0.00  0.00    +0.000 A 
ATOM     29  C   UNL     1       6.413  -3.190  25.762  0.00  0.00    +0.000 A 
ATOM     30  C   UNL     1       5.288  -3.282  24.673  0.00  0.00    +0.000 C 
ENDBRANCH  23  24
ENDBRANCH  19  22
ENDBRANCH   1  19
TORSDOF 4
ENDMDL
MODEL 8
REMARK VINA RESULT:      -7.1      2.950      4.406
REMARK  Name = 
REMARK  4 active torsions:
REMARK  status: ('A' for Active; 'I' for Inactive)
REMARK    1  A    between atoms: C_2  and  C_3
REMARK    2  A    between atoms: C_3  and  C_4
REMARK    3  A    between atoms: C_10  and  S_14
REMARK    4  A    between atoms: N_24  and  C_25
REMARK                            x       y       z     vdW  Elec       q    Type
REMARK                         _______ _______ _______ _____ _____    ______ ____
ROOT
ATOM      1  C   UNL     1       7.093  -2.352  24.882  0.00  0.00    +0.000 C 
ATOM      2  C   UNL     1       6.139  -1.434  24.150  0.00  0.00    +0.000 C 
ATOM      3  C   UNL     1       6.407  -3.092  26.010  0.00  0.00    +0.000 C 
ATOM      4  C   UNL     1       6.618  -4.712  25.506  0.00  0.00    +0.000 C 
ATOM      5  C   UNL     1       6.475  -4.559  24.124  0.00  0.00    +0.000 C 
ATOM      6  C   UNL     1       7.748  -3.330  24.035  0.00  0.00    +0.000 C 
ATOM      7  C   UNL     1       7.781  -3.575  22.548  0.00  0.00    +0.000 C 
ATOM      8  C   UNL     1       7.110  -5.133  22.852  0.00  0.00    +0.000 C 
ATOM      9  C   UNL     1       6.067  -5.165  21.736  0.00  0.00    +0.000 C 
ATOM     10  C   UNL     1       5.298  -3.703  23.650  0.00  0.00    +0.000 C 
ATOM     11  C   UNL     1       4.285  -3.459  24.715  0.00  0.00    +0.000 C 
ATOM     12  C   UNL     1       4.897  -3.096  26.034  0.00  0.00    +0.000 C 
ATOM     13  C   UNL     1       4.283  -1.905  26.691  0.00  0.00    +0.000 C 
ATOM     14  O   UNL     1       4.587  -4.229  26.899  0.00  0.00    +0.000 OA
ENDROOT
BRANCH   6  15
ATOM     15  S   UNL     1       8.912  -4.053  24.698  0.00  0.00    +0.000 S 
ATOM     16  O   UNL     1       8.813  -3.992  26.140  0.00  0.00    +0.000 OA
ATOM     17  O   UNL     1      10.147  -3.441  24.204  0.00  0.00    +0.000 OA
ATOM     18  N   UNL     1       8.965  -5.646  24.287  0.00  0.00    +0.000 NA
ENDBRANCH   6  15
BRANCH   1  19
ATOM     19  C   UNL     1       8.253  -1.438  25.408  0.00  0.00    +0.000 C 
ATOM     20  O   UNL     1       8.014  -1.070  26.690  0.00  0.00    +0.000 OA
BRANCH  19  22
ATOM     21  O   UNL     1       8.783  -0.548  23.275  0.00  0.00    +0.000 OA
ATOM     22  C   UNL     1       8.401  -0.280  24.443  0.00  0.00    +0.000 C 
ATOM     23  N   UNL     1       8.528   0.927  24.892  0.00  0.00    +0.000 NA
BRANCH  23  24
ATOM     24  C   UNL     1       7.691   1.915  24.611  0.00  0.00    +0.000 A 
ATOM     25  C   UNL     1       8.665   3.292  24.407  0.00  0.00    +0.000 A 
ATOM     26  N   UNL     1       8.336   3.728  23.155  0.00  0.00    +0.000 NA
ATOM     27  C   UNL     1       7.370   3.756  22.294  0.00  0.00    +0.000 A 
ATOM     28  C   UNL     1       6.436   2.467  22.289  0.00  0.00    +0.000 A 
ATOM     29  C   UNL     1       6.536   1.954  23.754  0.00  0.00    +0.000 A 
ATOM     30  C   UNL     1       5.090   2.103  24.343  0.00  0.00    +0.000 C 
ENDBRANCH  23  24
ENDBRANCH  19  22
ENDBRANCH   1  19
TORSDOF 4
ENDMDL
MODEL 9
REMARK VINA RESULT:      -7.1      2.611      4.193
REMARK  Name = 
REMARK  4 active torsions:
REMARK  status: ('A' for Active; 'I' for Inactive)
REMARK    1  A    between atoms: C_2  and  C_3
REMARK    2  A    between atoms: C_3  and  C_4
REMARK    3  A    between atoms: C_10  and  S_14
REMARK    4  A    between atoms: N_24  and  C_25
REMARK                            x       y       z     vdW  Elec       q    Type
REMARK                         _______ _______ _______ _____ _____    ______ ____
ROOT
ATOM      1  C   UNL     1       6.568  -2.979  24.973  0.00  0.00    +0.000 C 
ATOM      2  C   UNL     1       5.363  -2.382  24.280  0.00  0.00    +0.000 C 
ATOM      3  C   UNL     1       6.166  -3.969  26.046  0.00  0.00    +0.000 C 
ATOM      4  C   UNL     1       6.894  -5.398  25.453  0.00  0.00    +0.000 C 
ATOM      5  C   UNL     1       6.703  -5.218  24.080  0.00  0.00    +0.000 C 
ATOM      6  C   UNL     1       7.504  -3.637  24.081  0.00  0.00    +0.000 C 
ATOM      7  C   UNL     1       7.609  -3.769  22.584  0.00  0.00    +0.000 C 
ATOM      8  C   UNL     1       7.486  -5.476  22.787  0.00  0.00    +0.000 C 
ATOM      9  C   UNL     1       6.507  -5.782  21.655  0.00  0.00    +0.000 C 
ATOM     10  C   UNL     1       5.310  -4.768  23.637  0.00  0.00    +0.000 C 
ATOM     11  C   UNL     1       4.276  -4.932  24.699  0.00  0.00    +0.000 C 
ATOM     12  C   UNL     1       4.741  -4.468  26.046  0.00  0.00    +0.000 C 
ATOM     13  C   UNL     1       3.773  -3.584  26.761  0.00  0.00    +0.000 C 
ATOM     14  O   UNL     1       4.822  -5.690  26.839  0.00  0.00    +0.000 OA
ENDROOT
BRANCH   6  15
ATOM     15  S   UNL     1       8.842  -3.978  24.720  0.00  0.00    +0.000 S 
ATOM     16  O   UNL     1       8.817  -3.743  26.147  0.00  0.00    +0.000 OA
ATOM     17  O   UNL     1       9.866  -3.174  24.048  0.00  0.00    +0.000 OA
ATOM     18  N   UNL     1       9.248  -5.558  24.500  0.00  0.00    +0.000 NA
ENDBRANCH   6  15
BRANCH   1  19
ATOM     19  C   UNL     1       7.367  -1.769  25.568  0.00  0.00    +0.000 C 
ATOM     20  O   UNL     1       6.989  -1.544  26.850  0.00  0.00    +0.000 OA
BRANCH  19  22
ATOM     21  O   UNL     1       6.117   0.087  24.784  0.00  0.00    +0.000 OA
ATOM     22  C   UNL     1       7.170  -0.587  24.643  0.00  0.00    +0.000 C 
ATOM     23  N   UNL     1       7.824  -0.519  23.528  0.00  0.00    +0.000 NA
BRANCH  23  24
ATOM     24  C   UNL     1       8.654   0.466  23.214  0.00  0.00    +0.000 A 
ATOM     25  C   UNL     1       7.957   1.235  21.869  0.00  0.00    +0.000 A 
ATOM     26  N   UNL     1       7.844   2.535  22.274  0.00  0.00    +0.000 NA
ATOM     27  C   UNL     1       8.381   3.425  23.045  0.00  0.00    +0.000 A 
ATOM     28  C   UNL     1       8.977   2.861  24.410  0.00  0.00    +0.000 A 
ATOM     29  C   UNL     1       9.364   1.398  24.046  0.00  0.00    +0.000 A 
ATOM     30  C   UNL     1      10.926   1.340  24.188  0.00  0.00    +0.000 C 
ENDBRANCH  23  24
ENDBRANCH  19  22
ENDBRANCH   1  19
TORSDOF 4
ENDMDL
