MODEL 1
REMARK VINA RESULT:      -7.7      0.000      0.000
REMARK  Name = 
REMARK  5 active torsions:
REMARK  status: ('A' for Active; 'I' for Inactive)
REMARK    1  A    between atoms: C_5  and  N_8
REMARK    2  A    between atoms: N_14  and  C_17
REMARK    3  A    between atoms: C_17  and  N_18
REMARK    4  A    between atoms: N_21  and  C_24
REMARK    5  A    between atoms: C_24  and  N_25
REMARK                            x       y       z     vdW  Elec       q    Type
REMARK                         _______ _______ _______ _____ _____    ______ ____
ROOT
ATOM      1  C   UNL     1       8.409  -2.881  24.417  0.00  0.00    +0.000 C 
ENDROOT
BRANCH   1   8
ATOM      2  N   UNL     1       4.013  -6.355  26.374  0.00  0.00    +0.000 NA
ATOM      3  C   UNL     1       5.146  -6.317  27.090  0.00  0.00    +0.000 C 
ATOM      4  O   UNL     1       5.571  -7.266  27.695  0.00  0.00    +0.000 OA
ATOM      5  N   UNL     1       5.954  -5.352  26.603  0.00  0.00    +0.000 N 
ATOM      6  C   UNL     1       7.383  -5.438  26.825  0.00  0.00    +0.000 C 
ATOM      7  C   UNL     1       8.113  -4.899  25.585  0.00  0.00    +0.000 C 
ATOM      8  N   UNL     1       7.584  -3.628  25.259  0.00  0.00    +0.000 NA
ATOM      9  C   UNL     1       6.252  -3.745  24.800  0.00  0.00    +0.000 C 
ATOM     10  C   UNL     1       5.368  -4.184  25.978  0.00  0.00    +0.000 C 
BRANCH   2  15
ATOM     11  O   UNL     1       1.455  -4.400  24.225  0.00  0.00    +0.000 OA
ATOM     12  C   UNL     1       2.321  -5.397  24.696  0.00  0.00    +0.000 C 
ATOM     13  C   UNL     1       3.123  -5.918  23.513  0.00  0.00    +0.000 C 
ATOM     14  C   UNL     1       4.186  -6.891  24.011  0.00  0.00    +0.000 C 
ATOM     15  C   UNL     1       3.796  -7.399  25.394  0.00  0.00    +0.000 C 
ATOM     16  C   UNL     1       2.320  -7.784  25.389  0.00  0.00    +0.000 C 
ATOM     17  C   UNL     1       1.474  -6.520  25.274  0.00  0.00    +0.000 C 
ENDBRANCH   2  15
ENDBRANCH   1   8
BRANCH   1  18
ATOM     18  N   UNL     1       9.406  -2.133  25.133  0.00  0.00    +0.000 NA
ATOM     19  C   UNL     1       8.784  -1.354  26.144  0.00  0.00    +0.000 C 
ATOM     20  C   UNL     1       7.869  -0.297  25.585  0.00  0.00    +0.000 C 
ATOM     21  N   UNL     1       8.569   0.563  24.663  0.00  0.00    +0.000 NA
ATOM     22  C   UNL     1       9.953   0.179  24.667  0.00  0.00    +0.000 C 
ATOM     23  C   UNL     1      10.080  -1.269  24.210  0.00  0.00    +0.000 C 
BRANCH  21  24
ATOM     24  C   UNL     1       8.030   0.342  23.362  0.00  0.00    +0.000 C 
BRANCH  24  25
ATOM     25  N   UNL     1       8.012   1.503  22.537  0.00  0.00    +0.000 NA
ATOM     26  C   UNL     1       8.811   1.320  21.391  0.00  0.00    +0.000 C 
ATOM     27  C   UNL     1       8.211   0.262  20.459  0.00  0.00    +0.000 C 
ATOM     28  N   UNL     1       6.884   0.752  20.064  0.00  0.00    +0.000 N 
ATOM     29  C   UNL     1       6.395   1.943  20.746  0.00  0.00    +0.000 C 
ATOM     30  C   UNL     1       6.678   1.846  22.225  0.00  0.00    +0.000 C 
ATOM     31  C   UNL     1       6.409   0.442  18.845  0.00  0.00    +0.000 C 
ATOM     32  O   UNL     1       6.821  -0.517  18.230  0.00  0.00    +0.000 OA
ATOM     33  C   UNL     1       5.206   1.230  18.376  0.00  0.00    +0.000 C 
ENDBRANCH  24  25
ENDBRANCH  21  24
ENDBRANCH   1  18
TORSDOF 5
ENDMDL
MODEL 2
REMARK VINA RESULT:      -7.5      1.704      2.403
REMARK  Name = 
REMARK  5 active torsions:
REMARK  status: ('A' for Active; 'I' for Inactive)
REMARK    1  A    between atoms: C_5  and  N_8
REMARK    2  A    between atoms: N_14  and  C_17
REMARK    3  A    between atoms: C_17  and  N_18
REMARK    4  A    between atoms: N_21  and  C_24
REMARK    5  A    between atoms: C_24  and  N_25
REMARK                            x       y       z     vdW  Elec       q    Type
REMARK                         _______ _______ _______ _____ _____    ______ ____
ROOT
ATOM      1  C   UNL     1       6.400  -1.434  25.812  0.00  0.00    +0.000 C 
ENDROOT
BRANCH   1   8
ATOM      2  N   UNL     1       4.140  -6.390  23.456  0.00  0.00    +0.000 NA
ATOM      3  C   UNL     1       5.154  -5.797  22.810  0.00  0.00    +0.000 C 
ATOM      4  O   UNL     1       5.261  -5.804  21.612  0.00  0.00    +0.000 OA
ATOM      5  N   UNL     1       5.652  -4.802  23.573  0.00  0.00    +0.000 N 
ATOM      6  C   UNL     1       6.360  -3.706  22.944  0.00  0.00    +0.000 C 
ATOM      7  C   UNL     1       6.044  -2.407  23.702  0.00  0.00    +0.000 C 
ATOM      8  N   UNL     1       6.272  -2.617  25.083  0.00  0.00    +0.000 NA
ATOM      9  C   UNL     1       5.321  -3.517  25.614  0.00  0.00    +0.000 C 
ATOM     10  C   UNL     1       5.581  -4.910  25.016  0.00  0.00    +0.000 C 
BRANCH   2  15
ATOM     11  O   UNL     1       2.569  -7.252  26.888  0.00  0.00    +0.000 OA
ATOM     12  C   UNL     1       2.731  -6.847  25.555  0.00  0.00    +0.000 C 
ATOM     13  C   UNL     1       1.922  -5.575  25.350  0.00  0.00    +0.000 C 
ATOM     14  C   UNL     1       2.200  -5.016  23.959  0.00  0.00    +0.000 C 
ATOM     15  C   UNL     1       2.767  -6.122  23.077  0.00  0.00    +0.000 C 
ATOM     16  C   UNL     1       1.938  -7.388  23.263  0.00  0.00    +0.000 C 
ATOM     17  C   UNL     1       2.188  -7.949  24.659  0.00  0.00    +0.000 C 
ENDBRANCH   2  15
ENDBRANCH   1   8
BRANCH   1  18
ATOM     18  N   UNL     1       7.679  -1.309  26.453  0.00  0.00    +0.000 NA
ATOM     19  C   UNL     1       7.803  -0.015  27.025  0.00  0.00    +0.000 C 
ATOM     20  C   UNL     1       7.806   1.081  25.992  0.00  0.00    +0.000 C 
ATOM     21  N   UNL     1       8.847   0.874  25.016  0.00  0.00    +0.000 NA
ATOM     22  C   UNL     1       9.610  -0.272  25.423  0.00  0.00    +0.000 C 
ATOM     23  C   UNL     1       8.704  -1.496  25.469  0.00  0.00    +0.000 C 
BRANCH  21  24
ATOM     24  C   UNL     1       8.224   0.596  23.764  0.00  0.00    +0.000 C 
BRANCH  24  25
ATOM     25  N   UNL     1       7.934   1.757  22.992  0.00  0.00    +0.000 NA
ATOM     26  C   UNL     1       8.844   1.893  21.924  0.00  0.00    +0.000 C 
ATOM     27  C   UNL     1       8.661   0.775  20.893  0.00  0.00    +0.000 C 
ATOM     28  N   UNL     1       7.287   0.886  20.389  0.00  0.00    +0.000 N 
ATOM     29  C   UNL     1       6.414   1.834  21.068  0.00  0.00    +0.000 C 
ATOM     30  C   UNL     1       6.589   1.720  22.562  0.00  0.00    +0.000 C 
ATOM     31  C   UNL     1       7.026   0.537  19.116  0.00  0.00    +0.000 C 
ATOM     32  O   UNL     1       7.752  -0.216  18.506  0.00  0.00    +0.000 OA
ATOM     33  C   UNL     1       5.688   0.975  18.563  0.00  0.00    +0.000 C 
ENDBRANCH  24  25
ENDBRANCH  21  24
ENDBRANCH   1  18
TORSDOF 5
ENDMDL
MODEL 3
REMARK VINA RESULT:      -7.4      1.655      2.371
REMARK  Name = 
REMARK  5 active torsions:
REMARK  status: ('A' for Active; 'I' for Inactive)
REMARK    1  A    between atoms: C_5  and  N_8
REMARK    2  A    between atoms: N_14  and  C_17
REMARK    3  A    between atoms: C_17  and  N_18
REMARK    4  A    between atoms: N_21  and  C_24
REMARK    5  A    between atoms: C_24  and  N_25
REMARK                            x       y       z     vdW  Elec       q    Type
REMARK                         _______ _______ _______ _____ _____    ______ ____
ROOT
ATOM      1  C   UNL     1       7.088  -2.271  25.399  0.00  0.00    +0.000 C 
ENDROOT
BRANCH   1   8
ATOM      2  N   UNL     1       3.689  -6.960  26.697  0.00  0.00    +0.000 NA
ATOM      3  C   UNL     1       4.439  -7.019  25.587  0.00  0.00    +0.000 C 
ATOM      4  O   UNL     1       4.092  -7.601  24.592  0.00  0.00    +0.000 OA
ATOM      5  N   UNL     1       5.270  -5.957  25.548  0.00  0.00    +0.000 N 
ATOM      6  C   UNL     1       5.787  -5.500  24.274  0.00  0.00    +0.000 C 
ATOM      7  C   UNL     1       5.890  -3.968  24.298  0.00  0.00    +0.000 C 
ATOM      8  N   UNL     1       6.595  -3.575  25.461  0.00  0.00    +0.000 NA
ATOM      9  C   UNL     1       5.834  -3.846  26.621  0.00  0.00    +0.000 C 
ATOM     10  C   UNL     1       5.731  -5.371  26.791  0.00  0.00    +0.000 C 
BRANCH   2  15
ATOM     11  O   UNL     1       3.265  -6.257  30.480  0.00  0.00    +0.000 OA
ATOM     12  C   UNL     1       3.017  -6.368  29.104  0.00  0.00    +0.000 C 
ATOM     13  C   UNL     1       2.319  -5.095  28.649  0.00  0.00    +0.000 C 
ATOM     14  C   UNL     1       2.175  -5.110  27.132  0.00  0.00    +0.000 C 
ATOM     15  C   UNL     1       2.303  -6.542  26.628  0.00  0.00    +0.000 C 
ATOM     16  C   UNL     1       1.458  -7.461  27.506  0.00  0.00    +0.000 C 
ATOM     17  C   UNL     1       2.099  -7.560  28.887  0.00  0.00    +0.000 C 
ENDBRANCH   2  15
ENDBRANCH   1   8
BRANCH   1  18
ATOM     18  N   UNL     1       8.488  -2.188  25.711  0.00  0.00    +0.000 NA
ATOM     19  C   UNL     1       8.742  -1.010  26.462  0.00  0.00    +0.000 C 
ATOM     20  C   UNL     1       8.468   0.249  25.682  0.00  0.00    +0.000 C 
ATOM     21  N   UNL     1       9.226   0.276  24.455  0.00  0.00    +0.000 NA
ATOM     22  C   UNL     1      10.080  -0.878  24.439  0.00  0.00    +0.000 C 
ATOM     23  C   UNL     1       9.228  -2.141  24.484  0.00  0.00    +0.000 C 
BRANCH  21  24
ATOM     24  C   UNL     1       8.305   0.187  23.370  0.00  0.00    +0.000 C 
BRANCH  24  25
ATOM     25  N   UNL     1       8.206   1.379  22.596  0.00  0.00    +0.000 NA
ATOM     26  C   UNL     1       8.950   1.269  21.404  0.00  0.00    +0.000 C 
ATOM     27  C   UNL     1       8.337   0.229  20.461  0.00  0.00    +0.000 C 
ATOM     28  N   UNL     1       6.977   0.688  20.154  0.00  0.00    +0.000 N 
ATOM     29  C   UNL     1       6.485   1.832  20.909  0.00  0.00    +0.000 C 
ATOM     30  C   UNL     1       6.848   1.687  22.366  0.00  0.00    +0.000 C 
ATOM     31  C   UNL     1       6.448   0.409  18.949  0.00  0.00    +0.000 C 
ATOM     32  O   UNL     1       6.860  -0.509  18.275  0.00  0.00    +0.000 OA
ATOM     33  C   UNL     1       5.198   1.173  18.574  0.00  0.00    +0.000 C 
ENDBRANCH  24  25
ENDBRANCH  21  24
ENDBRANCH   1  18
TORSDOF 5
ENDMDL
MODEL 4
REMARK VINA RESULT:      -7.4      2.910      9.327
REMARK  Name = 
REMARK  5 active torsions:
REMARK  status: ('A' for Active; 'I' for Inactive)
REMARK    1  A    between atoms: C_5  and  N_8
REMARK    2  A    between atoms: N_14  and  C_17
REMARK    3  A    between atoms: C_17  and  N_18
REMARK    4  A    between atoms: N_21  and  C_24
REMARK    5  A    between atoms: C_24  and  N_25
REMARK                            x       y       z     vdW  Elec       q    Type
REMARK                         _______ _______ _______ _____ _____    ______ ____
ROOT
ATOM      1  C   UNL     1       7.821  -3.298  23.264  0.00  0.00    +0.000 C 
ENDROOT
BRANCH   1   8
ATOM      2  N   UNL     1       8.605   2.575  22.934  0.00  0.00    +0.000 NA
ATOM      3  C   UNL     1       9.324   1.801  22.109  0.00  0.00    +0.000 C 
ATOM      4  O   UNL     1      10.441   2.078  21.759  0.00  0.00    +0.000 OA
ATOM      5  N   UNL     1       8.890   0.527  22.196  0.00  0.00    +0.000 N 
ATOM      6  C   UNL     1       9.783  -0.557  21.841  0.00  0.00    +0.000 C 
ATOM      7  C   UNL     1       9.519  -1.748  22.775  0.00  0.00    +0.000 C 
ATOM      8  N   UNL     1       8.131  -2.027  22.779  0.00  0.00    +0.000 NA
ATOM      9  C   UNL     1       7.415  -0.983  23.408  0.00  0.00    +0.000 C 
ATOM     10  C   UNL     1       7.501   0.270  22.521  0.00  0.00    +0.000 C 
BRANCH   2  15
ATOM     11  O   UNL     1       5.905   5.252  23.665  0.00  0.00    +0.000 OA
ATOM     12  C   UNL     1       7.023   4.413  23.782  0.00  0.00    +0.000 C 
ATOM     13  C   UNL     1       7.037   3.844  25.193  0.00  0.00    +0.000 C 
ATOM     14  C   UNL     1       8.146   2.805  25.309  0.00  0.00    +0.000 C 
ATOM     15  C   UNL     1       9.161   3.025  24.194  0.00  0.00    +0.000 C 
ATOM     16  C   UNL     1       9.486   4.512  24.098  0.00  0.00    +0.000 C 
ATOM     17  C   UNL     1       8.269   5.256  23.558  0.00  0.00    +0.000 C 
ENDBRANCH   2  15
ENDBRANCH   1   8
BRANCH   1  18
ATOM     18  N   UNL     1       7.337  -4.183  22.240  0.00  0.00    +0.000 NA
ATOM     19  C   UNL     1       6.089  -3.713  21.753  0.00  0.00    +0.000 C 
ATOM     20  C   UNL     1       5.006  -3.741  22.799  0.00  0.00    +0.000 C 
ATOM     21  N   UNL     1       4.851  -5.064  23.351  0.00  0.00    +0.000 NA
ATOM     22  C   UNL     1       5.725  -5.948  22.631  0.00  0.00    +0.000 C 
ATOM     23  C   UNL     1       7.167  -5.488  22.806  0.00  0.00    +0.000 C 
BRANCH  21  24
ATOM     24  C   UNL     1       5.258  -5.020  24.716  0.00  0.00    +0.000 C 
BRANCH  24  25
ATOM     25  N   UNL     1       4.178  -5.065  25.644  0.00  0.00    +0.000 NA
ATOM     26  C   UNL     1       3.974  -6.377  26.116  0.00  0.00    +0.000 C 
ATOM     27  C   UNL     1       5.150  -6.846  26.979  0.00  0.00    +0.000 C 
ATOM     28  N   UNL     1       5.237  -5.920  28.114  0.00  0.00    +0.000 N 
ATOM     29  C   UNL     1       4.380  -4.743  28.067  0.00  0.00    +0.000 C 
ATOM     30  C   UNL     1       4.405  -4.139  26.686  0.00  0.00    +0.000 C 
ATOM     31  C   UNL     1       5.671  -6.379  29.302  0.00  0.00    +0.000 C 
ATOM     32  O   UNL     1       6.351  -7.378  29.383  0.00  0.00    +0.000 OA
ATOM     33  C   UNL     1       5.432  -5.480  30.495  0.00  0.00    +0.000 C 
ENDBRANCH  24  25
ENDBRANCH  21  24
ENDBRANCH   1  18
TORSDOF 5
ENDMDL
MODEL 5
REMARK VINA RESULT:      -7.2      2.749      3.766
REMARK  Name = 
REMARK  5 active torsions:
REMARK  status: ('A' for Active; 'I' for Inactive)
REMARK    1  A    between atoms: C_5  and  N_8
REMARK    2  A    between atoms: N_14  and  C_17
REMARK    3  A    between atoms: C_17  and  N_18
REMARK    4  A    between atoms: N_21  and  C_24
REMARK    5  A    between atoms: C_24  and  N_25
REMARK                            x       y       z     vdW  Elec       q    Type
REMARK                         _______ _______ _______ _____ _____    ______ ____
ROOT
ATOM      1  C   UNL     1       7.415  -2.514  23.409  0.00  0.00    +0.000 C 
ENDROOT
BRANCH   1   8
ATOM      2  N   UNL     1       4.619  -6.640  26.630  0.00  0.00    +0.000 NA
ATOM      3  C   UNL     1       4.774  -6.869  25.318  0.00  0.00    +0.000 C 
ATOM      4  O   UNL     1       3.967  -7.472  24.659  0.00  0.00    +0.000 OA
ATOM      5  N   UNL     1       5.578  -5.924  24.788  0.00  0.00    +0.000 N 
ATOM      6  C   UNL     1       5.492  -5.626  23.373  0.00  0.00    +0.000 C 
ATOM      7  C   UNL     1       5.717  -4.121  23.166  0.00  0.00    +0.000 C 
ATOM      8  N   UNL     1       6.903  -3.739  23.838  0.00  0.00    +0.000 NA
ATOM      9  C   UNL     1       6.734  -3.831  25.238  0.00  0.00    +0.000 C 
ATOM     10  C   UNL     1       6.599  -5.315  25.616  0.00  0.00    +0.000 C 
BRANCH   2  15
ATOM     11  O   UNL     1       6.048  -5.537  30.055  0.00  0.00    +0.000 OA
ATOM     12  C   UNL     1       5.183  -5.744  28.971  0.00  0.00    +0.000 C 
ATOM     13  C   UNL     1       4.444  -4.441  28.705  0.00  0.00    +0.000 C 
ATOM     14  C   UNL     1       3.612  -4.580  27.435  0.00  0.00    +0.000 C 
ATOM     15  C   UNL     1       3.392  -6.058  27.137  0.00  0.00    +0.000 C 
ATOM     16  C   UNL     1       2.989  -6.776  28.421  0.00  0.00    +0.000 C 
ATOM     17  C   UNL     1       4.189  -6.826  29.363  0.00  0.00    +0.000 C 
ENDBRANCH   2  15
ENDBRANCH   1   8
BRANCH   1  18
ATOM     18  N   UNL     1       8.739  -2.624  22.861  0.00  0.00    +0.000 NA
ATOM     19  C   UNL     1       9.699  -2.393  23.882  0.00  0.00    +0.000 C 
ATOM     20  C   UNL     1       9.646  -0.990  24.425  0.00  0.00    +0.000 C 
ATOM     21  N   UNL     1       9.806  -0.018  23.372  0.00  0.00    +0.000 NA
ATOM     22  C   UNL     1      10.070  -0.729  22.152  0.00  0.00    +0.000 C 
ATOM     23  C   UNL     1       8.891  -1.639  21.831  0.00  0.00    +0.000 C 
BRANCH  21  24
ATOM     24  C   UNL     1       8.576   0.690  23.239  0.00  0.00    +0.000 C 
BRANCH  24  25
ATOM     25  N   UNL     1       8.284   1.553  24.334  0.00  0.00    +0.000 NA
ATOM     26  C   UNL     1       9.052   2.732  24.267  0.00  0.00    +0.000 C 
ATOM     27  C   UNL     1       8.642   3.594  23.068  0.00  0.00    +0.000 C 
ATOM     28  N   UNL     1       7.228   3.937  23.259  0.00  0.00    +0.000 N 
ATOM     29  C   UNL     1       6.534   3.272  24.354  0.00  0.00    +0.000 C 
ATOM     30  C   UNL     1       6.895   1.808  24.384  0.00  0.00    +0.000 C 
ATOM     31  C   UNL     1       6.774   5.118  22.804  0.00  0.00    +0.000 C 
ATOM     32  O   UNL     1       7.347   5.720  21.923  0.00  0.00    +0.000 OA
ATOM     33  C   UNL     1       5.415   5.552  23.309  0.00  0.00    +0.000 C 
ENDBRANCH  24  25
ENDBRANCH  21  24
ENDBRANCH   1  18
TORSDOF 5
ENDMDL
MODEL 6
REMARK VINA RESULT:      -7.0      2.684      8.826
REMARK  Name = 
REMARK  5 active torsions:
REMARK  status: ('A' for Active; 'I' for Inactive)
REMARK    1  A    between atoms: C_5  and  N_8
REMARK    2  A    between atoms: N_14  and  C_17
REMARK    3  A    between atoms: C_17  and  N_18
REMARK    4  A    between atoms: N_21  and  C_24
REMARK    5  A    between atoms: C_24  and  N_25
REMARK                            x       y       z     vdW  Elec       q    Type
REMARK                         _______ _______ _______ _____ _____    ______ ____
ROOT
ATOM      1  C   UNL     1       7.922  -2.105  25.174  0.00  0.00    +0.000 C 
ENDROOT
BRANCH   1   8
ATOM      2  N   UNL     1       9.077   3.414  23.322  0.00  0.00    +0.000 NA
ATOM      3  C   UNL     1      10.086   2.530  23.322  0.00  0.00    +0.000 C 
ATOM      4  O   UNL     1      11.227   2.840  23.543  0.00  0.00    +0.000 OA
ATOM      5  N   UNL     1       9.605   1.300  23.597  0.00  0.00    +0.000 N 
ATOM      6  C   UNL     1      10.488   0.299  24.161  0.00  0.00    +0.000 C 
ATOM      7  C   UNL     1       9.695  -0.562  25.156  0.00  0.00    +0.000 C 
ATOM      8  N   UNL     1       8.514  -1.020  24.525  0.00  0.00    +0.000 NA
ATOM      9  C   UNL     1       7.629   0.054  24.281  0.00  0.00    +0.000 C 
ATOM     10  C   UNL     1       8.251   0.962  23.207  0.00  0.00    +0.000 C 
BRANCH   2  15
ATOM     11  O   UNL     1       5.377   4.262  22.563  0.00  0.00    +0.000 OA
ATOM     12  C   UNL     1       6.639   4.206  23.173  0.00  0.00    +0.000 C 
ATOM     13  C   UNL     1       6.429   4.003  24.666  0.00  0.00    +0.000 C 
ATOM     14  C   UNL     1       7.776   3.779  25.341  0.00  0.00    +0.000 C 
ATOM     15  C   UNL     1       8.885   4.313  24.442  0.00  0.00    +0.000 C 
ATOM     16  C   UNL     1       8.488   5.690  23.919  0.00  0.00    +0.000 C 
ATOM     17  C   UNL     1       7.336   5.536  22.931  0.00  0.00    +0.000 C 
ENDBRANCH   2  15
ENDBRANCH   1   8
BRANCH   1  18
ATOM     18  N   UNL     1       8.756  -3.275  25.181  0.00  0.00    +0.000 NA
ATOM     19  C   UNL     1       8.393  -4.128  24.106  0.00  0.00    +0.000 C 
ATOM     20  C   UNL     1       6.997  -4.677  24.244  0.00  0.00    +0.000 C 
ATOM     21  N   UNL     1       6.832  -5.369  25.497  0.00  0.00    +0.000 NA
ATOM     22  C   UNL     1       8.106  -5.392  26.160  0.00  0.00    +0.000 C 
ATOM     23  C   UNL     1       8.567  -3.964  26.423  0.00  0.00    +0.000 C 
BRANCH  21  24
ATOM     24  C   UNL     1       5.910  -4.625  26.291  0.00  0.00    +0.000 C 
BRANCH  24  25
ATOM     25  N   UNL     1       4.815  -5.393  26.780  0.00  0.00    +0.000 NA
ATOM     26  C   UNL     1       3.595  -4.718  26.577  0.00  0.00    +0.000 C 
ATOM     27  C   UNL     1       3.262  -4.609  25.086  0.00  0.00    +0.000 C 
ATOM     28  N   UNL     1       3.158  -5.981  24.575  0.00  0.00    +0.000 N 
ATOM     29  C   UNL     1       3.556  -7.049  25.481  0.00  0.00    +0.000 C 
ATOM     30  C   UNL     1       4.833  -6.677  26.192  0.00  0.00    +0.000 C 
ATOM     31  C   UNL     1       2.299  -6.243  23.574  0.00  0.00    +0.000 C 
ATOM     32  O   UNL     1       1.914  -5.371  22.826  0.00  0.00    +0.000 OA
ATOM     33  C   UNL     1       1.998  -7.703  23.315  0.00  0.00    +0.000 C 
ENDBRANCH  24  25
ENDBRANCH  21  24
ENDBRANCH   1  18
TORSDOF 5
ENDMDL
MODEL 7
REMARK VINA RESULT:      -6.9      2.983      4.379
REMARK  Name = 
REMARK  5 active torsions:
REMARK  status: ('A' for Active; 'I' for Inactive)
REMARK    1  A    between atoms: C_5  and  N_8
REMARK    2  A    between atoms: N_14  and  C_17
REMARK    3  A    between atoms: C_17  and  N_18
REMARK    4  A    between atoms: N_21  and  C_24
REMARK    5  A    between atoms: C_24  and  N_25
REMARK                            x       y       z     vdW  Elec       q    Type
REMARK                         _______ _______ _______ _____ _____    ______ ____
ROOT
ATOM      1  C   UNL     1       8.221  -0.709  23.486  0.00  0.00    +0.000 C 
ENDROOT
BRANCH   1   8
ATOM      2  N   UNL     1       5.641  -5.890  24.798  0.00  0.00    +0.000 NA
ATOM      3  C   UNL     1       5.958  -5.656  23.516  0.00  0.00    +0.000 C 
ATOM      4  O   UNL     1       5.305  -6.070  22.594  0.00  0.00    +0.000 OA
ATOM      5  N   UNL     1       6.689  -4.525  23.433  0.00  0.00    +0.000 N 
ATOM      6  C   UNL     1       6.714  -3.781  22.191  0.00  0.00    +0.000 C 
ATOM      7  C   UNL     1       6.770  -2.279  22.510  0.00  0.00    +0.000 C 
ATOM      8  N   UNL     1       7.823  -2.045  23.426  0.00  0.00    +0.000 NA
ATOM      9  C   UNL     1       7.524  -2.612  24.685  0.00  0.00    +0.000 C 
ATOM     10  C   UNL     1       7.536  -4.143  24.545  0.00  0.00    +0.000 C 
BRANCH   2  15
ATOM     11  O   UNL     1       6.609  -5.598  28.535  0.00  0.00    +0.000 OA
ATOM     12  C   UNL     1       5.875  -5.603  27.339  0.00  0.00    +0.000 C 
ATOM     13  C   UNL     1       4.981  -4.372  27.333  0.00  0.00    +0.000 C 
ATOM     14  C   UNL     1       4.285  -4.258  25.982  0.00  0.00    +0.000 C 
ATOM     15  C   UNL     1       4.306  -5.615  25.289  0.00  0.00    +0.000 C 
ATOM     16  C   UNL     1       3.906  -6.696  26.288  0.00  0.00    +0.000 C 
ATOM     17  C   UNL     1       5.018  -6.859  27.320  0.00  0.00    +0.000 C 
ENDBRANCH   2  15
ENDBRANCH   1   8
BRANCH   1  18
ATOM     18  N   UNL     1       9.318  -0.413  22.607  0.00  0.00    +0.000 NA
ATOM     19  C   UNL     1      10.510  -0.260  23.363  0.00  0.00    +0.000 C 
ATOM     20  C   UNL     1      10.461   0.923  24.294  0.00  0.00    +0.000 C 
ATOM     21  N   UNL     1      10.177   2.140  23.575  0.00  0.00    +0.000 NA
ATOM     22  C   UNL     1      10.137   1.825  22.175  0.00  0.00    +0.000 C 
ATOM     23  C   UNL     1       9.032   0.809  21.914  0.00  0.00    +0.000 C 
BRANCH  21  24
ATOM     24  C   UNL     1       8.891   2.600  23.984  0.00  0.00    +0.000 C 
BRANCH  24  25
ATOM     25  N   UNL     1       8.849   3.985  24.310  0.00  0.00    +0.000 NA
ATOM     26  C   UNL     1       8.317   4.738  23.245  0.00  0.00    +0.000 C 
ATOM     27  C   UNL     1       6.834   4.420  23.026  0.00  0.00    +0.000 C 
ATOM     28  N   UNL     1       6.140   4.768  24.272  0.00  0.00    +0.000 N 
ATOM     29  C   UNL     1       6.976   5.124  25.411  0.00  0.00    +0.000 C 
ATOM     30  C   UNL     1       8.139   4.170  25.517  0.00  0.00    +0.000 C 
ATOM     31  C   UNL     1       4.872   5.215  24.212  0.00  0.00    +0.000 C 
ATOM     32  O   UNL     1       4.161   4.975  23.261  0.00  0.00    +0.000 OA
ATOM     33  C   UNL     1       4.330   5.859  25.469  0.00  0.00    +0.000 C 
ENDBRANCH  24  25
ENDBRANCH  21  24
ENDBRANCH   1  18
TORSDOF 5
ENDMDL
MODEL 8
REMARK VINA RESULT:      -6.8      2.887      4.272
REMARK  Name = 
REMARK  5 active torsions:
REMARK  status: ('A' for Active; 'I' for Inactive)
REMARK    1  A    between atoms: C_5  and  N_8
REMARK    2  A    between atoms: N_14  and  C_17
REMARK    3  A    between atoms: C_17  and  N_18
REMARK    4  A    between atoms: N_21  and  C_24
REMARK    5  A    between atoms: C_24  and  N_25
REMARK                            x       y       z     vdW  Elec       q    Type
REMARK                         _______ _______ _______ _____ _____    ______ ____
ROOT
ATOM      1  C   UNL     1       7.351  -2.498  23.437  0.00  0.00    +0.000 C 
ENDROOT
BRANCH   1   8
ATOM      2  N   UNL     1       4.612  -6.508  26.850  0.00  0.00    +0.000 NA
ATOM      3  C   UNL     1       4.812  -6.816  25.561  0.00  0.00    +0.000 C 
ATOM      4  O   UNL     1       4.046  -7.490  24.922  0.00  0.00    +0.000 OA
ATOM      5  N   UNL     1       5.597  -5.878  24.991  0.00  0.00    +0.000 N 
ATOM      6  C   UNL     1       5.541  -5.676  23.557  0.00  0.00    +0.000 C 
ATOM      7  C   UNL     1       5.718  -4.180  23.257  0.00  0.00    +0.000 C 
ATOM      8  N   UNL     1       6.870  -3.711  23.933  0.00  0.00    +0.000 NA
ATOM      9  C   UNL     1       6.665  -3.718  25.331  0.00  0.00    +0.000 C 
ATOM     10  C   UNL     1       6.572  -5.179  25.803  0.00  0.00    +0.000 C 
BRANCH   2  15
ATOM     11  O   UNL     1       5.887  -5.187  30.258  0.00  0.00    +0.000 OA
ATOM     12  C   UNL     1       5.067  -5.477  29.158  0.00  0.00    +0.000 C 
ATOM     13  C   UNL     1       4.298  -4.213  28.801  0.00  0.00    +0.000 C 
ATOM     14  C   UNL     1       3.516  -4.443  27.513  0.00  0.00    +0.000 C 
ATOM     15  C   UNL     1       3.351  -5.941  27.285  0.00  0.00    +0.000 C 
ATOM     16  C   UNL     1       2.926  -6.605  28.591  0.00  0.00    +0.000 C 
ATOM     17  C   UNL     1       4.092  -6.568  29.573  0.00  0.00    +0.000 C 
ENDBRANCH   2  15
ENDBRANCH   1   8
BRANCH   1  18
ATOM     18  N   UNL     1       8.688  -2.597  22.922  0.00  0.00    +0.000 NA
ATOM     19  C   UNL     1       9.622  -2.432  23.979  0.00  0.00    +0.000 C 
ATOM     20  C   UNL     1       9.570  -1.058  24.593  0.00  0.00    +0.000 C 
ATOM     21  N   UNL     1       9.770  -0.035  23.597  0.00  0.00    +0.000 NA
ATOM     22  C   UNL     1      10.060  -0.685  22.350  0.00  0.00    +0.000 C 
ATOM     23  C   UNL     1       8.881  -1.563  21.949  0.00  0.00    +0.000 C 
BRANCH  21  24
ATOM     24  C   UNL     1       8.553   0.695  23.468  0.00  0.00    +0.000 C 
BRANCH  24  25
ATOM     25  N   UNL     1       8.735   2.074  23.162  0.00  0.00    +0.000 NA
ATOM     26  C   UNL     1       7.506   2.686  22.843  0.00  0.00    +0.000 C 
ATOM     27  C   UNL     1       6.585   2.752  24.065  0.00  0.00    +0.000 C 
ATOM     28  N   UNL     1       7.285   3.550  25.078  0.00  0.00    +0.000 N 
ATOM     29  C   UNL     1       8.668   3.905  24.792  0.00  0.00    +0.000 C 
ATOM     30  C   UNL     1       9.403   2.715  24.229  0.00  0.00    +0.000 C 
ATOM     31  C   UNL     1       6.566   4.307  25.927  0.00  0.00    +0.000 C 
ATOM     32  O   UNL     1       5.402   4.066  26.158  0.00  0.00    +0.000 OA
ATOM     33  C   UNL     1       7.336   5.340  26.719  0.00  0.00    +0.000 C 
ENDBRANCH  24  25
ENDBRANCH  21  24
ENDBRANCH   1  18
TORSDOF 5
ENDMDL
MODEL 9
REMARK VINA RESULT:      -6.4      3.040      4.617
REMARK  Name = 
REMARK  5 active torsions:
REMARK  status: ('A' for Active; 'I' for Inactive)
REMARK    1  A    between atoms: C_5  and  N_8
REMARK    2  A    between atoms: N_14  and  C_17
REMARK    3  A    between atoms: C_17  and  N_18
REMARK    4  A    between atoms: N_21  and  C_24
REMARK    5  A    between atoms: C_24  and  N_25
REMARK                            x       y       z     vdW  Elec       q    Type
REMARK                         _______ _______ _______ _____ _____    ______ ____
ROOT
ATOM      1  C   UNL     1       9.162   0.433  24.592  0.00  0.00    +0.000 C 
ENDROOT
BRANCH   1   8
ATOM      2  N   UNL     1       6.898  -5.052  24.627  0.00  0.00    +0.000 NA
ATOM      3  C   UNL     1       8.231  -4.927  24.553  0.00  0.00    +0.000 C 
ATOM      4  O   UNL     1       8.929  -5.695  23.945  0.00  0.00    +0.000 OA
ATOM      5  N   UNL     1       8.571  -3.634  24.737  0.00  0.00    +0.000 N 
ATOM      6  C   UNL     1       9.827  -3.144  24.206  0.00  0.00    +0.000 C 
ATOM      7  C   UNL     1       9.634  -1.699  23.722  0.00  0.00    +0.000 C 
ATOM      8  N   UNL     1       9.031  -0.946  24.758  0.00  0.00    +0.000 NA
ATOM      9  C   UNL     1       7.702  -1.373  24.976  0.00  0.00    +0.000 C 
ATOM     10  C   UNL     1       7.737  -2.791  25.570  0.00  0.00    +0.000 C 
BRANCH   2  15
ATOM     11  O   UNL     1       3.443  -4.796  26.353  0.00  0.00    +0.000 OA
ATOM     12  C   UNL     1       4.447  -4.917  25.382  0.00  0.00    +0.000 C 
ATOM     13  C   UNL     1       4.087  -4.003  24.220  0.00  0.00    +0.000 C 
ATOM     14  C   UNL     1       5.233  -3.987  23.215  0.00  0.00    +0.000 C 
ATOM     15  C   UNL     1       6.105  -5.218  23.426  0.00  0.00    +0.000 C 
ATOM     16  C   UNL     1       5.213  -6.446  23.579  0.00  0.00    +0.000 C 
ATOM     17  C   UNL     1       4.471  -6.362  24.909  0.00  0.00    +0.000 C 
ENDBRANCH   2  15
ENDBRANCH   1   8
BRANCH   1  18
ATOM     18  N   UNL     1       9.520   0.803  23.250  0.00  0.00    +0.000 NA
ATOM     19  C   UNL     1      10.378   1.934  23.278  0.00  0.00    +0.000 C 
ATOM     20  C   UNL     1       9.705   3.163  23.827  0.00  0.00    +0.000 C 
ATOM     21  N   UNL     1       8.507   3.475  23.086  0.00  0.00    +0.000 NA
ATOM     22  C   UNL     1       8.414   2.551  21.991  0.00  0.00    +0.000 C 
ATOM     23  C   UNL     1       8.323   1.129  22.532  0.00  0.00    +0.000 C 
BRANCH  21  24
ATOM     24  C   UNL     1       7.393   3.280  23.953  0.00  0.00    +0.000 C 
BRANCH  24  25
ATOM     25  N   UNL     1       6.295   4.147  23.688  0.00  0.00    +0.000 NA
ATOM     26  C   UNL     1       5.200   3.430  23.166  0.00  0.00    +0.000 C 
ATOM     27  C   UNL     1       4.607   2.481  24.213  0.00  0.00    +0.000 C 
ATOM     28  N   UNL     1       4.160   3.317  25.334  0.00  0.00    +0.000 N 
ATOM     29  C   UNL     1       4.529   4.725  25.289  0.00  0.00    +0.000 C 
ATOM     30  C   UNL     1       5.966   4.872  24.855  0.00  0.00    +0.000 C 
ATOM     31  C   UNL     1       3.089   2.932  26.050  0.00  0.00    +0.000 C 
ATOM     32  O   UNL     1       2.728   1.776  26.078  0.00  0.00    +0.000 OA
ATOM     33  C   UNL     1       2.486   3.976  26.965  0.00  0.00    +0.000 C 
ENDBRANCH  24  25
ENDBRANCH  21  24
ENDBRANCH   1  18
TORSDOF 5
ENDMDL
