MODEL 1
REMARK VINA RESULT:      -8.0      0.000      0.000
REMARK  Name = 
REMARK  4 active torsions:
REMARK  status: ('A' for Active; 'I' for Inactive)
REMARK    1  A    between atoms: N_8  and  C_11
REMARK    2  A    between atoms: C_15  and  C_17
REMARK    3  A    between atoms: C_22  and  C_23
REMARK    4  A    between atoms: C_23  and  N_24
REMARK                            x       y       z     vdW  Elec       q    Type
REMARK                         _______ _______ _______ _____ _____    ______ ____
ROOT
ATOM      1  C   UNL     1       7.838   1.746  24.212  0.00  0.00    +0.000 A 
ATOM      2  C   UNL     1       9.136   1.530  24.647  0.00  0.00    +0.000 A 
ATOM      3  C   UNL     1       9.614   0.236  25.452  0.00  0.00    +0.000 A 
ATOM      4  C   UNL     1       8.523  -0.730  24.889  0.00  0.00    +0.000 A 
ATOM      5  C   UNL     1       7.736  -0.350  23.798  0.00  0.00    +0.000 A 
ATOM      6  N   UNL     1       7.050   0.767  23.580  0.00  0.00    +0.000 NA
ATOM      7  O   UNL     1       8.463  -1.951  25.484  0.00  0.00    +0.000 OA
ENDROOT
BRANCH   1  15
ATOM      8  C   UNL     1       7.555   1.620  30.138  0.00  0.00    +0.000 C 
ATOM      9  N   UNL     1       7.407   2.408  28.932  0.00  0.00    +0.000 NA
ATOM     10  C   UNL     1       7.072   1.814  27.773  0.00  0.00    +0.000 C 
ATOM     11  O   UNL     1       6.822   0.635  27.705  0.00  0.00    +0.000 OA
ATOM     12  N   UNL     1       6.464   2.719  26.977  0.00  0.00    +0.000 N 
ATOM     13  C   UNL     1       7.153   3.958  26.657  0.00  0.00    +0.000 C 
ATOM     14  C   UNL     1       7.550   3.963  25.183  0.00  0.00    +0.000 C 
ATOM     15  N   UNL     1       7.052   2.729  24.576  0.00  0.00    +0.000 N 
ATOM     16  C   UNL     1       5.599   2.482  24.713  0.00  0.00    +0.000 C 
ATOM     17  C   UNL     1       5.306   2.316  26.198  0.00  0.00    +0.000 C 
ENDBRANCH   1  15
BRANCH   5  18
ATOM     18  C   UNL     1       7.852  -1.221  22.594  0.00  0.00    +0.000 A 
ATOM     19  C   UNL     1       9.252  -0.647  21.899  0.00  0.00    +0.000 A 
ATOM     20  C   UNL     1       8.892   0.007  20.613  0.00  0.00    +0.000 A 
ATOM     21  C   UNL     1       7.730   0.170  19.757  0.00  0.00    +0.000 A 
ATOM     22  C   UNL     1       6.466  -0.433  20.305  0.00  0.00    +0.000 A 
ATOM     23  C   UNL     1       6.753  -1.247  21.644  0.00  0.00    +0.000 A 
ATOM     24  F   UNL     1       8.002  -0.242  18.534  0.00  0.00    +0.000 F 
BRANCH  23  25
ATOM     25  C   UNL     1       6.052  -2.615  21.368  0.00  0.00    +0.000 C 
BRANCH  25  26
ATOM     26  N   UNL     1       6.186  -3.485  22.445  0.00  0.00    +0.000 NA
ATOM     27  C   UNL     1       6.863  -4.682  22.081  0.00  0.00    +0.000 C 
ATOM     28  C   UNL     1       7.395  -5.361  23.360  0.00  0.00    +0.000 C 
ATOM     29  N   UNL     1       6.220  -5.471  24.263  0.00  0.00    +0.000 N 
ATOM     30  C   UNL     1       4.926  -5.198  23.611  0.00  0.00    +0.000 C 
ATOM     31  C   UNL     1       4.969  -3.756  23.106  0.00  0.00    +0.000 C 
ATOM     32  C   UNL     1       6.389  -5.056  25.535  0.00  0.00    +0.000 C 
ATOM     33  O   UNL     1       5.560  -4.397  26.121  0.00  0.00    +0.000 OA
ATOM     34  C   UNL     1       7.710  -5.420  26.173  0.00  0.00    +0.000 C 
ENDBRANCH  25  26
ENDBRANCH  23  25
ENDBRANCH   5  18
TORSDOF 4
ENDMDL
MODEL 2
REMARK VINA RESULT:      -7.8      3.439      7.167
REMARK  Name = 
REMARK  4 active torsions:
REMARK  status: ('A' for Active; 'I' for Inactive)
REMARK    1  A    between atoms: N_8  and  C_11
REMARK    2  A    between atoms: C_15  and  C_17
REMARK    3  A    between atoms: C_22  and  C_23
REMARK    4  A    between atoms: C_23  and  N_24
REMARK                            x       y       z     vdW  Elec       q    Type
REMARK                         _______ _______ _______ _____ _____    ______ ____
ROOT
ATOM      1  C   UNL     1       4.455  -4.878  25.191  0.00  0.00    +0.000 A 
ATOM      2  C   UNL     1       4.607  -5.877  24.243  0.00  0.00    +0.000 A 
ATOM      3  C   UNL     1       4.731  -5.617  22.672  0.00  0.00    +0.000 A 
ATOM      4  C   UNL     1       5.325  -4.176  22.782  0.00  0.00    +0.000 A 
ATOM      5  C   UNL     1       5.786  -3.693  24.009  0.00  0.00    +0.000 A 
ATOM      6  N   UNL     1       5.205  -3.689  25.205  0.00  0.00    +0.000 NA
ATOM      7  O   UNL     1       5.419  -3.494  21.610  0.00  0.00    +0.000 OA
ENDROOT
BRANCH   1  15
ATOM      8  C   UNL     1       6.249  -6.597  30.580  0.00  0.00    +0.000 C 
ATOM      9  N   UNL     1       5.312  -5.809  29.806  0.00  0.00    +0.000 NA
ATOM     10  C   UNL     1       4.994  -6.175  28.552  0.00  0.00    +0.000 C 
ATOM     11  O   UNL     1       5.416  -7.190  28.053  0.00  0.00    +0.000 OA
ATOM     12  N   UNL     1       3.772  -5.687  28.250  0.00  0.00    +0.000 N 
ATOM     13  C   UNL     1       3.530  -4.259  28.369  0.00  0.00    +0.000 C 
ATOM     14  C   UNL     1       3.350  -3.648  26.982  0.00  0.00    +0.000 C 
ATOM     15  N   UNL     1       3.433  -4.726  25.998  0.00  0.00    +0.000 N 
ATOM     16  C   UNL     1       2.487  -5.849  26.188  0.00  0.00    +0.000 C 
ATOM     17  C   UNL     1       2.837  -6.518  27.510  0.00  0.00    +0.000 C 
ENDBRANCH   1  15
BRANCH   5  18
ATOM     18  C   UNL     1       7.229  -3.325  24.049  0.00  0.00    +0.000 A 
ATOM     19  C   UNL     1       7.946  -4.715  23.479  0.00  0.00    +0.000 A 
ATOM     20  C   UNL     1       8.720  -5.323  24.594  0.00  0.00    +0.000 A 
ATOM     21  C   UNL     1       9.121  -4.999  25.951  0.00  0.00    +0.000 A 
ATOM     22  C   UNL     1       8.579  -3.692  26.463  0.00  0.00    +0.000 A 
ATOM     23  C   UNL     1       7.807  -2.904  25.315  0.00  0.00    +0.000 A 
ATOM     24  F   UNL     1      10.431  -5.089  26.074  0.00  0.00    +0.000 F 
BRANCH  23  25
ATOM     25  C   UNL     1       8.440  -1.477  25.396  0.00  0.00    +0.000 C 
BRANCH  25  26
ATOM     26  N   UNL     1       8.469  -0.859  24.151  0.00  0.00    +0.000 NA
ATOM     27  C   UNL     1       9.738  -0.990  23.521  0.00  0.00    +0.000 C 
ATOM     28  C   UNL     1       9.572  -0.728  22.009  0.00  0.00    +0.000 C 
ATOM     29  N   UNL     1       8.877   0.582  21.912  0.00  0.00    +0.000 N 
ATOM     30  C   UNL     1       8.822   1.335  23.178  0.00  0.00    +0.000 C 
ATOM     31  C   UNL     1       8.038   0.485  24.177  0.00  0.00    +0.000 C 
ATOM     32  C   UNL     1       7.808   0.645  21.091  0.00  0.00    +0.000 C 
ATOM     33  O   UNL     1       6.786   1.216  21.394  0.00  0.00    +0.000 OA
ATOM     34  C   UNL     1       7.947  -0.094  19.779  0.00  0.00    +0.000 C 
ENDBRANCH  25  26
ENDBRANCH  23  25
ENDBRANCH   5  18
TORSDOF 4
ENDMDL
MODEL 3
REMARK VINA RESULT:      -7.7      3.081      5.062
REMARK  Name = 
REMARK  4 active torsions:
REMARK  status: ('A' for Active; 'I' for Inactive)
REMARK    1  A    between atoms: N_8  and  C_11
REMARK    2  A    between atoms: C_15  and  C_17
REMARK    3  A    between atoms: C_22  and  C_23
REMARK    4  A    between atoms: C_23  and  N_24
REMARK                            x       y       z     vdW  Elec       q    Type
REMARK                         _______ _______ _______ _____ _____    ______ ____
ROOT
ATOM      1  C   UNL     1       8.195  -1.044  23.360  0.00  0.00    +0.000 A 
ATOM      2  C   UNL     1       9.325  -1.750  22.981  0.00  0.00    +0.000 A 
ATOM      3  C   UNL     1      10.116  -2.762  23.930  0.00  0.00    +0.000 A 
ATOM      4  C   UNL     1       8.898  -3.140  24.833  0.00  0.00    +0.000 A 
ATOM      5  C   UNL     1       7.601  -2.781  24.457  0.00  0.00    +0.000 A 
ATOM      6  N   UNL     1       7.113  -1.611  24.057  0.00  0.00    +0.000 NA
ATOM      7  O   UNL     1       9.196  -3.882  25.932  0.00  0.00    +0.000 OA
ENDROOT
BRANCH   1  15
ATOM      8  C   UNL     1       5.960   0.723  18.155  0.00  0.00    +0.000 C 
ATOM      9  N   UNL     1       6.152   1.024  19.559  0.00  0.00    +0.000 NA
ATOM     10  C   UNL     1       7.207   0.517  20.221  0.00  0.00    +0.000 C 
ATOM     11  O   UNL     1       8.056  -0.140  19.669  0.00  0.00    +0.000 OA
ATOM     12  N   UNL     1       7.496   1.322  21.265  0.00  0.00    +0.000 N 
ATOM     13  C   UNL     1       6.460   1.617  22.241  0.00  0.00    +0.000 C 
ATOM     14  C   UNL     1       6.793   0.940  23.568  0.00  0.00    +0.000 C 
ATOM     15  N   UNL     1       8.079   0.260  23.419  0.00  0.00    +0.000 N 
ATOM     16  C   UNL     1       9.211   1.107  22.980  0.00  0.00    +0.000 C 
ATOM     17  C   UNL     1       8.886   1.608  21.579  0.00  0.00    +0.000 C 
ENDBRANCH   1  15
BRANCH   5  18
ATOM     18  C   UNL     1       6.659  -3.918  24.253  0.00  0.00    +0.000 A 
ATOM     19  C   UNL     1       7.687  -5.113  23.715  0.00  0.00    +0.000 A 
ATOM     20  C   UNL     1       7.350  -5.405  22.297  0.00  0.00    +0.000 A 
ATOM     21  C   UNL     1       6.336  -5.052  21.319  0.00  0.00    +0.000 A 
ATOM     22  C   UNL     1       5.323  -4.053  21.808  0.00  0.00    +0.000 A 
ATOM     23  C   UNL     1       5.531  -3.737  23.355  0.00  0.00    +0.000 A 
ATOM     24  F   UNL     1       5.779  -6.141  20.825  0.00  0.00    +0.000 F 
BRANCH  23  25
ATOM     25  C   UNL     1       4.092  -3.917  23.936  0.00  0.00    +0.000 C 
BRANCH  25  26
ATOM     26  N   UNL     1       4.105  -4.661  25.111  0.00  0.00    +0.000 NA
ATOM     27  C   UNL     1       3.957  -6.054  24.861  0.00  0.00    +0.000 C 
ATOM     28  C   UNL     1       4.449  -6.836  26.096  0.00  0.00    +0.000 C 
ATOM     29  N   UNL     1       3.715  -6.253  27.248  0.00  0.00    +0.000 N 
ATOM     30  C   UNL     1       2.594  -5.372  26.871  0.00  0.00    +0.000 C 
ATOM     31  C   UNL     1       3.182  -4.206  26.078  0.00  0.00    +0.000 C 
ATOM     32  C   UNL     1       4.447  -5.918  28.331  0.00  0.00    +0.000 C 
ATOM     33  O   UNL     1       4.275  -4.887  28.940  0.00  0.00    +0.000 OA
ATOM     34  C   UNL     1       5.540  -6.891  28.708  0.00  0.00    +0.000 C 
ENDBRANCH  25  26
ENDBRANCH  23  25
ENDBRANCH   5  18
TORSDOF 4
ENDMDL
MODEL 4
REMARK VINA RESULT:      -7.7      3.069      4.787
REMARK  Name = 
REMARK  4 active torsions:
REMARK  status: ('A' for Active; 'I' for Inactive)
REMARK    1  A    between atoms: N_8  and  C_11
REMARK    2  A    between atoms: C_15  and  C_17
REMARK    3  A    between atoms: C_22  and  C_23
REMARK    4  A    between atoms: C_23  and  N_24
REMARK                            x       y       z     vdW  Elec       q    Type
REMARK                         _______ _______ _______ _____ _____    ______ ____
ROOT
ATOM      1  C   UNL     1       9.141  -1.362  24.569  0.00  0.00    +0.000 A 
ATOM      2  C   UNL     1       8.765  -0.920  25.827  0.00  0.00    +0.000 A 
ATOM      3  C   UNL     1       7.307  -0.384  26.196  0.00  0.00    +0.000 A 
ATOM      4  C   UNL     1       6.543  -1.190  25.097  0.00  0.00    +0.000 A 
ATOM      5  C   UNL     1       7.186  -2.213  24.396  0.00  0.00    +0.000 A 
ATOM      6  N   UNL     1       8.362  -2.224  23.776  0.00  0.00    +0.000 NA
ATOM      7  O   UNL     1       5.231  -0.870  24.946  0.00  0.00    +0.000 OA
ENDROOT
BRANCH   1  15
ATOM      8  C   UNL     1       6.825   3.536  22.147  0.00  0.00    +0.000 C 
ATOM      9  N   UNL     1       8.026   2.820  22.527  0.00  0.00    +0.000 NA
ATOM     10  C   UNL     1       8.024   1.476  22.576  0.00  0.00    +0.000 C 
ATOM     11  O   UNL     1       7.064   0.823  22.250  0.00  0.00    +0.000 OA
ATOM     12  N   UNL     1       9.286   1.031  22.393  0.00  0.00    +0.000 N 
ATOM     13  C   UNL     1      10.340   1.506  23.273  0.00  0.00    +0.000 C 
ATOM     14  C   UNL     1      10.812   0.368  24.176  0.00  0.00    +0.000 C 
ATOM     15  N   UNL     1      10.071  -0.837  23.809  0.00  0.00    +0.000 N 
ATOM     16  C   UNL     1      10.157  -1.242  22.387  0.00  0.00    +0.000 C 
ATOM     17  C   UNL     1       9.513  -0.138  21.561  0.00  0.00    +0.000 C 
ENDBRANCH   1  15
BRANCH   5  18
ATOM     18  C   UNL     1       6.580  -3.566  24.543  0.00  0.00    +0.000 A 
ATOM     19  C   UNL     1       7.920  -4.548  24.429  0.00  0.00    +0.000 A 
ATOM     20  C   UNL     1       7.811  -5.330  23.169  0.00  0.00    +0.000 A 
ATOM     21  C   UNL     1       6.846  -5.570  22.111  0.00  0.00    +0.000 A 
ATOM     22  C   UNL     1       5.573  -4.778  22.241  0.00  0.00    +0.000 A 
ATOM     23  C   UNL     1       5.539  -3.970  23.612  0.00  0.00    +0.000 A 
ATOM     24  F   UNL     1       6.629  -6.863  21.976  0.00  0.00    +0.000 F 
BRANCH  23  25
ATOM     25  C   UNL     1       4.138  -4.345  24.194  0.00  0.00    +0.000 C 
BRANCH  25  26
ATOM     26  N   UNL     1       4.242  -4.879  25.473  0.00  0.00    +0.000 NA
ATOM     27  C   UNL     1       4.283  -6.301  25.454  0.00  0.00    +0.000 C 
ATOM     28  C   UNL     1       4.866  -6.800  26.792  0.00  0.00    +0.000 C 
ATOM     29  N   UNL     1       4.052  -6.140  27.846  0.00  0.00    +0.000 N 
ATOM     30  C   UNL     1       2.827  -5.489  27.347  0.00  0.00    +0.000 C 
ATOM     31  C   UNL     1       3.260  -4.399  26.367  0.00  0.00    +0.000 C 
ATOM     32  C   UNL     1       4.726  -5.539  28.848  0.00  0.00    +0.000 C 
ATOM     33  O   UNL     1       4.414  -4.455  29.285  0.00  0.00    +0.000 OA
ATOM     34  C   UNL     1       5.937  -6.284  29.362  0.00  0.00    +0.000 C 
ENDBRANCH  25  26
ENDBRANCH  23  25
ENDBRANCH   5  18
TORSDOF 4
ENDMDL
MODEL 5
REMARK VINA RESULT:      -7.5      1.817      6.029
REMARK  Name = 
REMARK  4 active torsions:
REMARK  status: ('A' for Active; 'I' for Inactive)
REMARK    1  A    between atoms: N_8  and  C_11
REMARK    2  A    between atoms: C_15  and  C_17
REMARK    3  A    between atoms: C_22  and  C_23
REMARK    4  A    between atoms: C_23  and  N_24
REMARK                            x       y       z     vdW  Elec       q    Type
REMARK                         _______ _______ _______ _____ _____    ______ ____
ROOT
ATOM      1  C   UNL     1       8.190  -3.211  23.724  0.00  0.00    +0.000 A 
ATOM      2  C   UNL     1       8.983  -2.268  24.357  0.00  0.00    +0.000 A 
ATOM      3  C   UNL     1      10.015  -1.308  23.606  0.00  0.00    +0.000 A 
ATOM      4  C   UNL     1       9.276  -1.302  22.230  0.00  0.00    +0.000 A 
ATOM      5  C   UNL     1       7.979  -1.810  22.122  0.00  0.00    +0.000 A 
ATOM      6  N   UNL     1       7.468  -2.963  22.543  0.00  0.00    +0.000 NA
ATOM      7  O   UNL     1       9.952  -0.714  21.208  0.00  0.00    +0.000 OA
ENDROOT
BRANCH   1  15
ATOM      8  C   UNL     1       3.933  -4.471  27.662  0.00  0.00    +0.000 C 
ATOM      9  N   UNL     1       4.783  -4.958  26.595  0.00  0.00    +0.000 NA
ATOM     10  C   UNL     1       5.980  -4.387  26.370  0.00  0.00    +0.000 C 
ATOM     11  O   UNL     1       6.415  -3.508  27.074  0.00  0.00    +0.000 OA
ATOM     12  N   UNL     1       6.789  -5.288  25.773  0.00  0.00    +0.000 N 
ATOM     13  C   UNL     1       6.358  -5.918  24.536  0.00  0.00    +0.000 C 
ATOM     14  C   UNL     1       7.217  -5.418  23.376  0.00  0.00    +0.000 C 
ATOM     15  N   UNL     1       8.223  -4.507  23.918  0.00  0.00    +0.000 N 
ATOM     16  C   UNL     1       9.083  -5.056  24.991  0.00  0.00    +0.000 C 
ATOM     17  C   UNL     1       8.182  -5.370  26.177  0.00  0.00    +0.000 C 
ENDBRANCH   1  15
BRANCH   5  18
ATOM     18  C   UNL     1       6.948  -0.835  21.668  0.00  0.00    +0.000 A 
ATOM     19  C   UNL     1       5.849  -1.834  20.915  0.00  0.00    +0.000 A 
ATOM     20  C   UNL     1       5.871  -1.526  19.460  0.00  0.00    +0.000 A 
ATOM     21  C   UNL     1       6.459  -0.552  18.557  0.00  0.00    +0.000 A 
ATOM     22  C   UNL     1       7.375   0.438  19.223  0.00  0.00    +0.000 A 
ATOM     23  C   UNL     1       7.356   0.261  20.805  0.00  0.00    +0.000 A 
ATOM     24  F   UNL     1       5.518   0.029  17.837  0.00  0.00    +0.000 F 
BRANCH  23  25
ATOM     25  C   UNL     1       7.118   1.721  21.308  0.00  0.00    +0.000 C 
BRANCH  25  26
ATOM     26  N   UNL     1       6.948   1.766  22.688  0.00  0.00    +0.000 NA
ATOM     27  C   UNL     1       5.905   2.655  23.067  0.00  0.00    +0.000 C 
ATOM     28  C   UNL     1       5.453   2.309  24.502  0.00  0.00    +0.000 C 
ATOM     29  N   UNL     1       6.697   2.306  25.314  0.00  0.00    +0.000 N 
ATOM     30  C   UNL     1       7.869   2.886  24.633  0.00  0.00    +0.000 C 
ATOM     31  C   UNL     1       8.141   2.032  23.394  0.00  0.00    +0.000 C 
ATOM     32  C   UNL     1       6.895   1.242  26.120  0.00  0.00    +0.000 C 
ATOM     33  O   UNL     1       7.971   0.700  26.231  0.00  0.00    +0.000 OA
ATOM     34  C   UNL     1       5.669   0.731  26.843  0.00  0.00    +0.000 C 
ENDBRANCH  25  26
ENDBRANCH  23  25
ENDBRANCH   5  18
TORSDOF 4
ENDMDL
MODEL 6
REMARK VINA RESULT:      -7.4      1.429      1.872
REMARK  Name = 
REMARK  4 active torsions:
REMARK  status: ('A' for Active; 'I' for Inactive)
REMARK    1  A    between atoms: N_8  and  C_11
REMARK    2  A    between atoms: C_15  and  C_17
REMARK    3  A    between atoms: C_22  and  C_23
REMARK    4  A    between atoms: C_23  and  N_24
REMARK                            x       y       z     vdW  Elec       q    Type
REMARK                         _______ _______ _______ _____ _____    ______ ____
ROOT
ATOM      1  C   UNL     1       8.625   2.027  23.616  0.00  0.00    +0.000 A 
ATOM      2  C   UNL     1       9.914   1.758  24.047  0.00  0.00    +0.000 A 
ATOM      3  C   UNL     1      10.323   0.498  24.939  0.00  0.00    +0.000 A 
ATOM      4  C   UNL     1       9.160  -0.432  24.467  0.00  0.00    +0.000 A 
ATOM      5  C   UNL     1       8.379  -0.083  23.362  0.00  0.00    +0.000 A 
ATOM      6  N   UNL     1       7.763   1.059  23.071  0.00  0.00    +0.000 NA
ATOM      7  O   UNL     1       9.033  -1.599  25.152  0.00  0.00    +0.000 OA
ENDROOT
BRANCH   1  15
ATOM      8  C   UNL     1       6.786   1.328  29.215  0.00  0.00    +0.000 C 
ATOM      9  N   UNL     1       7.067   2.253  28.136  0.00  0.00    +0.000 NA
ATOM     10  C   UNL     1       6.971   1.848  26.857  0.00  0.00    +0.000 C 
ATOM     11  O   UNL     1       6.589   0.742  26.561  0.00  0.00    +0.000 OA
ATOM     12  N   UNL     1       6.721   2.921  26.076  0.00  0.00    +0.000 N 
ATOM     13  C   UNL     1       7.631   4.054  26.115  0.00  0.00    +0.000 C 
ATOM     14  C   UNL     1       8.397   4.147  24.798  0.00  0.00    +0.000 C 
ATOM     15  N   UNL     1       7.912   3.085  23.917  0.00  0.00    +0.000 N 
ATOM     16  C   UNL     1       6.454   3.072  23.661  0.00  0.00    +0.000 C 
ATOM     17  C   UNL     1       5.763   2.803  24.990  0.00  0.00    +0.000 C 
ENDBRANCH   1  15
BRANCH   5  18
ATOM     18  C   UNL     1       8.414  -1.045  22.225  0.00  0.00    +0.000 A 
ATOM     19  C   UNL     1       8.963  -0.079  20.985  0.00  0.00    +0.000 A 
ATOM     20  C   UNL     1       7.861   0.071  19.998  0.00  0.00    +0.000 A 
ATOM     21  C   UNL     1       6.535  -0.466  19.749  0.00  0.00    +0.000 A 
ATOM     22  C   UNL     1       6.049  -1.430  20.797  0.00  0.00    +0.000 A 
ATOM     23  C   UNL     1       7.191  -1.741  21.862  0.00  0.00    +0.000 A 
ATOM     24  F   UNL     1       6.465  -0.963  18.529  0.00  0.00    +0.000 F 
BRANCH  23  25
ATOM     25  C   UNL     1       7.190  -3.303  21.916  0.00  0.00    +0.000 C 
BRANCH  25  26
ATOM     26  N   UNL     1       6.124  -3.788  22.666  0.00  0.00    +0.000 NA
ATOM     27  C   UNL     1       6.396  -3.749  24.062  0.00  0.00    +0.000 C 
ATOM     28  C   UNL     1       5.060  -3.832  24.831  0.00  0.00    +0.000 C 
ATOM     29  N   UNL     1       4.369  -5.029  24.288  0.00  0.00    +0.000 N 
ATOM     30  C   UNL     1       5.221  -5.897  23.455  0.00  0.00    +0.000 C 
ATOM     31  C   UNL     1       5.682  -5.065  22.258  0.00  0.00    +0.000 C 
ATOM     32  C   UNL     1       3.077  -4.876  23.928  0.00  0.00    +0.000 C 
ATOM     33  O   UNL     1       2.625  -5.347  22.910  0.00  0.00    +0.000 OA
ATOM     34  C   UNL     1       2.236  -4.029  24.855  0.00  0.00    +0.000 C 
ENDBRANCH  25  26
ENDBRANCH  23  25
ENDBRANCH   5  18
TORSDOF 4
ENDMDL
MODEL 7
REMARK VINA RESULT:      -7.4      3.229      7.134
REMARK  Name = 
REMARK  4 active torsions:
REMARK  status: ('A' for Active; 'I' for Inactive)
REMARK    1  A    between atoms: N_8  and  C_11
REMARK    2  A    between atoms: C_15  and  C_17
REMARK    3  A    between atoms: C_22  and  C_23
REMARK    4  A    between atoms: C_23  and  N_24
REMARK                            x       y       z     vdW  Elec       q    Type
REMARK                         _______ _______ _______ _____ _____    ______ ____
ROOT
ATOM      1  C   UNL     1       8.578  -0.681  23.867  0.00  0.00    +0.000 A 
ATOM      2  C   UNL     1       9.674  -1.158  23.166  0.00  0.00    +0.000 A 
ATOM      3  C   UNL     1       9.716  -1.353  21.582  0.00  0.00    +0.000 A 
ATOM      4  C   UNL     1       8.651  -0.261  21.245  0.00  0.00    +0.000 A 
ATOM      5  C   UNL     1       8.231   0.643  22.224  0.00  0.00    +0.000 A 
ATOM      6  N   UNL     1       7.817   0.433  23.470  0.00  0.00    +0.000 NA
ATOM      7  O   UNL     1       8.243  -0.225  19.949  0.00  0.00    +0.000 OA
ENDROOT
BRANCH   1  15
ATOM      8  C   UNL     1       6.905  -5.837  21.451  0.00  0.00    +0.000 C 
ATOM      9  N   UNL     1       7.175  -5.096  22.666  0.00  0.00    +0.000 NA
ATOM     10  C   UNL     1       7.026  -3.760  22.691  0.00  0.00    +0.000 C 
ATOM     11  O   UNL     1       6.607  -3.143  21.742  0.00  0.00    +0.000 OA
ATOM     12  N   UNL     1       6.779  -3.371  23.960  0.00  0.00    +0.000 N 
ATOM     13  C   UNL     1       7.719  -3.731  25.008  0.00  0.00    +0.000 C 
ATOM     14  C   UNL     1       8.444  -2.482  25.504  0.00  0.00    +0.000 C 
ATOM     15  N   UNL     1       7.903  -1.330  24.784  0.00  0.00    +0.000 N 
ATOM     16  C   UNL     1       6.438  -1.140  24.874  0.00  0.00    +0.000 C 
ATOM     17  C   UNL     1       5.783  -2.341  24.207  0.00  0.00    +0.000 C 
ENDBRANCH   1  15
BRANCH   5  18
ATOM     18  C   UNL     1       8.492   2.079  21.920  0.00  0.00    +0.000 A 
ATOM     19  C   UNL     1      10.155   2.137  21.978  0.00  0.00    +0.000 A 
ATOM     20  C   UNL     1      10.545   2.968  23.149  0.00  0.00    +0.000 A 
ATOM     21  C   UNL     1       9.916   3.818  24.145  0.00  0.00    +0.000 A 
ATOM     22  C   UNL     1       8.415   3.875  24.053  0.00  0.00    +0.000 A 
ATOM     23  C   UNL     1       7.889   3.093  22.770  0.00  0.00    +0.000 A 
ATOM     24  F   UNL     1      10.472   5.014  24.141  0.00  0.00    +0.000 F 
BRANCH  23  25
ATOM     25  C   UNL     1       6.928   4.131  22.108  0.00  0.00    +0.000 C 
BRANCH  25  26
ATOM     26  N   UNL     1       5.730   4.237  22.804  0.00  0.00    +0.000 NA
ATOM     27  C   UNL     1       4.742   3.345  22.301  0.00  0.00    +0.000 C 
ATOM     28  C   UNL     1       3.647   3.160  23.373  0.00  0.00    +0.000 C 
ATOM     29  N   UNL     1       3.223   4.536  23.741  0.00  0.00    +0.000 N 
ATOM     30  C   UNL     1       3.714   5.587  22.832  0.00  0.00    +0.000 C 
ATOM     31  C   UNL     1       5.242   5.558  22.891  0.00  0.00    +0.000 C 
ATOM     32  C   UNL     1       3.153   4.819  25.059  0.00  0.00    +0.000 C 
ATOM     33  O   UNL     1       3.559   5.859  25.524  0.00  0.00    +0.000 OA
ATOM     34  C   UNL     1       2.580   3.727  25.933  0.00  0.00    +0.000 C 
ENDBRANCH  25  26
ENDBRANCH  23  25
ENDBRANCH   5  18
TORSDOF 4
ENDMDL
MODEL 8
REMARK VINA RESULT:      -7.3      2.396      6.402
REMARK  Name = 
REMARK  4 active torsions:
REMARK  status: ('A' for Active; 'I' for Inactive)
REMARK    1  A    between atoms: N_8  and  C_11
REMARK    2  A    between atoms: C_15  and  C_17
REMARK    3  A    between atoms: C_22  and  C_23
REMARK    4  A    between atoms: C_23  and  N_24
REMARK                            x       y       z     vdW  Elec       q    Type
REMARK                         _______ _______ _______ _____ _____    ______ ____
ROOT
ATOM      1  C   UNL     1       8.083  -2.644  24.511  0.00  0.00    +0.000 A 
ATOM      2  C   UNL     1       8.410  -3.581  23.544  0.00  0.00    +0.000 A 
ATOM      3  C   UNL     1       7.419  -4.071  22.392  0.00  0.00    +0.000 A 
ATOM      4  C   UNL     1       6.557  -2.769  22.340  0.00  0.00    +0.000 A 
ATOM      5  C   UNL     1       6.986  -1.611  22.993  0.00  0.00    +0.000 A 
ATOM      6  N   UNL     1       7.420  -1.434  24.238  0.00  0.00    +0.000 NA
ATOM      7  O   UNL     1       5.438  -2.842  21.572  0.00  0.00    +0.000 OA
ENDROOT
BRANCH   1  15
ATOM      8  C   UNL     1       4.249  -7.074  25.451  0.00  0.00    +0.000 C 
ATOM      9  N   UNL     1       5.382  -6.322  25.951  0.00  0.00    +0.000 NA
ATOM     10  C   UNL     1       5.558  -5.041  25.582  0.00  0.00    +0.000 C 
ATOM     11  O   UNL     1       4.762  -4.458  24.887  0.00  0.00    +0.000 OA
ATOM     12  N   UNL     1       6.273  -4.405  26.535  0.00  0.00    +0.000 N 
ATOM     13  C   UNL     1       7.569  -4.937  26.923  0.00  0.00    +0.000 C 
ATOM     14  C   UNL     1       8.675  -3.998  26.449  0.00  0.00    +0.000 C 
ATOM     15  N   UNL     1       8.046  -2.846  25.805  0.00  0.00    +0.000 N 
ATOM     16  C   UNL     1       7.062  -2.104  26.625  0.00  0.00    +0.000 C 
ATOM     17  C   UNL     1       5.906  -3.051  26.914  0.00  0.00    +0.000 C 
ENDBRANCH   1  15
BRANCH   5  18
ATOM     18  C   UNL     1       7.210  -0.429  22.113  0.00  0.00    +0.000 A 
ATOM     19  C   UNL     1       8.552  -0.903  21.249  0.00  0.00    +0.000 A 
ATOM     20  C   UNL     1       9.687  -0.028  21.646  0.00  0.00    +0.000 A 
ATOM     21  C   UNL     1       9.923   1.160  22.447  0.00  0.00    +0.000 A 
ATOM     22  C   UNL     1       8.705   1.682  23.158  0.00  0.00    +0.000 A 
ATOM     23  C   UNL     1       7.402   0.874  22.730  0.00  0.00    +0.000 A 
ATOM     24  F   UNL     1      10.526   2.084  21.725  0.00  0.00    +0.000 F 
BRANCH  23  25
ATOM     25  C   UNL     1       6.397   2.014  22.368  0.00  0.00    +0.000 C 
BRANCH  25  26
ATOM     26  N   UNL     1       5.602   2.360  23.455  0.00  0.00    +0.000 NA
ATOM     27  C   UNL     1       5.848   3.692  23.891  0.00  0.00    +0.000 C 
ATOM     28  C   UNL     1       4.650   4.166  24.741  0.00  0.00    +0.000 C 
ATOM     29  N   UNL     1       4.464   3.117  25.776  0.00  0.00    +0.000 N 
ATOM     30  C   UNL     1       5.577   2.155  25.872  0.00  0.00    +0.000 C 
ATOM     31  C   UNL     1       5.676   1.441  24.524  0.00  0.00    +0.000 C 
ATOM     32  C   UNL     1       3.209   2.655  25.955  0.00  0.00    +0.000 C 
ATOM     33  O   UNL     1       2.962   1.479  26.100  0.00  0.00    +0.000 OA
ATOM     34  C   UNL     1       2.115   3.697  25.909  0.00  0.00    +0.000 C 
ENDBRANCH  25  26
ENDBRANCH  23  25
ENDBRANCH   5  18
TORSDOF 4
ENDMDL
MODEL 9
REMARK VINA RESULT:      -7.3      2.822      7.195
REMARK  Name = 
REMARK  4 active torsions:
REMARK  status: ('A' for Active; 'I' for Inactive)
REMARK    1  A    between atoms: N_8  and  C_11
REMARK    2  A    between atoms: C_15  and  C_17
REMARK    3  A    between atoms: C_22  and  C_23
REMARK    4  A    between atoms: C_23  and  N_24
REMARK                            x       y       z     vdW  Elec       q    Type
REMARK                         _______ _______ _______ _____ _____    ______ ____
ROOT
ATOM      1  C   UNL     1       6.588  -1.499  22.620  0.00  0.00    +0.000 A 
ATOM      2  C   UNL     1       6.786  -1.837  21.291  0.00  0.00    +0.000 A 
ATOM      3  C   UNL     1       6.460  -0.875  20.059  0.00  0.00    +0.000 A 
ATOM      4  C   UNL     1       6.638   0.469  20.836  0.00  0.00    +0.000 A 
ATOM      5  C   UNL     1       7.221   0.478  22.107  0.00  0.00    +0.000 A 
ATOM      6  N   UNL     1       6.960  -0.263  23.179  0.00  0.00    +0.000 NA
ATOM      7  O   UNL     1       6.260   1.587  20.162  0.00  0.00    +0.000 OA
ENDROOT
BRANCH   1  15
ATOM      8  C   UNL     1       9.951  -5.085  25.944  0.00  0.00    +0.000 C 
ATOM      9  N   UNL     1       8.712  -4.343  25.830  0.00  0.00    +0.000 NA
ATOM     10  C   UNL     1       8.183  -4.094  24.619  0.00  0.00    +0.000 C 
ATOM     11  O   UNL     1       8.672  -4.525  23.603  0.00  0.00    +0.000 OA
ATOM     12  N   UNL     1       6.850  -3.921  24.751  0.00  0.00    +0.000 N 
ATOM     13  C   UNL     1       6.353  -2.910  25.669  0.00  0.00    +0.000 C 
ATOM     14  C   UNL     1       5.721  -1.764  24.882  0.00  0.00    +0.000 C 
ATOM     15  N   UNL     1       5.785  -2.102  23.462  0.00  0.00    +0.000 N 
ATOM     16  C   UNL     1       5.167  -3.391  23.074  0.00  0.00    +0.000 C 
ATOM     17  C   UNL     1       5.957  -4.496  23.760  0.00  0.00    +0.000 C 
ENDBRANCH   1  15
BRANCH   5  18
ATOM     18  C   UNL     1       8.472   1.278  22.228  0.00  0.00    +0.000 A 
ATOM     19  C   UNL     1       9.629   0.159  21.803  0.00  0.00    +0.000 A 
ATOM     20  C   UNL     1      10.449  -0.135  23.008  0.00  0.00    +0.000 A 
ATOM     21  C   UNL     1      10.608   0.351  24.367  0.00  0.00    +0.000 A 
ATOM     22  C   UNL     1       9.648   1.442  24.753  0.00  0.00    +0.000 A 
ATOM     23  C   UNL     1       8.777   1.907  23.503  0.00  0.00    +0.000 A 
ATOM     24  F   UNL     1      11.866   0.677  24.591  0.00  0.00    +0.000 F 
BRANCH  23  25
ATOM     25  C   UNL     1       8.932   3.461  23.538  0.00  0.00    +0.000 C 
BRANCH  25  26
ATOM     26  N   UNL     1       7.696   4.098  23.551  0.00  0.00    +0.000 NA
ATOM     27  C   UNL     1       7.750   5.376  22.928  0.00  0.00    +0.000 C 
ATOM     28  C   UNL     1       6.317   5.806  22.550  0.00  0.00    +0.000 C 
ATOM     29  N   UNL     1       5.524   5.672  23.799  0.00  0.00    +0.000 N 
ATOM     30  C   UNL     1       6.335   5.474  25.014  0.00  0.00    +0.000 C 
ATOM     31  C   UNL     1       7.111   4.169  24.834  0.00  0.00    +0.000 C 
ATOM     32  C   UNL     1       4.350   5.014  23.707  0.00  0.00    +0.000 C 
ATOM     33  O   UNL     1       3.987   4.210  24.534  0.00  0.00    +0.000 OA
ATOM     34  C   UNL     1       3.532   5.306  22.469  0.00  0.00    +0.000 C 
ENDBRANCH  25  26
ENDBRANCH  23  25
ENDBRANCH   5  18
TORSDOF 4
ENDMDL
