MODEL 1
REMARK VINA RESULT:      -6.3      0.000      0.000
REMARK  Name = 
REMARK  5 active torsions:
REMARK  status: ('A' for Active; 'I' for Inactive)
REMARK    1  A    between atoms: C_2  and  N_3
REMARK    2  A    between atoms: N_3  and  C_4
REMARK    3  A    between atoms: C_9  and  C_10
REMARK    4  A    between atoms: C_10  and  C_11
REMARK    5  A    between atoms: C_11  and  N_12
REMARK                            x       y       z     vdW  Elec       q    Type
REMARK                         _______ _______ _______ _____ _____    ______ ____
ROOT
ATOM      1  C   UNL     1       9.744  -1.451  21.929  0.00  0.00    +0.000 C 
ENDROOT
BRANCH   1   7
ATOM      2  C   UNL     1       8.661   0.714  21.063  0.00  0.00    +0.000 C 
ATOM      3  C   UNL     1       7.559   1.355  21.866  0.00  0.00    +0.000 C 
ATOM      4  C   UNL     1       8.041   1.825  23.201  0.00  0.00    +0.000 C 
ATOM      5  C   UNL     1       9.426   1.946  23.515  0.00  0.00    +0.000 C 
ATOM      6  C   UNL     1      10.224   0.813  23.019  0.00  0.00    +0.000 C 
ATOM      7  C   UNL     1       9.665   0.064  21.949  0.00  0.00    +0.000 C 
ATOM      8  F   UNL     1       9.562   1.906  24.870  0.00  0.00    +0.000 F 
BRANCH   2   9
ATOM      9  N   UNL     1       8.152  -0.153  20.061  0.00  0.00    +0.000 NA
BRANCH   9  11
ATOM     10  C   UNL     1       6.218   0.087  18.621  0.00  0.00    +0.000 C 
ATOM     11  C   UNL     1       6.715  -0.043  20.054  0.00  0.00    +0.000 C 
ENDBRANCH   9  11
ENDBRANCH   2   9
ENDBRANCH   1   7
BRANCH   1  12
ATOM     12  C   UNL     1       9.219  -1.968  23.254  0.00  0.00    +0.000 C 
BRANCH  12  13
ATOM     13  N   UNL     1       7.818  -1.921  23.354  0.00  0.00    +0.000 NA
ATOM     14  C   UNL     1       7.209  -3.017  22.693  0.00  0.00    +0.000 C 
ATOM     15  C   UNL     1       7.717  -4.331  23.293  0.00  0.00    +0.000 C 
ATOM     16  N   UNL     1       7.718  -4.189  24.741  0.00  0.00    +0.000 N 
ATOM     17  C   UNL     1       7.021  -3.083  25.352  0.00  0.00    +0.000 C 
ATOM     18  C   UNL     1       7.357  -1.779  24.670  0.00  0.00    +0.000 C 
ATOM     19  C   UNL     1       8.306  -5.133  25.504  0.00  0.00    +0.000 C 
ATOM     20  O   UNL     1       7.664  -5.756  26.326  0.00  0.00    +0.000 OA
ATOM     21  C   UNL     1       9.818  -5.084  25.562  0.00  0.00    +0.000 C 
ENDBRANCH  12  13
ENDBRANCH   1  12
TORSDOF 5
ENDMDL
MODEL 2
REMARK VINA RESULT:      -6.3      1.638      2.212
REMARK  Name = 
REMARK  5 active torsions:
REMARK  status: ('A' for Active; 'I' for Inactive)
REMARK    1  A    between atoms: C_2  and  N_3
REMARK    2  A    between atoms: N_3  and  C_4
REMARK    3  A    between atoms: C_9  and  C_10
REMARK    4  A    between atoms: C_10  and  C_11
REMARK    5  A    between atoms: C_11  and  N_12
REMARK                            x       y       z     vdW  Elec       q    Type
REMARK                         _______ _______ _______ _____ _____    ______ ____
ROOT
ATOM      1  C   UNL     1       6.613  -1.458  21.717  0.00  0.00    +0.000 C 
ENDROOT
BRANCH   1   7
ATOM      2  C   UNL     1       8.469   0.031  20.744  0.00  0.00    +0.000 C 
ATOM      3  C   UNL     1       9.197   0.985  21.654  0.00  0.00    +0.000 C 
ATOM      4  C   UNL     1       9.972   0.267  22.712  0.00  0.00    +0.000 C 
ATOM      5  C   UNL     1      10.244  -1.130  22.645  0.00  0.00    +0.000 C 
ATOM      6  C   UNL     1       9.084  -1.916  22.195  0.00  0.00    +0.000 C 
ATOM      7  C   UNL     1       8.089  -1.216  21.463  0.00  0.00    +0.000 C 
ATOM      8  F   UNL     1      10.506  -1.577  23.905  0.00  0.00    +0.000 F 
BRANCH   2   9
ATOM      9  N   UNL     1       7.376   0.655  20.086  0.00  0.00    +0.000 NA
BRANCH   9  11
ATOM     10  C   UNL     1       5.940   0.142  18.203  0.00  0.00    +0.000 C 
ATOM     11  C   UNL     1       7.373   0.229  18.709  0.00  0.00    +0.000 C 
ENDBRANCH   9  11
ENDBRANCH   2   9
ENDBRANCH   1   7
BRANCH   1  12
ATOM     12  C   UNL     1       6.483  -2.305  22.968  0.00  0.00    +0.000 C 
BRANCH  12  13
ATOM     13  N   UNL     1       5.503  -3.306  22.863  0.00  0.00    +0.000 NA
ATOM     14  C   UNL     1       6.043  -4.518  22.366  0.00  0.00    +0.000 C 
ATOM     15  C   UNL     1       7.165  -5.002  23.289  0.00  0.00    +0.000 C 
ATOM     16  N   UNL     1       6.709  -4.849  24.662  0.00  0.00    +0.000 N 
ATOM     17  C   UNL     1       5.313  -4.598  24.930  0.00  0.00    +0.000 C 
ATOM     18  C   UNL     1       4.774  -3.501  24.045  0.00  0.00    +0.000 C 
ATOM     19  C   UNL     1       7.580  -5.018  25.678  0.00  0.00    +0.000 C 
ATOM     20  O   UNL     1       7.399  -5.880  26.515  0.00  0.00    +0.000 OA
ATOM     21  C   UNL     1       8.527  -3.864  25.932  0.00  0.00    +0.000 C 
ENDBRANCH  12  13
ENDBRANCH   1  12
TORSDOF 5
ENDMDL
MODEL 3
REMARK VINA RESULT:      -6.3      2.915      5.656
REMARK  Name = 
REMARK  5 active torsions:
REMARK  status: ('A' for Active; 'I' for Inactive)
REMARK    1  A    between atoms: C_2  and  N_3
REMARK    2  A    between atoms: N_3  and  C_4
REMARK    3  A    between atoms: C_9  and  C_10
REMARK    4  A    between atoms: C_10  and  C_11
REMARK    5  A    between atoms: C_11  and  N_12
REMARK                            x       y       z     vdW  Elec       q    Type
REMARK                         _______ _______ _______ _____ _____    ______ ____
ROOT
ATOM      1  C   UNL     1       6.768   0.544  23.938  0.00  0.00    +0.000 C 
ENDROOT
BRANCH   1   7
ATOM      2  C   UNL     1       8.771  -0.071  25.427  0.00  0.00    +0.000 C 
ATOM      3  C   UNL     1      10.076  -0.456  24.780  0.00  0.00    +0.000 C 
ATOM      4  C   UNL     1      10.671   0.676  24.004  0.00  0.00    +0.000 C 
ATOM      5  C   UNL     1      10.222   2.021  24.150  0.00  0.00    +0.000 C 
ATOM      6  C   UNL     1       8.756   2.128  24.227  0.00  0.00    +0.000 C 
ATOM      7  C   UNL     1       8.055   0.959  24.626  0.00  0.00    +0.000 C 
ATOM      8  F   UNL     1      10.567   2.711  23.027  0.00  0.00    +0.000 F 
BRANCH   2   9
ATOM      9  N   UNL     1       7.972  -1.206  25.725  0.00  0.00    +0.000 NA
BRANCH   9  11
ATOM     10  C   UNL     1       8.576  -3.487  26.274  0.00  0.00    +0.000 C 
ATOM     11  C   UNL     1       8.649  -2.379  25.233  0.00  0.00    +0.000 C 
ENDBRANCH   9  11
ENDBRANCH   2   9
ENDBRANCH   1   7
BRANCH   1  12
ATOM     12  C   UNL     1       6.982   0.642  22.440  0.00  0.00    +0.000 C 
BRANCH  12  13
ATOM     13  N   UNL     1       7.881  -0.317  21.943  0.00  0.00    +0.000 NA
ATOM     14  C   UNL     1       7.234  -1.548  21.668  0.00  0.00    +0.000 C 
ATOM     15  C   UNL     1       6.113  -1.327  20.648  0.00  0.00    +0.000 C 
ATOM     16  N   UNL     1       6.628  -0.458  19.601  0.00  0.00    +0.000 N 
ATOM     17  C   UNL     1       8.047  -0.214  19.506  0.00  0.00    +0.000 C 
ATOM     18  C   UNL     1       8.634   0.137  20.851  0.00  0.00    +0.000 C 
ATOM     19  C   UNL     1       5.783   0.052  18.681  0.00  0.00    +0.000 C 
ATOM     20  O   UNL     1       5.929  -0.192  17.501  0.00  0.00    +0.000 OA
ATOM     21  C   UNL     1       4.933   1.218  19.143  0.00  0.00    +0.000 C 
ENDBRANCH  12  13
ENDBRANCH   1  12
TORSDOF 5
ENDMDL
MODEL 4
REMARK VINA RESULT:      -5.9      1.837      2.646
REMARK  Name = 
REMARK  5 active torsions:
REMARK  status: ('A' for Active; 'I' for Inactive)
REMARK    1  A    between atoms: C_2  and  N_3
REMARK    2  A    between atoms: N_3  and  C_4
REMARK    3  A    between atoms: C_9  and  C_10
REMARK    4  A    between atoms: C_10  and  C_11
REMARK    5  A    between atoms: C_11  and  N_12
REMARK                            x       y       z     vdW  Elec       q    Type
REMARK                         _______ _______ _______ _____ _____    ______ ____
ROOT
ATOM      1  C   UNL     1       7.066  -1.193  23.412  0.00  0.00    +0.000 C 
ENDROOT
BRANCH   1   7
ATOM      2  C   UNL     1       8.844  -0.573  21.662  0.00  0.00    +0.000 C 
ATOM      3  C   UNL     1       9.375   0.836  21.622  0.00  0.00    +0.000 C 
ATOM      4  C   UNL     1      10.112   1.192  22.874  0.00  0.00    +0.000 C 
ATOM      5  C   UNL     1      10.534   0.210  23.817  0.00  0.00    +0.000 C 
ATOM      6  C   UNL     1       9.512  -0.820  24.064  0.00  0.00    +0.000 C 
ATOM      7  C   UNL     1       8.527  -0.991  23.055  0.00  0.00    +0.000 C 
ATOM      8  F   UNL     1      10.715   0.822  25.021  0.00  0.00    +0.000 F 
BRANCH   2   9
ATOM      9  N   UNL     1       7.763  -0.758  20.760  0.00  0.00    +0.000 NA
BRANCH   9  11
ATOM     10  C   UNL     1       6.692   0.105  18.766  0.00  0.00    +0.000 C 
ATOM     11  C   UNL     1       7.760   0.339  19.825  0.00  0.00    +0.000 C 
ENDBRANCH   9  11
ENDBRANCH   2   9
ENDBRANCH   1   7
BRANCH   1  12
ATOM     12  C   UNL     1       6.894  -2.616  23.905  0.00  0.00    +0.000 C 
BRANCH  12  13
ATOM     13  N   UNL     1       7.651  -3.552  23.180  0.00  0.00    +0.000 NA
ATOM     14  C   UNL     1       8.301  -4.476  24.036  0.00  0.00    +0.000 C 
ATOM     15  C   UNL     1       7.263  -5.213  24.886  0.00  0.00    +0.000 C 
ATOM     16  N   UNL     1       6.160  -5.590  24.014  0.00  0.00    +0.000 N 
ATOM     17  C   UNL     1       6.321  -5.514  22.582  0.00  0.00    +0.000 C 
ATOM     18  C   UNL     1       6.924  -4.194  22.168  0.00  0.00    +0.000 C 
ATOM     19  C   UNL     1       5.023  -6.080  24.549  0.00  0.00    +0.000 C 
ATOM     20  O   UNL     1       4.631  -7.193  24.264  0.00  0.00    +0.000 OA
ATOM     21  C   UNL     1       4.097  -5.058  25.174  0.00  0.00    +0.000 C 
ENDBRANCH  12  13
ENDBRANCH   1  12
TORSDOF 5
ENDMDL
MODEL 5
REMARK VINA RESULT:      -5.9      2.331      3.753
REMARK  Name = 
REMARK  5 active torsions:
REMARK  status: ('A' for Active; 'I' for Inactive)
REMARK    1  A    between atoms: C_2  and  N_3
REMARK    2  A    between atoms: N_3  and  C_4
REMARK    3  A    between atoms: C_9  and  C_10
REMARK    4  A    between atoms: C_10  and  C_11
REMARK    5  A    between atoms: C_11  and  N_12
REMARK                            x       y       z     vdW  Elec       q    Type
REMARK                         _______ _______ _______ _____ _____    ______ ____
ROOT
ATOM      1  C   UNL     1       9.770  -2.361  23.296  0.00  0.00    +0.000 C 
ENDROOT
BRANCH   1   7
ATOM      2  C   UNL     1       9.386   0.134  22.811  0.00  0.00    +0.000 C 
ATOM      3  C   UNL     1       9.322   0.603  21.381  0.00  0.00    +0.000 C 
ATOM      4  C   UNL     1       8.154   0.018  20.653  0.00  0.00    +0.000 C 
ATOM      5  C   UNL     1       7.074  -0.622  21.329  0.00  0.00    +0.000 C 
ATOM      6  C   UNL     1       7.525  -1.497  22.423  0.00  0.00    +0.000 C 
ATOM      7  C   UNL     1       8.814  -1.232  22.957  0.00  0.00    +0.000 C 
ATOM      8  F   UNL     1       6.449  -1.452  20.448  0.00  0.00    +0.000 F 
BRANCH   2   9
ATOM      9  N   UNL     1      10.694   0.256  23.351  0.00  0.00    +0.000 NA
BRANCH   9  11
ATOM     10  C   UNL     1       9.551   2.036  24.532  0.00  0.00    +0.000 C 
ATOM     11  C   UNL     1      10.600   0.936  24.618  0.00  0.00    +0.000 C 
ENDBRANCH   9  11
ENDBRANCH   2   9
ENDBRANCH   1   7
BRANCH   1  12
ATOM     12  C   UNL     1       9.241  -3.073  24.526  0.00  0.00    +0.000 C 
BRANCH  12  13
ATOM     13  N   UNL     1       9.162  -4.467  24.372  0.00  0.00    +0.000 NA
ATOM     14  C   UNL     1       9.457  -5.145  25.581  0.00  0.00    +0.000 C 
ATOM     15  C   UNL     1       8.482  -4.700  26.675  0.00  0.00    +0.000 C 
ATOM     16  N   UNL     1       7.147  -4.668  26.096  0.00  0.00    +0.000 N 
ATOM     17  C   UNL     1       6.905  -5.294  24.819  0.00  0.00    +0.000 C 
ATOM     18  C   UNL     1       7.953  -4.899  23.808  0.00  0.00    +0.000 C 
ATOM     19  C   UNL     1       6.131  -4.120  26.793  0.00  0.00    +0.000 C 
ATOM     20  O   UNL     1       5.159  -4.781  27.098  0.00  0.00    +0.000 OA
ATOM     21  C   UNL     1       6.089  -2.606  26.815  0.00  0.00    +0.000 C 
ENDBRANCH  12  13
ENDBRANCH   1  12
TORSDOF 5
ENDMDL
MODEL 6
REMARK VINA RESULT:      -5.8      3.333      6.607
REMARK  Name = 
REMARK  5 active torsions:
REMARK  status: ('A' for Active; 'I' for Inactive)
REMARK    1  A    between atoms: C_2  and  N_3
REMARK    2  A    between atoms: N_3  and  C_4
REMARK    3  A    between atoms: C_9  and  C_10
REMARK    4  A    between atoms: C_10  and  C_11
REMARK    5  A    between atoms: C_11  and  N_12
REMARK                            x       y       z     vdW  Elec       q    Type
REMARK                         _______ _______ _______ _____ _____    ______ ____
ROOT
ATOM      1  C   UNL     1       6.840  -2.506  23.459  0.00  0.00    +0.000 C 
ENDROOT
BRANCH   1   7
ATOM      2  C   UNL     1       6.784  -4.860  24.491  0.00  0.00    +0.000 C 
ATOM      3  C   UNL     1       5.615  -5.763  24.197  0.00  0.00    +0.000 C 
ATOM      4  C   UNL     1       5.532  -6.117  22.747  0.00  0.00    +0.000 C 
ATOM      5  C   UNL     1       6.613  -5.897  21.844  0.00  0.00    +0.000 C 
ATOM      6  C   UNL     1       7.271  -4.597  22.048  0.00  0.00    +0.000 C 
ATOM      7  C   UNL     1       7.104  -3.995  23.323  0.00  0.00    +0.000 C 
ATOM      8  F   UNL     1       6.110  -5.843  20.579  0.00  0.00    +0.000 F 
BRANCH   2   9
ATOM      9  N   UNL     1       6.603  -4.133  25.697  0.00  0.00    +0.000 NA
BRANCH   9  11
ATOM     10  C   UNL     1       8.827  -4.785  26.401  0.00  0.00    +0.000 C 
ATOM     11  C   UNL     1       7.343  -4.794  26.741  0.00  0.00    +0.000 C 
ENDBRANCH   9  11
ENDBRANCH   2   9
ENDBRANCH   1   7
BRANCH   1  12
ATOM     12  C   UNL     1       8.075  -1.764  22.987  0.00  0.00    +0.000 C 
BRANCH  12  13
ATOM     13  N   UNL     1       7.817  -0.869  21.935  0.00  0.00    +0.000 NA
ATOM     14  C   UNL     1       7.093   0.266  22.379  0.00  0.00    +0.000 C 
ATOM     15  C   UNL     1       7.881   0.986  23.477  0.00  0.00    +0.000 C 
ATOM     16  N   UNL     1       9.272   1.057  23.053  0.00  0.00    +0.000 N 
ATOM     17  C   UNL     1       9.619   0.764  21.684  0.00  0.00    +0.000 C 
ATOM     18  C   UNL     1       8.964  -0.511  21.213  0.00  0.00    +0.000 C 
ATOM     19  C   UNL     1      10.215   1.469  23.925  0.00  0.00    +0.000 C 
ATOM     20  O   UNL     1      10.886   2.454  23.695  0.00  0.00    +0.000 OA
ATOM     21  C   UNL     1      10.647   0.449  24.958  0.00  0.00    +0.000 C 
ENDBRANCH  12  13
ENDBRANCH   1  12
TORSDOF 5
ENDMDL
MODEL 7
REMARK VINA RESULT:      -5.8      2.239      3.647
REMARK  Name = 
REMARK  5 active torsions:
REMARK  status: ('A' for Active; 'I' for Inactive)
REMARK    1  A    between atoms: C_2  and  N_3
REMARK    2  A    between atoms: N_3  and  C_4
REMARK    3  A    between atoms: C_9  and  C_10
REMARK    4  A    between atoms: C_10  and  C_11
REMARK    5  A    between atoms: C_11  and  N_12
REMARK                            x       y       z     vdW  Elec       q    Type
REMARK                         _______ _______ _______ _____ _____    ______ ____
ROOT
ATOM      1  C   UNL     1       6.468  -1.417  23.394  0.00  0.00    +0.000 C 
ENDROOT
BRANCH   1   7
ATOM      2  C   UNL     1       7.936   0.688  23.550  0.00  0.00    +0.000 C 
ATOM      3  C   UNL     1       9.362   0.626  23.069  0.00  0.00    +0.000 C 
ATOM      4  C   UNL     1       9.445   0.363  21.599  0.00  0.00    +0.000 C 
ATOM      5  C   UNL     1       8.319   0.495  20.734  0.00  0.00    +0.000 C 
ATOM      6  C   UNL     1       7.086  -0.059  21.315  0.00  0.00    +0.000 C 
ATOM      7  C   UNL     1       7.051  -0.183  22.730  0.00  0.00    +0.000 C 
ATOM      8  F   UNL     1       8.548  -0.250  19.617  0.00  0.00    +0.000 F 
BRANCH   2   9
ATOM      9  N   UNL     1       7.835   0.437  24.944  0.00  0.00    +0.000 NA
BRANCH   9  11
ATOM     10  C   UNL     1       8.911  -0.847  26.695  0.00  0.00    +0.000 C 
ATOM     11  C   UNL     1       9.107  -0.056  25.409  0.00  0.00    +0.000 C 
ENDBRANCH   9  11
ENDBRANCH   2   9
ENDBRANCH   1   7
BRANCH   1  12
ATOM     12  C   UNL     1       7.226  -2.628  22.886  0.00  0.00    +0.000 C 
BRANCH  12  13
ATOM     13  N   UNL     1       6.398  -3.589  22.283  0.00  0.00    +0.000 NA
ATOM     14  C   UNL     1       7.074  -4.821  22.098  0.00  0.00    +0.000 C 
ATOM     15  C   UNL     1       7.565  -5.350  23.449  0.00  0.00    +0.000 C 
ATOM     16  N   UNL     1       6.487  -5.182  24.411  0.00  0.00    +0.000 N 
ATOM     17  C   UNL     1       5.155  -4.877  23.949  0.00  0.00    +0.000 C 
ATOM     18  C   UNL     1       5.169  -3.758  22.937  0.00  0.00    +0.000 C 
ATOM     19  C   UNL     1       6.726  -5.387  25.723  0.00  0.00    +0.000 C 
ATOM     20  O   UNL     1       6.121  -6.242  26.338  0.00  0.00    +0.000 OA
ATOM     21  C   UNL     1       7.456  -4.272  26.442  0.00  0.00    +0.000 C 
ENDBRANCH  12  13
ENDBRANCH   1  12
TORSDOF 5
ENDMDL
MODEL 8
REMARK VINA RESULT:      -5.7      2.049      3.262
REMARK  Name = 
REMARK  5 active torsions:
REMARK  status: ('A' for Active; 'I' for Inactive)
REMARK    1  A    between atoms: C_2  and  N_3
REMARK    2  A    between atoms: N_3  and  C_4
REMARK    3  A    between atoms: C_9  and  C_10
REMARK    4  A    between atoms: C_10  and  C_11
REMARK    5  A    between atoms: C_11  and  N_12
REMARK                            x       y       z     vdW  Elec       q    Type
REMARK                         _______ _______ _______ _____ _____    ______ ____
ROOT
ATOM      1  C   UNL     1       7.838   1.169  21.228  0.00  0.00    +0.000 C 
ENDROOT
BRANCH   1   7
ATOM      2  C   UNL     1       8.062   3.292  22.661  0.00  0.00    +0.000 C 
ATOM      3  C   UNL     1       8.180   3.159  24.156  0.00  0.00    +0.000 C 
ATOM      4  C   UNL     1       9.431   2.445  24.558  0.00  0.00    +0.000 C 
ATOM      5  C   UNL     1      10.512   2.230  23.653  0.00  0.00    +0.000 C 
ATOM      6  C   UNL     1      10.061   1.822  22.313  0.00  0.00    +0.000 C 
ATOM      7  C   UNL     1       8.725   2.155  21.964  0.00  0.00    +0.000 C 
ATOM      8  F   UNL     1      11.250   1.180  24.111  0.00  0.00    +0.000 F 
BRANCH   2   9
ATOM      9  N   UNL     1       6.718   3.495  22.250  0.00  0.00    +0.000 NA
BRANCH   9  11
ATOM     10  C   UNL     1       7.250   5.841  21.959  0.00  0.00    +0.000 C 
ATOM     11  C   UNL     1       6.327   4.830  22.625  0.00  0.00    +0.000 C 
ENDBRANCH   9  11
ENDBRANCH   2   9
ENDBRANCH   1   7
BRANCH   1  12
ATOM     12  C   UNL     1       7.479   0.051  22.187  0.00  0.00    +0.000 C 
BRANCH  12  13
ATOM     13  N   UNL     1       7.667  -1.231  21.642  0.00  0.00    +0.000 NA
ATOM     14  C   UNL     1       9.028  -1.625  21.688  0.00  0.00    +0.000 C 
ATOM     15  C   UNL     1       9.522  -1.612  23.137  0.00  0.00    +0.000 C 
ATOM     16  N   UNL     1       8.496  -2.230  23.963  0.00  0.00    +0.000 N 
ATOM     17  C   UNL     1       7.426  -2.973  23.341  0.00  0.00    +0.000 C 
ATOM     18  C   UNL     1       6.819  -2.201  22.194  0.00  0.00    +0.000 C 
ATOM     19  C   UNL     1       8.595  -2.170  25.307  0.00  0.00    +0.000 C 
ATOM     20  O   UNL     1       8.668  -3.184  25.971  0.00  0.00    +0.000 OA
ATOM     21  C   UNL     1       8.213  -0.846  25.936  0.00  0.00    +0.000 C 
ENDBRANCH  12  13
ENDBRANCH   1  12
TORSDOF 5
ENDMDL
MODEL 9
REMARK VINA RESULT:      -5.7      1.941      2.541
REMARK  Name = 
REMARK  5 active torsions:
REMARK  status: ('A' for Active; 'I' for Inactive)
REMARK    1  A    between atoms: C_2  and  N_3
REMARK    2  A    between atoms: N_3  and  C_4
REMARK    3  A    between atoms: C_9  and  C_10
REMARK    4  A    between atoms: C_10  and  C_11
REMARK    5  A    between atoms: C_11  and  N_12
REMARK                            x       y       z     vdW  Elec       q    Type
REMARK                         _______ _______ _______ _____ _____    ______ ____
ROOT
ATOM      1  C   UNL     1       6.916  -1.166  22.589  0.00  0.00    +0.000 C 
ENDROOT
BRANCH   1   7
ATOM      2  C   UNL     1       8.440   0.291  21.117  0.00  0.00    +0.000 C 
ATOM      3  C   UNL     1       9.016   1.560  21.688  0.00  0.00    +0.000 C 
ATOM      4  C   UNL     1       9.944   1.290  22.829  0.00  0.00    +0.000 C 
ATOM      5  C   UNL     1      10.460  -0.010  23.102  0.00  0.00    +0.000 C 
ATOM      6  C   UNL     1       9.445  -1.067  22.967  0.00  0.00    +0.000 C 
ATOM      7  C   UNL     1       8.315  -0.763  22.161  0.00  0.00    +0.000 C 
ATOM      8  F   UNL     1      10.841  -0.054  24.409  0.00  0.00    +0.000 F 
BRANCH   2   9
ATOM      9  N   UNL     1       7.230   0.528  20.411  0.00  0.00    +0.000 NA
BRANCH   9  11
ATOM     10  C   UNL     1       6.141   0.373  18.253  0.00  0.00    +0.000 C 
ATOM     11  C   UNL     1       7.430   0.156  19.033  0.00  0.00    +0.000 C 
ENDBRANCH   9  11
ENDBRANCH   2   9
ENDBRANCH   1   7
BRANCH   1  12
ATOM     12  C   UNL     1       6.992  -2.553  23.198  0.00  0.00    +0.000 C 
BRANCH  12  13
ATOM     13  N   UNL     1       6.518  -2.607  24.519  0.00  0.00    +0.000 NA
ATOM     14  C   UNL     1       5.101  -2.618  24.567  0.00  0.00    +0.000 C 
ATOM     15  C   UNL     1       4.566  -3.822  23.787  0.00  0.00    +0.000 C 
ATOM     16  N   UNL     1       5.374  -4.978  24.144  0.00  0.00    +0.000 N 
ATOM     17  C   UNL     1       6.254  -4.913  25.286  0.00  0.00    +0.000 C 
ATOM     18  C   UNL     1       7.078  -3.649  25.271  0.00  0.00    +0.000 C 
ATOM     19  C   UNL     1       5.239  -6.127  23.450  0.00  0.00    +0.000 C 
ATOM     20  O   UNL     1       4.892  -7.150  24.004  0.00  0.00    +0.000 OA
ATOM     21  C   UNL     1       5.908  -6.158  22.092  0.00  0.00    +0.000 C 
ENDBRANCH  12  13
ENDBRANCH   1  12
TORSDOF 5
ENDMDL
