MODEL 1
REMARK VINA RESULT:      -7.1      0.000      0.000
REMARK  Name = 
REMARK  9 active torsions:
REMARK  status: ('A' for Active; 'I' for Inactive)
REMARK    1  A    between atoms: C_2  and  N_3
REMARK    2  A    between atoms: N_3  and  C_4
REMARK    3  A    between atoms: C_9  and  C_10
REMARK    4  A    between atoms: C_10  and  C_11
REMARK    5  A    between atoms: N_13  and  C_14
REMARK    6  A    between atoms: N_13  and  C_26
REMARK    7  A    between atoms: C_19  and  N_20
REMARK    8  A    between atoms: C_26  and  C_27
REMARK    9  A    between atoms: C_32  and  C_33
REMARK                            x       y       z     vdW  Elec       q    Type
REMARK                         _______ _______ _______ _____ _____    ______ ____
ROOT
ATOM      1  C   UNL     1       9.164  -2.199  24.306  0.00  0.00    +0.000 C 
ATOM      2  O   UNL     1       9.978  -2.621  23.524  0.00  0.00    +0.000 OA
ATOM      3  N   UNL     1       8.802  -0.891  24.460  0.00  0.00    +0.000 N 
ENDROOT
BRANCH   3   4
ATOM      4  C   UNL     1       9.581  -0.252  23.504  0.00  0.00    +0.000 A 
ATOM      5  C   UNL     1      10.844   0.460  24.295  0.00  0.00    +0.000 A 
ATOM      6  C   UNL     1      10.830   1.926  23.981  0.00  0.00    +0.000 A 
ATOM      7  C   UNL     1      10.062   2.845  23.078  0.00  0.00    +0.000 A 
ATOM      8  C   UNL     1       8.894   2.149  22.407  0.00  0.00    +0.000 A 
ATOM      9  C   UNL     1       9.040   0.640  22.474  0.00  0.00    +0.000 A 
ATOM     10  C   UNL     1       7.689   2.777  22.019  0.00  0.00    +0.000 C 
BRANCH   9  11
ATOM     11  N   UNL     1       9.076   0.164  21.130  0.00  0.00    +0.000 NA
ATOM     12  C   UNL     1       7.906  -0.288  20.721  0.00  0.00    +0.000 C 
ATOM     13  O   UNL     1       7.490  -1.393  21.027  0.00  0.00    +0.000 OA
ATOM     14  N   UNL     1       7.514   0.314  19.587  0.00  0.00    +0.000 NA
ATOM     15  C   UNL     1       6.517  -0.306  18.736  0.00  0.00    +0.000 C 
ENDBRANCH   9  11
ENDBRANCH   3   4
BRANCH   1  16
ATOM     16  C   UNL     1       8.746  -3.109  25.467  0.00  0.00    +0.000 C 
BRANCH  16  22
ATOM     17  C   UNL     1       6.517  -4.034  24.545  0.00  0.00    +0.000 A 
ATOM     18  C   UNL     1       5.140  -4.251  24.643  0.00  0.00    +0.000 A 
ATOM     19  C   UNL     1       4.357  -4.586  26.016  0.00  0.00    +0.000 A 
ATOM     20  C   UNL     1       5.312  -3.889  26.975  0.00  0.00    +0.000 A 
ATOM     21  C   UNL     1       6.588  -3.415  26.800  0.00  0.00    +0.000 A 
ATOM     22  C   UNL     1       7.315  -3.224  25.542  0.00  0.00    +0.000 A 
ATOM     23  F   UNL     1       5.173  -4.505  28.153  0.00  0.00    +0.000 F 
BRANCH  17  24
ATOM     24  N   UNL     1       7.283  -4.968  23.858  0.00  0.00    +0.000 NA
BRANCH  24  26
ATOM     25  C   UNL     1       6.637  -6.121  21.810  0.00  0.00    +0.000 C 
ATOM     26  C   UNL     1       7.247  -4.865  22.394  0.00  0.00    +0.000 C 
ENDBRANCH  24  26
ENDBRANCH  17  24
ENDBRANCH  16  22
ENDBRANCH   1  16
BRANCH   3  27
ATOM     27  C   UNL     1       8.723  -0.382  25.768  0.00  0.00    +0.000 C 
BRANCH  27  28
ATOM     28  C   UNL     1       7.516   0.422  26.081  0.00  0.00    +0.000 A 
ATOM     29  C   UNL     1       7.445   0.389  27.799  0.00  0.00    +0.000 A 
ATOM     30  N   UNL     1       6.175  -0.016  28.054  0.00  0.00    +0.000 NA
ATOM     31  C   UNL     1       4.991  -0.141  27.556  0.00  0.00    +0.000 A 
ATOM     32  C   UNL     1       4.913  -0.259  25.978  0.00  0.00    +0.000 A 
ATOM     33  C   UNL     1       6.212   0.424  25.492  0.00  0.00    +0.000 A 
BRANCH  33  34
ATOM     34  C   UNL     1       5.760   1.662  24.846  0.00  0.00    +0.000 C 
ATOM     35  O   UNL     1       4.642   1.837  24.477  0.00  0.00    +0.000 OA
ATOM     36  O   UNL     1       6.550   2.674  25.251  0.00  0.00    +0.000 OA
ENDBRANCH  33  34
ENDBRANCH  27  28
ENDBRANCH   3  27
TORSDOF 9
ENDMDL
MODEL 2
REMARK VINA RESULT:      -7.0      1.670      2.355
REMARK  Name = 
REMARK  9 active torsions:
REMARK  status: ('A' for Active; 'I' for Inactive)
REMARK    1  A    between atoms: C_2  and  N_3
REMARK    2  A    between atoms: N_3  and  C_4
REMARK    3  A    between atoms: C_9  and  C_10
REMARK    4  A    between atoms: C_10  and  C_11
REMARK    5  A    between atoms: N_13  and  C_14
REMARK    6  A    between atoms: N_13  and  C_26
REMARK    7  A    between atoms: C_19  and  N_20
REMARK    8  A    between atoms: C_26  and  C_27
REMARK    9  A    between atoms: C_32  and  C_33
REMARK                            x       y       z     vdW  Elec       q    Type
REMARK                         _______ _______ _______ _____ _____    ______ ____
ROOT
ATOM      1  C   UNL     1       9.410  -1.904  23.305  0.00  0.00    +0.000 C 
ATOM      2  O   UNL     1      10.041  -2.000  22.284  0.00  0.00    +0.000 OA
ATOM      3  N   UNL     1       9.011  -0.739  23.896  0.00  0.00    +0.000 N 
ENDROOT
BRANCH   3   4
ATOM      4  C   UNL     1       9.500   0.222  23.020  0.00  0.00    +0.000 A 
ATOM      5  C   UNL     1      10.696   1.043  23.807  0.00  0.00    +0.000 A 
ATOM      6  C   UNL     1      10.345   2.501  23.809  0.00  0.00    +0.000 A 
ATOM      7  C   UNL     1       9.286   3.372  23.201  0.00  0.00    +0.000 A 
ATOM      8  C   UNL     1       8.195   2.565  22.525  0.00  0.00    +0.000 A 
ATOM      9  C   UNL     1       8.648   1.141  22.260  0.00  0.00    +0.000 A 
ATOM     10  C   UNL     1       6.846   2.967  22.402  0.00  0.00    +0.000 C 
BRANCH   9  11
ATOM     11  N   UNL     1       8.583   0.938  20.850  0.00  0.00    +0.000 NA
ATOM     12  C   UNL     1       7.506   0.268  20.483  0.00  0.00    +0.000 C 
ATOM     13  O   UNL     1       7.424  -0.944  20.592  0.00  0.00    +0.000 OA
ATOM     14  N   UNL     1       6.805   0.933  19.553  0.00  0.00    +0.000 NA
ATOM     15  C   UNL     1       5.863   0.229  18.703  0.00  0.00    +0.000 C 
ENDBRANCH   9  11
ENDBRANCH   3   4
BRANCH   1  16
ATOM     16  C   UNL     1       9.337  -3.131  24.222  0.00  0.00    +0.000 C 
BRANCH  16  22
ATOM     17  C   UNL     1       7.555  -4.895  24.845  0.00  0.00    +0.000 A 
ATOM     18  C   UNL     1       6.426  -5.663  24.547  0.00  0.00    +0.000 A 
ATOM     19  C   UNL     1       5.168  -5.149  23.673  0.00  0.00    +0.000 A 
ATOM     20  C   UNL     1       5.908  -4.122  22.829  0.00  0.00    +0.000 A 
ATOM     21  C   UNL     1       7.154  -3.561  22.966  0.00  0.00    +0.000 A 
ATOM     22  C   UNL     1       8.242  -3.986  23.851  0.00  0.00    +0.000 A 
ATOM     23  F   UNL     1       4.998  -3.215  22.461  0.00  0.00    +0.000 F 
BRANCH  17  24
ATOM     24  N   UNL     1       7.768  -4.524  26.167  0.00  0.00    +0.000 NA
BRANCH  24  26
ATOM     25  C   UNL     1       6.050  -4.629  27.893  0.00  0.00    +0.000 C 
ATOM     26  C   UNL     1       7.146  -5.388  27.178  0.00  0.00    +0.000 C 
ENDBRANCH  24  26
ENDBRANCH  17  24
ENDBRANCH  16  22
ENDBRANCH   1  16
BRANCH   3  27
ATOM     27  C   UNL     1       9.211  -0.604  25.281  0.00  0.00    +0.000 C 
BRANCH  27  28
ATOM     28  C   UNL     1       8.109   0.040  26.038  0.00  0.00    +0.000 A 
ATOM     29  C   UNL     1       7.360  -1.275  26.855  0.00  0.00    +0.000 A 
ATOM     30  N   UNL     1       6.049  -1.141  26.531  0.00  0.00    +0.000 NA
ATOM     31  C   UNL     1       5.154  -0.327  26.084  0.00  0.00    +0.000 A 
ATOM     32  C   UNL     1       5.690   0.870  25.194  0.00  0.00    +0.000 A 
ATOM     33  C   UNL     1       7.160   1.036  25.646  0.00  0.00    +0.000 A 
BRANCH  33  34
ATOM     34  C   UNL     1       7.184   2.317  26.362  0.00  0.00    +0.000 C 
ATOM     35  O   UNL     1       6.865   3.350  25.865  0.00  0.00    +0.000 OA
ATOM     36  O   UNL     1       7.043   2.079  27.680  0.00  0.00    +0.000 OA
ENDBRANCH  33  34
ENDBRANCH  27  28
ENDBRANCH   3  27
TORSDOF 9
ENDMDL
MODEL 3
REMARK VINA RESULT:      -7.0      1.762      2.513
REMARK  Name = 
REMARK  9 active torsions:
REMARK  status: ('A' for Active; 'I' for Inactive)
REMARK    1  A    between atoms: C_2  and  N_3
REMARK    2  A    between atoms: N_3  and  C_4
REMARK    3  A    between atoms: C_9  and  C_10
REMARK    4  A    between atoms: C_10  and  C_11
REMARK    5  A    between atoms: N_13  and  C_14
REMARK    6  A    between atoms: N_13  and  C_26
REMARK    7  A    between atoms: C_19  and  N_20
REMARK    8  A    between atoms: C_26  and  C_27
REMARK    9  A    between atoms: C_32  and  C_33
REMARK                            x       y       z     vdW  Elec       q    Type
REMARK                         _______ _______ _______ _____ _____    ______ ____
ROOT
ATOM      1  C   UNL     1       9.489  -2.207  23.682  0.00  0.00    +0.000 C 
ATOM      2  O   UNL     1      10.389  -2.377  22.900  0.00  0.00    +0.000 OA
ATOM      3  N   UNL     1       8.884  -1.016  23.964  0.00  0.00    +0.000 N 
ENDROOT
BRANCH   3   4
ATOM      4  C   UNL     1       9.557  -0.135  23.126  0.00  0.00    +0.000 A 
ATOM      5  C   UNL     1      10.790   0.529  24.000  0.00  0.00    +0.000 A 
ATOM      6  C   UNL     1      10.633   2.021  23.978  0.00  0.00    +0.000 A 
ATOM      7  C   UNL     1       9.745   3.018  23.295  0.00  0.00    +0.000 A 
ATOM      8  C   UNL     1       8.610   2.355  22.540  0.00  0.00    +0.000 A 
ATOM      9  C   UNL     1       8.890   0.881  22.307  0.00  0.00    +0.000 A 
ATOM     10  C   UNL     1       7.338   2.929  22.318  0.00  0.00    +0.000 C 
BRANCH   9  11
ATOM     11  N   UNL     1       8.902   0.677  20.896  0.00  0.00    +0.000 NA
ATOM     12  C   UNL     1       7.836   0.026  20.469  0.00  0.00    +0.000 C 
ATOM     13  O   UNL     1       7.725  -1.184  20.574  0.00  0.00    +0.000 OA
ATOM     14  N   UNL     1       7.201   0.701  19.499  0.00  0.00    +0.000 NA
ATOM     15  C   UNL     1       6.297   0.013  18.598  0.00  0.00    +0.000 C 
ENDBRANCH   9  11
ENDBRANCH   3   4
BRANCH   1  16
ATOM     16  C   UNL     1       9.215  -3.311  24.711  0.00  0.00    +0.000 C 
BRANCH  16  22
ATOM     17  C   UNL     1       7.163  -4.789  25.240  0.00  0.00    +0.000 A 
ATOM     18  C   UNL     1       6.056  -5.545  24.845  0.00  0.00    +0.000 A 
ATOM     19  C   UNL     1       5.087  -5.178  23.605  0.00  0.00    +0.000 A 
ATOM     20  C   UNL     1       6.101  -4.412  22.769  0.00  0.00    +0.000 A 
ATOM     21  C   UNL     1       7.336  -3.900  23.083  0.00  0.00    +0.000 A 
ATOM     22  C   UNL     1       8.147  -4.169  24.274  0.00  0.00    +0.000 A 
ATOM     23  F   UNL     1       5.397  -3.565  22.010  0.00  0.00    +0.000 F 
BRANCH  17  24
ATOM     24  N   UNL     1       7.112  -4.137  26.466  0.00  0.00    +0.000 NA
BRANCH  24  26
ATOM     25  C   UNL     1       5.224  -4.030  28.003  0.00  0.00    +0.000 C 
ATOM     26  C   UNL     1       6.405  -4.852  27.537  0.00  0.00    +0.000 C 
ENDBRANCH  24  26
ENDBRANCH  17  24
ENDBRANCH  16  22
ENDBRANCH   1  16
BRANCH   3  27
ATOM     27  C   UNL     1       8.673  -0.690  25.315  0.00  0.00    +0.000 C 
BRANCH  27  28
ATOM     28  C   UNL     1       7.327  -0.166  25.655  0.00  0.00    +0.000 A 
ATOM     29  C   UNL     1       7.614   1.498  25.982  0.00  0.00    +0.000 A 
ATOM     30  N   UNL     1       7.037   1.684  27.196  0.00  0.00    +0.000 NA
ATOM     31  C   UNL     1       6.193   1.203  28.045  0.00  0.00    +0.000 A 
ATOM     32  C   UNL     1       5.928  -0.356  27.948  0.00  0.00    +0.000 A 
ATOM     33  C   UNL     1       6.294  -0.703  26.487  0.00  0.00    +0.000 A 
BRANCH  33  34
ATOM     34  C   UNL     1       5.011  -1.030  25.852  0.00  0.00    +0.000 C 
ATOM     35  O   UNL     1       3.997  -0.457  26.095  0.00  0.00    +0.000 OA
ATOM     36  O   UNL     1       5.253  -1.586  24.650  0.00  0.00    +0.000 OA
ENDBRANCH  33  34
ENDBRANCH  27  28
ENDBRANCH   3  27
TORSDOF 9
ENDMDL
MODEL 4
REMARK VINA RESULT:      -7.0      2.575      6.873
REMARK  Name = 
REMARK  9 active torsions:
REMARK  status: ('A' for Active; 'I' for Inactive)
REMARK    1  A    between atoms: C_2  and  N_3
REMARK    2  A    between atoms: N_3  and  C_4
REMARK    3  A    between atoms: C_9  and  C_10
REMARK    4  A    between atoms: C_10  and  C_11
REMARK    5  A    between atoms: N_13  and  C_14
REMARK    6  A    between atoms: N_13  and  C_26
REMARK    7  A    between atoms: C_19  and  N_20
REMARK    8  A    between atoms: C_26  and  C_27
REMARK    9  A    between atoms: C_32  and  C_33
REMARK                            x       y       z     vdW  Elec       q    Type
REMARK                         _______ _______ _______ _____ _____    ______ ____
ROOT
ATOM      1  C   UNL     1       8.096  -2.008  25.540  0.00  0.00    +0.000 C 
ATOM      2  O   UNL     1       7.992  -2.525  26.623  0.00  0.00    +0.000 OA
ATOM      3  N   UNL     1       7.796  -2.590  24.341  0.00  0.00    +0.000 N 
ENDROOT
BRANCH   3   4
ATOM      4  C   UNL     1       7.352  -3.849  24.725  0.00  0.00    +0.000 A 
ATOM      5  C   UNL     1       8.236  -4.960  23.883  0.00  0.00    +0.000 A 
ATOM      6  C   UNL     1       7.289  -5.834  23.116  0.00  0.00    +0.000 A 
ATOM      7  C   UNL     1       5.804  -6.017  23.018  0.00  0.00    +0.000 A 
ATOM      8  C   UNL     1       5.041  -4.949  23.778  0.00  0.00    +0.000 A 
ATOM      9  C   UNL     1       5.938  -4.235  24.774  0.00  0.00    +0.000 A 
ATOM     10  C   UNL     1       3.757  -4.468  23.435  0.00  0.00    +0.000 C 
BRANCH   9  11
ATOM     11  N   UNL     1       5.374  -4.444  26.067  0.00  0.00    +0.000 NA
ATOM     12  C   UNL     1       5.884  -5.497  26.677  0.00  0.00    +0.000 C 
ATOM     13  O   UNL     1       5.534  -6.636  26.416  0.00  0.00    +0.000 OA
ATOM     14  N   UNL     1       6.370  -5.179  27.886  0.00  0.00    +0.000 NA
ATOM     15  C   UNL     1       6.568  -6.206  28.891  0.00  0.00    +0.000 C 
ENDBRANCH   9  11
ENDBRANCH   3   4
BRANCH   1  16
ATOM     16  C   UNL     1       8.955  -0.743  25.427  0.00  0.00    +0.000 C 
BRANCH  16  22
ATOM     17  C   UNL     1       8.644   1.816  25.265  0.00  0.00    +0.000 A 
ATOM     18  C   UNL     1       7.866   2.972  25.381  0.00  0.00    +0.000 A 
ATOM     19  C   UNL     1       6.298   3.066  25.006  0.00  0.00    +0.000 A 
ATOM     20  C   UNL     1       5.936   1.610  25.258  0.00  0.00    +0.000 A 
ATOM     21  C   UNL     1       6.721   0.495  25.426  0.00  0.00    +0.000 A 
ATOM     22  C   UNL     1       8.166   0.437  25.658  0.00  0.00    +0.000 A 
ATOM     23  F   UNL     1       4.872   1.351  24.492  0.00  0.00    +0.000 F 
BRANCH  17  24
ATOM     24  N   UNL     1       9.656   1.797  24.313  0.00  0.00    +0.000 NA
BRANCH  24  26
ATOM     25  C   UNL     1      11.245   3.427  23.442  0.00  0.00    +0.000 C 
ATOM     26  C   UNL     1       9.791   3.015  23.504  0.00  0.00    +0.000 C 
ENDBRANCH  24  26
ENDBRANCH  17  24
ENDBRANCH  16  22
ENDBRANCH   1  16
BRANCH   3  27
ATOM     27  C   UNL     1       8.724  -2.453  23.294  0.00  0.00    +0.000 C 
BRANCH  27  28
ATOM     28  C   UNL     1       8.217  -1.813  22.055  0.00  0.00    +0.000 A 
ATOM     29  C   UNL     1       9.606  -1.032  21.409  0.00  0.00    +0.000 A 
ATOM     30  N   UNL     1       9.183   0.240  21.200  0.00  0.00    +0.000 NA
ATOM     31  C   UNL     1       8.145   0.996  21.069  0.00  0.00    +0.000 A 
ATOM     32  C   UNL     1       6.812   0.462  21.737  0.00  0.00    +0.000 A 
ATOM     33  C   UNL     1       7.021  -1.069  21.807  0.00  0.00    +0.000 A 
BRANCH  33  34
ATOM     34  C   UNL     1       6.070  -1.617  20.831  0.00  0.00    +0.000 C 
ATOM     35  O   UNL     1       5.952  -1.195  19.725  0.00  0.00    +0.000 OA
ATOM     36  O   UNL     1       5.828  -2.905  21.140  0.00  0.00    +0.000 OA
ENDBRANCH  33  34
ENDBRANCH  27  28
ENDBRANCH   3  27
TORSDOF 9
ENDMDL
MODEL 5
REMARK VINA RESULT:      -6.9      2.858      7.292
REMARK  Name = 
REMARK  9 active torsions:
REMARK  status: ('A' for Active; 'I' for Inactive)
REMARK    1  A    between atoms: C_2  and  N_3
REMARK    2  A    between atoms: N_3  and  C_4
REMARK    3  A    between atoms: C_9  and  C_10
REMARK    4  A    between atoms: C_10  and  C_11
REMARK    5  A    between atoms: N_13  and  C_14
REMARK    6  A    between atoms: N_13  and  C_26
REMARK    7  A    between atoms: C_19  and  N_20
REMARK    8  A    between atoms: C_26  and  C_27
REMARK    9  A    between atoms: C_32  and  C_33
REMARK                            x       y       z     vdW  Elec       q    Type
REMARK                         _______ _______ _______ _____ _____    ______ ____
ROOT
ATOM      1  C   UNL     1       7.406  -0.908  25.944  0.00  0.00    +0.000 C 
ATOM      2  O   UNL     1       7.060  -0.751  27.087  0.00  0.00    +0.000 OA
ATOM      3  N   UNL     1       7.227  -2.040  25.200  0.00  0.00    +0.000 N 
ENDROOT
BRANCH   3   4
ATOM      4  C   UNL     1       6.560  -2.876  26.086  0.00  0.00    +0.000 A 
ATOM      5  C   UNL     1       7.647  -4.004  26.610  0.00  0.00    +0.000 A 
ATOM      6  C   UNL     1       7.101  -5.365  26.299  0.00  0.00    +0.000 A 
ATOM      7  C   UNL     1       5.822  -5.935  25.760  0.00  0.00    +0.000 A 
ATOM      8  C   UNL     1       4.879  -4.859  25.260  0.00  0.00    +0.000 A 
ATOM      9  C   UNL     1       5.261  -3.494  25.804  0.00  0.00    +0.000 A 
ATOM     10  C   UNL     1       3.942  -5.022  24.214  0.00  0.00    +0.000 C 
BRANCH   9  11
ATOM     11  N   UNL     1       4.147  -3.017  26.555  0.00  0.00    +0.000 NA
ATOM     12  C   UNL     1       4.367  -3.037  27.856  0.00  0.00    +0.000 C 
ATOM     13  O   UNL     1       4.287  -4.059  28.516  0.00  0.00    +0.000 OA
ATOM     14  N   UNL     1       4.159  -1.833  28.410  0.00  0.00    +0.000 NA
ATOM     15  C   UNL     1       3.912  -1.714  29.834  0.00  0.00    +0.000 C 
ENDBRANCH   9  11
ENDBRANCH   3   4
BRANCH   1  16
ATOM     16  C   UNL     1       8.436   0.069  25.365  0.00  0.00    +0.000 C 
BRANCH  16  22
ATOM     17  C   UNL     1       8.541   2.518  24.548  0.00  0.00    +0.000 A 
ATOM     18  C   UNL     1       7.972   3.635  23.930  0.00  0.00    +0.000 A 
ATOM     19  C   UNL     1       6.978   3.576  22.658  0.00  0.00    +0.000 A 
ATOM     20  C   UNL     1       6.397   2.193  22.913  0.00  0.00    +0.000 A 
ATOM     21  C   UNL     1       6.802   1.177  23.743  0.00  0.00    +0.000 A 
ATOM     22  C   UNL     1       7.791   1.235  24.823  0.00  0.00    +0.000 A 
ATOM     23  F   UNL     1       6.002   1.729  21.723  0.00  0.00    +0.000 F 
BRANCH  17  24
ATOM     24  N   UNL     1       9.916   2.340  24.449  0.00  0.00    +0.000 NA
BRANCH  24  26
ATOM     25  C   UNL     1      10.162   1.725  22.104  0.00  0.00    +0.000 C 
ATOM     26  C   UNL     1      10.518   2.737  23.170  0.00  0.00    +0.000 C 
ENDBRANCH  24  26
ENDBRANCH  17  24
ENDBRANCH  16  22
ENDBRANCH   1  16
BRANCH   3  27
ATOM     27  C   UNL     1       8.321  -2.518  24.459  0.00  0.00    +0.000 C 
BRANCH  27  28
ATOM     28  C   UNL     1       8.034  -2.919  23.059  0.00  0.00    +0.000 A 
ATOM     29  C   UNL     1       8.696  -1.634  22.128  0.00  0.00    +0.000 A 
ATOM     30  N   UNL     1       7.671  -1.274  21.316  0.00  0.00    +0.000 NA
ATOM     31  C   UNL     1       6.541  -1.649  20.818  0.00  0.00    +0.000 A 
ATOM     32  C   UNL     1       5.748  -2.741  21.647  0.00  0.00    +0.000 A 
ATOM     33  C   UNL     1       6.850  -3.457  22.463  0.00  0.00    +0.000 A 
BRANCH  33  34
ATOM     34  C   UNL     1       6.935  -4.798  21.873  0.00  0.00    +0.000 C 
ATOM     35  O   UNL     1       7.441  -5.724  22.424  0.00  0.00    +0.000 OA
ATOM     36  O   UNL     1       5.928  -4.948  20.992  0.00  0.00    +0.000 OA
ENDBRANCH  33  34
ENDBRANCH  27  28
ENDBRANCH   3  27
TORSDOF 9
ENDMDL
MODEL 6
REMARK VINA RESULT:      -6.8      3.009      7.413
REMARK  Name = 
REMARK  9 active torsions:
REMARK  status: ('A' for Active; 'I' for Inactive)
REMARK    1  A    between atoms: C_2  and  N_3
REMARK    2  A    between atoms: N_3  and  C_4
REMARK    3  A    between atoms: C_9  and  C_10
REMARK    4  A    between atoms: C_10  and  C_11
REMARK    5  A    between atoms: N_13  and  C_14
REMARK    6  A    between atoms: N_13  and  C_26
REMARK    7  A    between atoms: C_19  and  N_20
REMARK    8  A    between atoms: C_26  and  C_27
REMARK    9  A    between atoms: C_32  and  C_33
REMARK                            x       y       z     vdW  Elec       q    Type
REMARK                         _______ _______ _______ _____ _____    ______ ____
ROOT
ATOM      1  C   UNL     1       6.365  -1.429  24.279  0.00  0.00    +0.000 C 
ATOM      2  O   UNL     1       6.114  -0.379  24.814  0.00  0.00    +0.000 OA
ATOM      3  N   UNL     1       6.037  -2.669  24.749  0.00  0.00    +0.000 N 
ENDROOT
BRANCH   3   4
ATOM      4  C   UNL     1       5.363  -2.371  25.926  0.00  0.00    +0.000 A 
ATOM      5  C   UNL     1       6.290  -2.923  27.176  0.00  0.00    +0.000 A 
ATOM      6  C   UNL     1       5.467  -3.878  27.988  0.00  0.00    +0.000 A 
ATOM      7  C   UNL     1       4.042  -4.347  28.014  0.00  0.00    +0.000 A 
ATOM      8  C   UNL     1       3.248  -3.842  26.825  0.00  0.00    +0.000 A 
ATOM      9  C   UNL     1       3.946  -2.673  26.153  0.00  0.00    +0.000 A 
ATOM     10  C   UNL     1       2.158  -4.517  26.231  0.00  0.00    +0.000 C 
BRANCH   9  11
ATOM     11  N   UNL     1       3.056  -1.562  26.220  0.00  0.00    +0.000 NA
ATOM     12  C   UNL     1       3.413  -0.681  27.136  0.00  0.00    +0.000 C 
ATOM     13  O   UNL     1       3.186  -0.847  28.323  0.00  0.00    +0.000 OA
ATOM     14  N   UNL     1       3.537   0.549  26.616  0.00  0.00    +0.000 NA
ATOM     15  C   UNL     1       3.485   1.717  27.475  0.00  0.00    +0.000 C 
ENDBRANCH   9  11
ENDBRANCH   3   4
BRANCH   1  16
ATOM     16  C   UNL     1       7.433  -1.436  23.178  0.00  0.00    +0.000 C 
BRANCH  16  22
ATOM     17  C   UNL     1       7.767   0.042  21.086  0.00  0.00    +0.000 A 
ATOM     18  C   UNL     1       7.343   0.542  19.851  0.00  0.00    +0.000 A 
ATOM     19  C   UNL     1       6.534  -0.311  18.743  0.00  0.00    +0.000 A 
ATOM     20  C   UNL     1       5.859  -1.293  19.689  0.00  0.00    +0.000 A 
ATOM     21  C   UNL     1       6.096  -1.593  21.008  0.00  0.00    +0.000 A 
ATOM     22  C   UNL     1       6.926  -0.856  21.965  0.00  0.00    +0.000 A 
ATOM     23  F   UNL     1       5.613  -2.394  18.972  0.00  0.00    +0.000 F 
BRANCH  17  24
ATOM     24  N   UNL     1       9.132  -0.096  21.307  0.00  0.00    +0.000 NA
BRANCH  24  26
ATOM     25  C   UNL     1      10.326   0.818  23.225  0.00  0.00    +0.000 C 
ATOM     26  C   UNL     1       9.815   1.095  21.828  0.00  0.00    +0.000 C 
ENDBRANCH  24  26
ENDBRANCH  17  24
ENDBRANCH  16  22
ENDBRANCH   1  16
BRANCH   3  27
ATOM     27  C   UNL     1       7.031  -3.662  24.731  0.00  0.00    +0.000 C 
BRANCH  27  28
ATOM     28  C   UNL     1       6.596  -5.011  24.293  0.00  0.00    +0.000 A 
ATOM     29  C   UNL     1       7.725  -5.418  23.061  0.00  0.00    +0.000 A 
ATOM     30  N   UNL     1       6.937  -5.778  22.018  0.00  0.00    +0.000 NA
ATOM     31  C   UNL     1       5.751  -6.153  21.675  0.00  0.00    +0.000 A 
ATOM     32  C   UNL     1       4.581  -5.728  22.656  0.00  0.00    +0.000 A 
ATOM     33  C   UNL     1       5.292  -5.531  24.015  0.00  0.00    +0.000 A 
BRANCH  33  34
ATOM     34  C   UNL     1       4.811  -6.639  24.849  0.00  0.00    +0.000 C 
ATOM     35  O   UNL     1       4.259  -7.597  24.408  0.00  0.00    +0.000 OA
ATOM     36  O   UNL     1       5.552  -6.689  25.972  0.00  0.00    +0.000 OA
ENDBRANCH  33  34
ENDBRANCH  27  28
ENDBRANCH   3  27
TORSDOF 9
ENDMDL
MODEL 7
REMARK VINA RESULT:      -6.7      2.177      3.080
REMARK  Name = 
REMARK  9 active torsions:
REMARK  status: ('A' for Active; 'I' for Inactive)
REMARK    1  A    between atoms: C_2  and  N_3
REMARK    2  A    between atoms: N_3  and  C_4
REMARK    3  A    between atoms: C_9  and  C_10
REMARK    4  A    between atoms: C_10  and  C_11
REMARK    5  A    between atoms: N_13  and  C_14
REMARK    6  A    between atoms: N_13  and  C_26
REMARK    7  A    between atoms: C_19  and  N_20
REMARK    8  A    between atoms: C_26  and  C_27
REMARK    9  A    between atoms: C_32  and  C_33
REMARK                            x       y       z     vdW  Elec       q    Type
REMARK                         _______ _______ _______ _____ _____    ______ ____
ROOT
ATOM      1  C   UNL     1       6.016  -2.572  23.130  0.00  0.00    +0.000 C 
ATOM      2  O   UNL     1       6.377  -3.321  22.258  0.00  0.00    +0.000 OA
ATOM      3  N   UNL     1       6.702  -1.482  23.586  0.00  0.00    +0.000 N 
ENDROOT
BRANCH   3   4
ATOM      4  C   UNL     1       7.839  -1.491  22.788  0.00  0.00    +0.000 A 
ATOM      5  C   UNL     1       9.108  -1.937  23.747  0.00  0.00    +0.000 A 
ATOM      6  C   UNL     1      10.150  -0.860  23.682  0.00  0.00    +0.000 A 
ATOM      7  C   UNL     1      10.367   0.407  22.909  0.00  0.00    +0.000 A 
ATOM      8  C   UNL     1       9.159   0.788  22.077  0.00  0.00    +0.000 A 
ATOM      9  C   UNL     1       8.219  -0.391  21.897  0.00  0.00    +0.000 A 
ATOM     10  C   UNL     1       8.788   2.110  21.741  0.00  0.00    +0.000 C 
BRANCH   9  11
ATOM     11  N   UNL     1       8.123  -0.637  20.496  0.00  0.00    +0.000 NA
ATOM     12  C   UNL     1       6.942  -0.314  20.005  0.00  0.00    +0.000 C 
ATOM     13  O   UNL     1       5.965  -1.034  20.129  0.00  0.00    +0.000 OA
ATOM     14  N   UNL     1       7.052   0.538  18.975  0.00  0.00    +0.000 NA
ATOM     15  C   UNL     1       5.966   0.682  18.023  0.00  0.00    +0.000 C 
ENDBRANCH   9  11
ENDBRANCH   3   4
BRANCH   1  16
ATOM     16  C   UNL     1       4.890  -3.041  24.058  0.00  0.00    +0.000 C 
BRANCH  16  22
ATOM     17  C   UNL     1       5.080  -5.499  24.829  0.00  0.00    +0.000 A 
ATOM     18  C   UNL     1       4.741  -6.851  24.725  0.00  0.00    +0.000 A 
ATOM     19  C   UNL     1       3.272  -7.405  24.346  0.00  0.00    +0.000 A 
ATOM     20  C   UNL     1       2.805  -6.210  23.526  0.00  0.00    +0.000 A 
ATOM     21  C   UNL     1       3.308  -4.938  23.408  0.00  0.00    +0.000 A 
ATOM     22  C   UNL     1       4.608  -4.437  23.862  0.00  0.00    +0.000 A 
ATOM     23  F   UNL     1       1.470  -6.207  23.598  0.00  0.00    +0.000 F 
BRANCH  17  24
ATOM     24  N   UNL     1       5.404  -4.996  26.082  0.00  0.00    +0.000 NA
BRANCH  24  26
ATOM     25  C   UNL     1       7.789  -4.592  26.387  0.00  0.00    +0.000 C 
ATOM     26  C   UNL     1       6.636  -5.526  26.681  0.00  0.00    +0.000 C 
ENDBRANCH  24  26
ENDBRANCH  17  24
ENDBRANCH  16  22
ENDBRANCH   1  16
BRANCH   3  27
ATOM     27  C   UNL     1       6.811  -1.310  24.977  0.00  0.00    +0.000 C 
BRANCH  27  28
ATOM     28  C   UNL     1       6.593   0.068  25.481  0.00  0.00    +0.000 A 
ATOM     29  C   UNL     1       5.006   0.010  26.141  0.00  0.00    +0.000 A 
ATOM     30  N   UNL     1       4.382   1.060  25.552  0.00  0.00    +0.000 NA
ATOM     31  C   UNL     1       4.560   2.170  24.919  0.00  0.00    +0.000 A 
ATOM     32  C   UNL     1       5.935   2.312  24.145  0.00  0.00    +0.000 A 
ATOM     33  C   UNL     1       6.879   1.339  24.889  0.00  0.00    +0.000 A 
BRANCH  33  34
ATOM     34  C   UNL     1       7.839   2.210  25.579  0.00  0.00    +0.000 C 
ATOM     35  O   UNL     1       8.707   2.799  25.018  0.00  0.00    +0.000 OA
ATOM     36  O   UNL     1       7.270   2.669  26.709  0.00  0.00    +0.000 OA
ENDBRANCH  33  34
ENDBRANCH  27  28
ENDBRANCH   3  27
TORSDOF 9
ENDMDL
MODEL 8
REMARK VINA RESULT:      -6.6      2.862      6.935
REMARK  Name = 
REMARK  9 active torsions:
REMARK  status: ('A' for Active; 'I' for Inactive)
REMARK    1  A    between atoms: C_2  and  N_3
REMARK    2  A    between atoms: N_3  and  C_4
REMARK    3  A    between atoms: C_9  and  C_10
REMARK    4  A    between atoms: C_10  and  C_11
REMARK    5  A    between atoms: N_13  and  C_14
REMARK    6  A    between atoms: N_13  and  C_26
REMARK    7  A    between atoms: C_19  and  N_20
REMARK    8  A    between atoms: C_26  and  C_27
REMARK    9  A    between atoms: C_32  and  C_33
REMARK                            x       y       z     vdW  Elec       q    Type
REMARK                         _______ _______ _______ _____ _____    ______ ____
ROOT
ATOM      1  C   UNL     1       6.571   0.032  25.709  0.00  0.00    +0.000 C 
ATOM      2  O   UNL     1       5.582  -0.283  26.322  0.00  0.00    +0.000 OA
ATOM      3  N   UNL     1       7.427  -0.822  25.073  0.00  0.00    +0.000 N 
ENDROOT
BRANCH   3   4
ATOM      4  C   UNL     1       6.845  -2.060  25.313  0.00  0.00    +0.000 A 
ATOM      5  C   UNL     1       7.779  -2.834  26.433  0.00  0.00    +0.000 A 
ATOM      6  C   UNL     1       8.221  -4.145  25.853  0.00  0.00    +0.000 A 
ATOM      7  C   UNL     1       7.945  -4.942  24.614  0.00  0.00    +0.000 A 
ATOM      8  C   UNL     1       7.116  -4.171  23.606  0.00  0.00    +0.000 A 
ATOM      9  C   UNL     1       6.427  -2.983  24.253  0.00  0.00    +0.000 A 
ATOM     10  C   UNL     1       7.179  -4.338  22.204  0.00  0.00    +0.000 C 
BRANCH   9  11
ATOM     11  N   UNL     1       5.023  -3.172  24.084  0.00  0.00    +0.000 NA
ATOM     12  C   UNL     1       4.415  -3.490  25.211  0.00  0.00    +0.000 C 
ATOM     13  O   UNL     1       4.442  -4.619  25.671  0.00  0.00    +0.000 OA
ATOM     14  N   UNL     1       3.399  -2.654  25.476  0.00  0.00    +0.000 NA
ATOM     15  C   UNL     1       2.343  -3.050  26.388  0.00  0.00    +0.000 C 
ENDBRANCH   9  11
ENDBRANCH   3   4
BRANCH   1  16
ATOM     16  C   UNL     1       7.137   1.439  25.936  0.00  0.00    +0.000 C 
BRANCH  16  22
ATOM     17  C   UNL     1       6.891   3.848  25.037  0.00  0.00    +0.000 A 
ATOM     18  C   UNL     1       6.295   4.794  24.198  0.00  0.00    +0.000 A 
ATOM     19  C   UNL     1       5.817   4.507  22.682  0.00  0.00    +0.000 A 
ATOM     20  C   UNL     1       5.547   3.017  22.828  0.00  0.00    +0.000 A 
ATOM     21  C   UNL     1       5.899   2.122  23.809  0.00  0.00    +0.000 A 
ATOM     22  C   UNL     1       6.436   2.410  25.142  0.00  0.00    +0.000 A 
ATOM     23  F   UNL     1       5.690   2.490  21.608  0.00  0.00    +0.000 F 
BRANCH  17  24
ATOM     24  N   UNL     1       8.221   4.030  25.395  0.00  0.00    +0.000 NA
BRANCH  24  26
ATOM     25  C   UNL     1       9.833   5.595  24.449  0.00  0.00    +0.000 C 
ATOM     26  C   UNL     1       8.687   5.422  25.422  0.00  0.00    +0.000 C 
ENDBRANCH  24  26
ENDBRANCH  17  24
ENDBRANCH  16  22
ENDBRANCH   1  16
BRANCH   3  27
ATOM     27  C   UNL     1       8.806  -0.635  25.270  0.00  0.00    +0.000 C 
BRANCH  27  28
ATOM     28  C   UNL     1       9.590  -0.262  24.066  0.00  0.00    +0.000 A 
ATOM     29  C   UNL     1      10.838   0.740  24.694  0.00  0.00    +0.000 A 
ATOM     30  N   UNL     1      10.766   1.854  23.923  0.00  0.00    +0.000 NA
ATOM     31  C   UNL     1      10.324   2.337  22.811  0.00  0.00    +0.000 A 
ATOM     32  C   UNL     1       9.079   1.589  22.178  0.00  0.00    +0.000 A 
ATOM     33  C   UNL     1       9.168   0.162  22.767  0.00  0.00    +0.000 A 
BRANCH  33  34
ATOM     34  C   UNL     1       9.528  -0.688  21.625  0.00  0.00    +0.000 C 
ATOM     35  O   UNL     1       9.995  -1.776  21.741  0.00  0.00    +0.000 OA
ATOM     36  O   UNL     1       8.767  -0.340  20.570  0.00  0.00    +0.000 OA
ENDBRANCH  33  34
ENDBRANCH  27  28
ENDBRANCH   3  27
TORSDOF 9
ENDMDL
MODEL 9
REMARK VINA RESULT:      -6.4      2.732      6.649
REMARK  Name = 
REMARK  9 active torsions:
REMARK  status: ('A' for Active; 'I' for Inactive)
REMARK    1  A    between atoms: C_2  and  N_3
REMARK    2  A    between atoms: N_3  and  C_4
REMARK    3  A    between atoms: C_9  and  C_10
REMARK    4  A    between atoms: C_10  and  C_11
REMARK    5  A    between atoms: N_13  and  C_14
REMARK    6  A    between atoms: N_13  and  C_26
REMARK    7  A    between atoms: C_19  and  N_20
REMARK    8  A    between atoms: C_26  and  C_27
REMARK    9  A    between atoms: C_32  and  C_33
REMARK                            x       y       z     vdW  Elec       q    Type
REMARK                         _______ _______ _______ _____ _____    ______ ____
ROOT
ATOM      1  C   UNL     1       6.662  -1.060  26.561  0.00  0.00    +0.000 C 
ATOM      2  O   UNL     1       5.870  -1.684  27.221  0.00  0.00    +0.000 OA
ATOM      3  N   UNL     1       7.578  -1.587  25.696  0.00  0.00    +0.000 N 
ENDROOT
BRANCH   3   4
ATOM      4  C   UNL     1       7.324  -2.950  25.788  0.00  0.00    +0.000 A 
ATOM      5  C   UNL     1       8.633  -3.646  26.515  0.00  0.00    +0.000 A 
ATOM      6  C   UNL     1       9.169  -4.708  25.602  0.00  0.00    +0.000 A 
ATOM      7  C   UNL     1       8.763  -5.345  24.306  0.00  0.00    +0.000 A 
ATOM      8  C   UNL     1       7.581  -4.644  23.666  0.00  0.00    +0.000 A 
ATOM      9  C   UNL     1       6.851  -3.769  24.668  0.00  0.00    +0.000 A 
ATOM     10  C   UNL     1       7.336  -4.570  22.276  0.00  0.00    +0.000 C 
BRANCH   9  11
ATOM     11  N   UNL     1       5.512  -4.255  24.749  0.00  0.00    +0.000 NA
ATOM     12  C   UNL     1       5.300  -4.975  25.834  0.00  0.00    +0.000 C 
ATOM     13  O   UNL     1       5.655  -6.138  25.925  0.00  0.00    +0.000 OA
ATOM     14  N   UNL     1       4.259  -4.508  26.540  0.00  0.00    +0.000 NA
ATOM     15  C   UNL     1       3.579  -5.361  27.495  0.00  0.00    +0.000 C 
ENDBRANCH   9  11
ENDBRANCH   3   4
BRANCH   1  16
ATOM     16  C   UNL     1       6.934   0.397  26.955  0.00  0.00    +0.000 C 
BRANCH  16  22
ATOM     17  C   UNL     1       5.429   1.465  25.148  0.00  0.00    +0.000 A 
ATOM     18  C   UNL     1       5.204   2.383  24.118  0.00  0.00    +0.000 A 
ATOM     19  C   UNL     1       5.788   3.889  24.085  0.00  0.00    +0.000 A 
ATOM     20  C   UNL     1       7.029   3.649  24.933  0.00  0.00    +0.000 A 
ATOM     21  C   UNL     1       7.385   2.600  25.744  0.00  0.00    +0.000 A 
ATOM     22  C   UNL     1       6.765   1.275  25.830  0.00  0.00    +0.000 A 
ATOM     23  F   UNL     1       7.335   4.826  25.488  0.00  0.00    +0.000 F 
BRANCH  17  24
ATOM     24  N   UNL     1       4.350   1.083  25.937  0.00  0.00    +0.000 NA
BRANCH  24  26
ATOM     25  C   UNL     1       3.963   2.767  27.655  0.00  0.00    +0.000 C 
ATOM     26  C   UNL     1       3.457   2.169  26.361  0.00  0.00    +0.000 C 
ENDBRANCH  24  26
ENDBRANCH  17  24
ENDBRANCH  16  22
ENDBRANCH   1  16
BRANCH   3  27
ATOM     27  C   UNL     1       8.896  -1.104  25.762  0.00  0.00    +0.000 C 
BRANCH  27  28
ATOM     28  C   UNL     1       9.507  -0.704  24.470  0.00  0.00    +0.000 A 
ATOM     29  C   UNL     1      10.712   0.434  24.931  0.00  0.00    +0.000 A 
ATOM     30  N   UNL     1      10.450   1.506  24.143  0.00  0.00    +0.000 NA
ATOM     31  C   UNL     1       9.847   1.903  23.073  0.00  0.00    +0.000 A 
ATOM     32  C   UNL     1       8.621   1.019  22.600  0.00  0.00    +0.000 A 
ATOM     33  C   UNL     1       8.910  -0.371  23.214  0.00  0.00    +0.000 A 
BRANCH  33  34
ATOM     34  C   UNL     1       9.228  -1.224  22.063  0.00  0.00    +0.000 C 
ATOM     35  O   UNL     1       8.943  -0.943  20.942  0.00  0.00    +0.000 OA
ATOM     36  O   UNL     1      10.304  -1.976  22.365  0.00  0.00    +0.000 OA
ENDBRANCH  33  34
ENDBRANCH  27  28
ENDBRANCH   3  27
TORSDOF 9
ENDMDL
