MODEL 1
REMARK VINA RESULT:      -7.5      0.000      0.000
REMARK  Name = 
REMARK  7 active torsions:
REMARK  status: ('A' for Active; 'I' for Inactive)
REMARK    1  A    between atoms: C_2  and  N_3
REMARK    2  A    between atoms: N_3  and  C_4
REMARK    3  A    between atoms: C_5  and  C_12
REMARK    4  A    between atoms: C_12  and  N_13
REMARK    5  A    between atoms: C_14  and  C_16
REMARK    6  A    between atoms: C_21  and  C_31
REMARK    7  A    between atoms: C_22  and  C_28
REMARK                            x       y       z     vdW  Elec       q    Type
REMARK                         _______ _______ _______ _____ _____    ______ ____
ROOT
ATOM      1  N   UNL     1       8.632  -1.608  23.125  0.00  0.00    +0.000 NA
ATOM      2  C   UNL     1       8.610  -2.842  23.629  0.00  0.00    +0.000 C 
ATOM      3  O   UNL     1       9.711  -3.394  23.809  0.00  0.00    +0.000 OA
ENDROOT
BRANCH   2   4
ATOM      4  C   UNL     1       7.391  -3.618  23.866  0.00  0.00    +0.000 C 
ATOM      5  C   UNL     1       7.528  -4.961  23.133  0.00  0.00    +0.000 C 
ATOM      6  C   UNL     1       6.213  -2.848  23.161  0.00  0.00    +0.000 C 
ATOM      7  C   UNL     1       5.490  -2.116  24.341  0.00  0.00    +0.000 C 
ATOM      8  C   UNL     1       5.680  -3.109  25.537  0.00  0.00    +0.000 C 
ATOM      9  C   UNL     1       6.981  -3.823  25.283  0.00  0.00    +0.000 C 
ATOM     10  C   UNL     1       6.694  -5.349  25.489  0.00  0.00    +0.000 C 
ATOM     11  C   UNL     1       5.187  -5.510  25.219  0.00  0.00    +0.000 C 
ATOM     12  C   UNL     1       4.545  -4.132  25.448  0.00  0.00    +0.000 C 
ATOM     13  C   UNL     1       3.755  -4.165  26.742  0.00  0.00    +0.000 C 
BRANCH   9  14
ATOM     14  C   UNL     1       8.034  -3.466  26.262  0.00  0.00    +0.000 C 
ATOM     15  O   UNL     1       8.194  -2.337  26.697  0.00  0.00    +0.000 OA
ATOM     16  O   UNL     1       8.042  -4.480  27.178  0.00  0.00    +0.000 OA
ENDBRANCH   9  14
BRANCH   8  17
ATOM     17  C   UNL     1       5.629  -2.354  26.815  0.00  0.00    +0.000 C 
ATOM     18  C   UNL     1       5.157  -0.929  26.588  0.00  0.00    +0.000 C 
ENDBRANCH   8  17
ENDBRANCH   2   4
BRANCH   1  19
ATOM     19  C   UNL     1       9.376  -1.347  21.899  0.00  0.00    +0.000 C 
BRANCH  19  21
ATOM     20  C   UNL     1       7.647   0.313  21.048  0.00  0.00    +0.000 C 
ATOM     21  C   UNL     1       9.167   0.119  21.567  0.00  0.00    +0.000 C 
ATOM     22  C   UNL     1      10.092   1.083  21.916  0.00  0.00    +0.000 C 
ATOM     23  C   UNL     1       9.779   2.389  22.605  0.00  0.00    +0.000 C 
ATOM     24  C   UNL     1       8.358   2.505  22.498  0.00  0.00    +0.000 C 
ATOM     25  C   UNL     1       7.495   1.810  21.589  0.00  0.00    +0.000 C 
ATOM     26  C   UNL     1       6.107   2.141  21.795  0.00  0.00    +0.000 C 
ATOM     27  F   UNL     1      10.175   2.232  23.873  0.00  0.00    +0.000 F 
BRANCH  20  28
ATOM     28  N   UNL     1       7.773   0.442  19.615  0.00  0.00    +0.000 NA
BRANCH  28  30
ATOM     29  C   UNL     1       5.886   0.770  18.134  0.00  0.00    +0.000 C 
ATOM     30  C   UNL     1       6.636  -0.209  19.028  0.00  0.00    +0.000 C 
ENDBRANCH  28  30
ENDBRANCH  20  28
ENDBRANCH  19  21
ENDBRANCH   1  19
TORSDOF 7
ENDMDL
MODEL 2
REMARK VINA RESULT:      -7.5      2.384      6.379
REMARK  Name = 
REMARK  7 active torsions:
REMARK  status: ('A' for Active; 'I' for Inactive)
REMARK    1  A    between atoms: C_2  and  N_3
REMARK    2  A    between atoms: N_3  and  C_4
REMARK    3  A    between atoms: C_5  and  C_12
REMARK    4  A    between atoms: C_12  and  N_13
REMARK    5  A    between atoms: C_14  and  C_16
REMARK    6  A    between atoms: C_21  and  C_31
REMARK    7  A    between atoms: C_22  and  C_28
REMARK                            x       y       z     vdW  Elec       q    Type
REMARK                         _______ _______ _______ _____ _____    ______ ____
ROOT
ATOM      1  N   UNL     1       9.787  -1.864  22.836  0.00  0.00    +0.000 NA
ATOM      2  C   UNL     1       9.923  -0.544  22.960  0.00  0.00    +0.000 C 
ATOM      3  O   UNL     1      10.713  -0.141  23.833  0.00  0.00    +0.000 OA
ENDROOT
BRANCH   2   4
ATOM      4  C   UNL     1       9.125   0.443  22.228  0.00  0.00    +0.000 C 
ATOM      5  C   UNL     1       8.788  -0.140  20.849  0.00  0.00    +0.000 C 
ATOM      6  C   UNL     1      10.059   1.684  21.967  0.00  0.00    +0.000 C 
ATOM      7  C   UNL     1       9.609   2.721  23.048  0.00  0.00    +0.000 C 
ATOM      8  C   UNL     1       8.078   2.429  23.199  0.00  0.00    +0.000 C 
ATOM      9  C   UNL     1       7.904   0.962  22.902  0.00  0.00    +0.000 C 
ATOM     10  C   UNL     1       6.710   0.855  21.894  0.00  0.00    +0.000 C 
ATOM     11  C   UNL     1       6.673   2.216  21.175  0.00  0.00    +0.000 C 
ATOM     12  C   UNL     1       7.364   3.228  22.104  0.00  0.00    +0.000 C 
ATOM     13  C   UNL     1       6.315   4.139  22.709  0.00  0.00    +0.000 C 
BRANCH   9  14
ATOM     14  C   UNL     1       7.506   0.178  24.095  0.00  0.00    +0.000 C 
ATOM     15  O   UNL     1       7.944   0.387  25.215  0.00  0.00    +0.000 OA
ATOM     16  O   UNL     1       6.154   0.010  23.990  0.00  0.00    +0.000 OA
ENDBRANCH   9  14
BRANCH   8  17
ATOM     17  C   UNL     1       7.628   2.843  24.552  0.00  0.00    +0.000 C 
ATOM     18  C   UNL     1       8.581   3.860  25.155  0.00  0.00    +0.000 C 
ENDBRANCH   8  17
ENDBRANCH   2   4
BRANCH   1  19
ATOM     19  C   UNL     1       9.472  -2.666  24.012  0.00  0.00    +0.000 C 
BRANCH  19  21
ATOM     20  C   UNL     1       7.359  -3.587  25.086  0.00  0.00    +0.000 C 
ATOM     21  C   UNL     1       8.179  -3.400  23.705  0.00  0.00    +0.000 C 
ATOM     22  C   UNL     1       7.750  -3.607  22.409  0.00  0.00    +0.000 C 
ATOM     23  C   UNL     1       6.361  -3.328  21.890  0.00  0.00    +0.000 C 
ATOM     24  C   UNL     1       5.582  -3.136  23.073  0.00  0.00    +0.000 C 
ATOM     25  C   UNL     1       5.912  -3.543  24.407  0.00  0.00    +0.000 C 
ATOM     26  C   UNL     1       4.910  -3.141  25.362  0.00  0.00    +0.000 C 
ATOM     27  F   UNL     1       6.464  -2.206  21.169  0.00  0.00    +0.000 F 
BRANCH  20  28
ATOM     28  N   UNL     1       7.566  -4.973  25.439  0.00  0.00    +0.000 NA
BRANCH  28  30
ATOM     29  C   UNL     1       6.710  -5.398  27.664  0.00  0.00    +0.000 C 
ATOM     30  C   UNL     1       7.924  -5.007  26.830  0.00  0.00    +0.000 C 
ENDBRANCH  28  30
ENDBRANCH  20  28
ENDBRANCH  19  21
ENDBRANCH   1  19
TORSDOF 7
ENDMDL
MODEL 3
REMARK VINA RESULT:      -7.4      3.091      6.921
REMARK  Name = 
REMARK  7 active torsions:
REMARK  status: ('A' for Active; 'I' for Inactive)
REMARK    1  A    between atoms: C_2  and  N_3
REMARK    2  A    between atoms: N_3  and  C_4
REMARK    3  A    between atoms: C_5  and  C_12
REMARK    4  A    between atoms: C_12  and  N_13
REMARK    5  A    between atoms: C_14  and  C_16
REMARK    6  A    between atoms: C_21  and  C_31
REMARK    7  A    between atoms: C_22  and  C_28
REMARK                            x       y       z     vdW  Elec       q    Type
REMARK                         _______ _______ _______ _____ _____    ______ ____
ROOT
ATOM      1  N   UNL     1       6.788  -2.740  22.447  0.00  0.00    +0.000 NA
ATOM      2  C   UNL     1       6.919  -1.703  21.620  0.00  0.00    +0.000 C 
ATOM      3  O   UNL     1       6.045  -1.570  20.744  0.00  0.00    +0.000 OA
ENDROOT
BRANCH   2   4
ATOM      4  C   UNL     1       8.072  -0.800  21.601  0.00  0.00    +0.000 C 
ATOM      5  C   UNL     1       8.292  -0.332  20.154  0.00  0.00    +0.000 C 
ATOM      6  C   UNL     1       9.334  -1.659  21.983  0.00  0.00    +0.000 C 
ATOM      7  C   UNL     1       9.589  -1.297  23.484  0.00  0.00    +0.000 C 
ATOM      8  C   UNL     1       9.132   0.198  23.566  0.00  0.00    +0.000 C 
ATOM      9  C   UNL     1       8.043   0.357  22.537  0.00  0.00    +0.000 C 
ATOM     10  C   UNL     1       8.391   1.650  21.723  0.00  0.00    +0.000 C 
ATOM     11  C   UNL     1       9.916   1.807  21.861  0.00  0.00    +0.000 C 
ATOM     12  C   UNL     1      10.328   1.052  23.135  0.00  0.00    +0.000 C 
ATOM     13  C   UNL     1      10.681   2.057  24.213  0.00  0.00    +0.000 C 
BRANCH   9  14
ATOM     14  C   UNL     1       6.712   0.598  23.142  0.00  0.00    +0.000 C 
ATOM     15  O   UNL     1       6.353   0.103  24.198  0.00  0.00    +0.000 OA
ATOM     16  O   UNL     1       6.471   1.933  22.979  0.00  0.00    +0.000 OA
ENDBRANCH   9  14
BRANCH   8  17
ATOM     17  C   UNL     1       8.717   0.511  24.957  0.00  0.00    +0.000 C 
ATOM     18  C   UNL     1       9.108  -0.608  25.907  0.00  0.00    +0.000 C 
ENDBRANCH   8  17
ENDBRANCH   2   4
BRANCH   1  19
ATOM     19  C   UNL     1       6.613  -4.079  21.898  0.00  0.00    +0.000 C 
BRANCH  19  21
ATOM     20  C   UNL     1       6.636  -4.393  24.422  0.00  0.00    +0.000 C 
ATOM     21  C   UNL     1       6.051  -4.937  23.015  0.00  0.00    +0.000 C 
ATOM     22  C   UNL     1       5.031  -5.842  22.795  0.00  0.00    +0.000 C 
ATOM     23  C   UNL     1       3.780  -5.975  23.630  0.00  0.00    +0.000 C 
ATOM     24  C   UNL     1       4.070  -5.218  24.807  0.00  0.00    +0.000 C 
ATOM     25  C   UNL     1       5.358  -4.813  25.287  0.00  0.00    +0.000 C 
ATOM     26  C   UNL     1       5.268  -4.018  26.486  0.00  0.00    +0.000 C 
ATOM     27  F   UNL     1       2.802  -5.422  22.905  0.00  0.00    +0.000 F 
BRANCH  20  28
ATOM     28  N   UNL     1       7.660  -5.348  24.776  0.00  0.00    +0.000 NA
BRANCH  28  30
ATOM     29  C   UNL     1       8.992  -4.341  26.529  0.00  0.00    +0.000 C 
ATOM     30  C   UNL     1       8.862  -4.606  25.035  0.00  0.00    +0.000 C 
ENDBRANCH  28  30
ENDBRANCH  20  28
ENDBRANCH  19  21
ENDBRANCH   1  19
TORSDOF 7
ENDMDL
MODEL 4
REMARK VINA RESULT:      -7.4      1.290      2.060
REMARK  Name = 
REMARK  7 active torsions:
REMARK  status: ('A' for Active; 'I' for Inactive)
REMARK    1  A    between atoms: C_2  and  N_3
REMARK    2  A    between atoms: N_3  and  C_4
REMARK    3  A    between atoms: C_5  and  C_12
REMARK    4  A    between atoms: C_12  and  N_13
REMARK    5  A    between atoms: C_14  and  C_16
REMARK    6  A    between atoms: C_21  and  C_31
REMARK    7  A    between atoms: C_22  and  C_28
REMARK                            x       y       z     vdW  Elec       q    Type
REMARK                         _______ _______ _______ _____ _____    ______ ____
ROOT
ATOM      1  N   UNL     1       8.028  -1.934  22.769  0.00  0.00    +0.000 NA
ATOM      2  C   UNL     1       8.320  -2.119  24.056  0.00  0.00    +0.000 C 
ATOM      3  O   UNL     1       9.008  -1.241  24.608  0.00  0.00    +0.000 OA
ENDROOT
BRANCH   2   4
ATOM      4  C   UNL     1       7.991  -3.329  24.814  0.00  0.00    +0.000 C 
ATOM      5  C   UNL     1       9.114  -3.579  25.830  0.00  0.00    +0.000 C 
ATOM      6  C   UNL     1       8.037  -4.532  23.799  0.00  0.00    +0.000 C 
ATOM      7  C   UNL     1       6.530  -4.809  23.483  0.00  0.00    +0.000 C 
ATOM      8  C   UNL     1       5.817  -4.451  24.831  0.00  0.00    +0.000 C 
ATOM      9  C   UNL     1       6.656  -3.375  25.471  0.00  0.00    +0.000 C 
ATOM     10  C   UNL     1       6.864  -3.808  26.962  0.00  0.00    +0.000 C 
ATOM     11  C   UNL     1       6.714  -5.340  26.956  0.00  0.00    +0.000 C 
ATOM     12  C   UNL     1       5.884  -5.701  25.713  0.00  0.00    +0.000 C 
ATOM     13  C   UNL     1       4.494  -6.118  26.151  0.00  0.00    +0.000 C 
BRANCH   9  14
ATOM     14  C   UNL     1       5.970  -2.062  25.515  0.00  0.00    +0.000 C 
ATOM     15  O   UNL     1       5.174  -1.690  24.668  0.00  0.00    +0.000 OA
ATOM     16  O   UNL     1       5.604  -1.884  26.819  0.00  0.00    +0.000 OA
ENDBRANCH   9  14
BRANCH   8  17
ATOM     17  C   UNL     1       4.412  -4.057  24.556  0.00  0.00    +0.000 C 
ATOM     18  C   UNL     1       3.967  -4.546  23.189  0.00  0.00    +0.000 C 
ENDBRANCH   8  17
ENDBRANCH   2   4
BRANCH   1  19
ATOM     19  C   UNL     1       9.103  -1.662  21.822  0.00  0.00    +0.000 C 
BRANCH  19  21
ATOM     20  C   UNL     1       7.539   0.134  20.928  0.00  0.00    +0.000 C 
ATOM     21  C   UNL     1       9.023  -0.184  21.486  0.00  0.00    +0.000 C 
ATOM     22  C   UNL     1      10.015   0.701  21.860  0.00  0.00    +0.000 C 
ATOM     23  C   UNL     1       9.793   2.029  22.543  0.00  0.00    +0.000 C 
ATOM     24  C   UNL     1       8.390   2.262  22.399  0.00  0.00    +0.000 C 
ATOM     25  C   UNL     1       7.496   1.639  21.467  0.00  0.00    +0.000 C 
ATOM     26  C   UNL     1       6.136   2.084  21.638  0.00  0.00    +0.000 C 
ATOM     27  F   UNL     1      10.142   1.841  23.820  0.00  0.00    +0.000 F 
BRANCH  20  28
ATOM     28  N   UNL     1       7.712   0.251  19.499  0.00  0.00    +0.000 NA
BRANCH  28  30
ATOM     29  C   UNL     1       5.830   0.789  18.073  0.00  0.00    +0.000 C 
ATOM     30  C   UNL     1       6.534  -0.293  18.883  0.00  0.00    +0.000 C 
ENDBRANCH  28  30
ENDBRANCH  20  28
ENDBRANCH  19  21
ENDBRANCH   1  19
TORSDOF 7
ENDMDL
MODEL 5
REMARK VINA RESULT:      -7.3      1.901      2.750
REMARK  Name = 
REMARK  7 active torsions:
REMARK  status: ('A' for Active; 'I' for Inactive)
REMARK    1  A    between atoms: C_2  and  N_3
REMARK    2  A    between atoms: N_3  and  C_4
REMARK    3  A    between atoms: C_5  and  C_12
REMARK    4  A    between atoms: C_12  and  N_13
REMARK    5  A    between atoms: C_14  and  C_16
REMARK    6  A    between atoms: C_21  and  C_31
REMARK    7  A    between atoms: C_22  and  C_28
REMARK                            x       y       z     vdW  Elec       q    Type
REMARK                         _______ _______ _______ _____ _____    ______ ____
ROOT
ATOM      1  N   UNL     1       6.618  -3.430  21.818  0.00  0.00    +0.000 NA
ATOM      2  C   UNL     1       5.843  -4.072  22.692  0.00  0.00    +0.000 C 
ATOM      3  O   UNL     1       4.617  -4.038  22.486  0.00  0.00    +0.000 OA
ENDROOT
BRANCH   2   4
ATOM      4  C   UNL     1       6.329  -4.699  23.924  0.00  0.00    +0.000 C 
ATOM      5  C   UNL     1       7.788  -5.124  23.702  0.00  0.00    +0.000 C 
ATOM      6  C   UNL     1       5.507  -6.028  24.116  0.00  0.00    +0.000 C 
ATOM      7  C   UNL     1       4.447  -5.655  25.205  0.00  0.00    +0.000 C 
ATOM      8  C   UNL     1       5.212  -4.621  26.098  0.00  0.00    +0.000 C 
ATOM      9  C   UNL     1       6.184  -3.921  25.185  0.00  0.00    +0.000 C 
ATOM     10  C   UNL     1       7.566  -3.930  25.922  0.00  0.00    +0.000 C 
ATOM     11  C   UNL     1       7.502  -5.139  26.872  0.00  0.00    +0.000 C 
ATOM     12  C   UNL     1       6.014  -5.429  27.124  0.00  0.00    +0.000 C 
ATOM     13  C   UNL     1       5.658  -5.000  28.533  0.00  0.00    +0.000 C 
BRANCH   9  14
ATOM     14  C   UNL     1       5.843  -2.496  24.966  0.00  0.00    +0.000 C 
ATOM     15  O   UNL     1       4.699  -2.070  24.966  0.00  0.00    +0.000 OA
ATOM     16  O   UNL     1       6.760  -1.785  25.687  0.00  0.00    +0.000 OA
ENDBRANCH   9  14
BRANCH   8  17
ATOM     17  C   UNL     1       4.233  -3.724  26.762  0.00  0.00    +0.000 C 
ATOM     18  C   UNL     1       2.816  -4.244  26.594  0.00  0.00    +0.000 C 
ENDBRANCH   8  17
ENDBRANCH   2   4
BRANCH   1  19
ATOM     19  C   UNL     1       6.338  -2.034  21.502  0.00  0.00    +0.000 C 
BRANCH  19  21
ATOM     20  C   UNL     1       7.441   0.171  20.878  0.00  0.00    +0.000 C 
ATOM     21  C   UNL     1       7.677  -1.323  21.452  0.00  0.00    +0.000 C 
ATOM     22  C   UNL     1       8.805  -1.853  22.047  0.00  0.00    +0.000 C 
ATOM     23  C   UNL     1       9.749  -1.105  22.958  0.00  0.00    +0.000 C 
ATOM     24  C   UNL     1       9.389   0.267  22.778  0.00  0.00    +0.000 C 
ATOM     25  C   UNL     1       8.646   0.835  21.692  0.00  0.00    +0.000 C 
ATOM     26  C   UNL     1       8.429   2.250  21.864  0.00  0.00    +0.000 C 
ATOM     27  F   UNL     1       9.476  -1.538  24.194  0.00  0.00    +0.000 F 
BRANCH  20  28
ATOM     28  N   UNL     1       7.903   0.105  19.511  0.00  0.00    +0.000 NA
BRANCH  28  30
ATOM     29  C   UNL     1       5.740   1.189  19.432  0.00  0.00    +0.000 C 
ATOM     30  C   UNL     1       6.771   0.370  18.667  0.00  0.00    +0.000 C 
ENDBRANCH  28  30
ENDBRANCH  20  28
ENDBRANCH  19  21
ENDBRANCH   1  19
TORSDOF 7
ENDMDL
MODEL 6
REMARK VINA RESULT:      -7.2      2.599      6.556
REMARK  Name = 
REMARK  7 active torsions:
REMARK  status: ('A' for Active; 'I' for Inactive)
REMARK    1  A    between atoms: C_2  and  N_3
REMARK    2  A    between atoms: N_3  and  C_4
REMARK    3  A    between atoms: C_5  and  C_12
REMARK    4  A    between atoms: C_12  and  N_13
REMARK    5  A    between atoms: C_14  and  C_16
REMARK    6  A    between atoms: C_21  and  C_31
REMARK    7  A    between atoms: C_22  and  C_28
REMARK                            x       y       z     vdW  Elec       q    Type
REMARK                         _______ _______ _______ _____ _____    ______ ____
ROOT
ATOM      1  N   UNL     1       9.296  -2.763  24.942  0.00  0.00    +0.000 NA
ATOM      2  C   UNL     1       9.277  -1.451  24.705  0.00  0.00    +0.000 C 
ATOM      3  O   UNL     1       9.332  -0.701  25.696  0.00  0.00    +0.000 OA
ENDROOT
BRANCH   2   4
ATOM      4  C   UNL     1       9.076  -0.851  23.384  0.00  0.00    +0.000 C 
ATOM      5  C   UNL     1       9.718  -1.773  22.337  0.00  0.00    +0.000 C 
ATOM      6  C   UNL     1       9.902   0.489  23.359  0.00  0.00    +0.000 C 
ATOM      7  C   UNL     1       8.818   1.596  23.578  0.00  0.00    +0.000 C 
ATOM      8  C   UNL     1       7.555   0.995  22.874  0.00  0.00    +0.000 C 
ATOM      9  C   UNL     1       7.680  -0.501  23.003  0.00  0.00    +0.000 C 
ATOM     10  C   UNL     1       7.403  -1.090  21.578  0.00  0.00    +0.000 C 
ATOM     11  C   UNL     1       7.763   0.044  20.602  0.00  0.00    +0.000 C 
ATOM     12  C   UNL     1       7.658   1.359  21.391  0.00  0.00    +0.000 C 
ATOM     13  C   UNL     1       6.420   2.108  20.939  0.00  0.00    +0.000 C 
BRANCH   9  14
ATOM     14  C   UNL     1       6.656  -1.089  23.898  0.00  0.00    +0.000 C 
ATOM     15  O   UNL     1       6.010  -0.436  24.702  0.00  0.00    +0.000 OA
ATOM     16  O   UNL     1       5.955  -1.970  23.124  0.00  0.00    +0.000 OA
ENDBRANCH   9  14
BRANCH   8  17
ATOM     17  C   UNL     1       6.330   1.567  23.488  0.00  0.00    +0.000 C 
ATOM     18  C   UNL     1       6.667   2.753  24.374  0.00  0.00    +0.000 C 
ENDBRANCH   8  17
ENDBRANCH   2   4
BRANCH   1  19
ATOM     19  C   UNL     1       8.345  -3.335  25.887  0.00  0.00    +0.000 C 
BRANCH  19  21
ATOM     20  C   UNL     1       6.357  -4.918  25.975  0.00  0.00    +0.000 C 
ATOM     21  C   UNL     1       7.731  -4.545  25.208  0.00  0.00    +0.000 C 
ATOM     22  C   UNL     1       8.204  -5.020  24.001  0.00  0.00    +0.000 C 
ATOM     23  C   UNL     1       7.357  -5.361  22.799  0.00  0.00    +0.000 C 
ATOM     24  C   UNL     1       6.023  -5.389  23.314  0.00  0.00    +0.000 C 
ATOM     25  C   UNL     1       5.622  -5.512  24.684  0.00  0.00    +0.000 C 
ATOM     26  C   UNL     1       4.190  -5.457  24.839  0.00  0.00    +0.000 C 
ATOM     27  F   UNL     1       7.539  -4.360  21.932  0.00  0.00    +0.000 F 
BRANCH  20  28
ATOM     28  N   UNL     1       6.697  -6.071  26.776  0.00  0.00    +0.000 NA
BRANCH  28  30
ATOM     29  C   UNL     1       5.499  -4.493  28.168  0.00  0.00    +0.000 C 
ATOM     30  C   UNL     1       6.331  -5.769  28.132  0.00  0.00    +0.000 C 
ENDBRANCH  28  30
ENDBRANCH  20  28
ENDBRANCH  19  21
ENDBRANCH   1  19
TORSDOF 7
ENDMDL
MODEL 7
REMARK VINA RESULT:      -7.2      3.018      6.903
REMARK  Name = 
REMARK  7 active torsions:
REMARK  status: ('A' for Active; 'I' for Inactive)
REMARK    1  A    between atoms: C_2  and  N_3
REMARK    2  A    between atoms: N_3  and  C_4
REMARK    3  A    between atoms: C_5  and  C_12
REMARK    4  A    between atoms: C_12  and  N_13
REMARK    5  A    between atoms: C_14  and  C_16
REMARK    6  A    between atoms: C_21  and  C_31
REMARK    7  A    between atoms: C_22  and  C_28
REMARK                            x       y       z     vdW  Elec       q    Type
REMARK                         _______ _______ _______ _____ _____    ______ ____
ROOT
ATOM      1  N   UNL     1       8.226  -2.809  24.154  0.00  0.00    +0.000 NA
ATOM      2  C   UNL     1       8.411  -2.089  23.048  0.00  0.00    +0.000 C 
ATOM      3  O   UNL     1       7.963  -2.563  21.988  0.00  0.00    +0.000 OA
ENDROOT
BRANCH   2   4
ATOM      4  C   UNL     1       9.201  -0.857  22.984  0.00  0.00    +0.000 C 
ATOM      5  C   UNL     1      10.123  -0.941  21.759  0.00  0.00    +0.000 C 
ATOM      6  C   UNL     1      10.142  -0.850  24.246  0.00  0.00    +0.000 C 
ATOM      7  C   UNL     1       9.433   0.136  25.232  0.00  0.00    +0.000 C 
ATOM      8  C   UNL     1       8.770   1.179  24.270  0.00  0.00    +0.000 C 
ATOM      9  C   UNL     1       8.453   0.430  23.002  0.00  0.00    +0.000 C 
ATOM     10  C   UNL     1       8.982   1.316  21.823  0.00  0.00    +0.000 C 
ATOM     11  C   UNL     1      10.106   2.168  22.440  0.00  0.00    +0.000 C 
ATOM     12  C   UNL     1       9.838   2.230  23.952  0.00  0.00    +0.000 C 
ATOM     13  C   UNL     1       9.341   3.617  24.310  0.00  0.00    +0.000 C 
BRANCH   9  14
ATOM     14  C   UNL     1       6.996   0.273  22.776  0.00  0.00    +0.000 C 
ATOM     15  O   UNL     1       6.207  -0.023  23.659  0.00  0.00    +0.000 OA
ATOM     16  O   UNL     1       6.639   1.306  21.957  0.00  0.00    +0.000 OA
ENDBRANCH   9  14
BRANCH   8  17
ATOM     17  C   UNL     1       7.593   1.788  24.939  0.00  0.00    +0.000 C 
ATOM     18  C   UNL     1       7.475   1.311  26.376  0.00  0.00    +0.000 C 
ENDBRANCH   8  17
ENDBRANCH   2   4
BRANCH   1  19
ATOM     19  C   UNL     1       8.637  -4.207  24.178  0.00  0.00    +0.000 C 
BRANCH  19  21
ATOM     20  C   UNL     1       6.334  -4.678  25.148  0.00  0.00    +0.000 C 
ATOM     21  C   UNL     1       7.382  -5.033  23.969  0.00  0.00    +0.000 C 
ATOM     22  C   UNL     1       7.167  -5.749  22.807  0.00  0.00    +0.000 C 
ATOM     23  C   UNL     1       5.898  -5.733  21.989  0.00  0.00    +0.000 C 
ATOM     24  C   UNL     1       4.942  -5.106  22.848  0.00  0.00    +0.000 C 
ATOM     25  C   UNL     1       5.025  -4.942  24.269  0.00  0.00    +0.000 C 
ATOM     26  C   UNL     1       3.896  -4.218  24.800  0.00  0.00    +0.000 C 
ATOM     27  F   UNL     1       6.172  -4.988  20.914  0.00  0.00    +0.000 F 
BRANCH  20  28
ATOM     28  N   UNL     1       6.415  -5.803  26.050  0.00  0.00    +0.000 NA
BRANCH  28  30
ATOM     29  C   UNL     1       6.236  -6.031  28.453  0.00  0.00    +0.000 C 
ATOM     30  C   UNL     1       6.922  -5.311  27.300  0.00  0.00    +0.000 C 
ENDBRANCH  28  30
ENDBRANCH  20  28
ENDBRANCH  19  21
ENDBRANCH   1  19
TORSDOF 7
ENDMDL
MODEL 8
REMARK VINA RESULT:      -7.1      2.163      3.456
REMARK  Name = 
REMARK  7 active torsions:
REMARK  status: ('A' for Active; 'I' for Inactive)
REMARK    1  A    between atoms: C_2  and  N_3
REMARK    2  A    between atoms: N_3  and  C_4
REMARK    3  A    between atoms: C_5  and  C_12
REMARK    4  A    between atoms: C_12  and  N_13
REMARK    5  A    between atoms: C_14  and  C_16
REMARK    6  A    between atoms: C_21  and  C_31
REMARK    7  A    between atoms: C_22  and  C_28
REMARK                            x       y       z     vdW  Elec       q    Type
REMARK                         _______ _______ _______ _____ _____    ______ ____
ROOT
ATOM      1  N   UNL     1       8.039  -3.259  24.043  0.00  0.00    +0.000 NA
ATOM      2  C   UNL     1       7.663  -4.515  23.798  0.00  0.00    +0.000 C 
ATOM      3  O   UNL     1       8.566  -5.367  23.728  0.00  0.00    +0.000 OA
ENDROOT
BRANCH   2   4
ATOM      4  C   UNL     1       6.290  -4.923  23.492  0.00  0.00    +0.000 C 
ATOM      5  C   UNL     1       6.345  -6.023  22.422  0.00  0.00    +0.000 C 
ATOM      6  C   UNL     1       5.584  -3.687  22.819  0.00  0.00    +0.000 C 
ATOM      7  C   UNL     1       4.716  -3.083  23.971  0.00  0.00    +0.000 C 
ATOM      8  C   UNL     1       4.307  -4.346  24.802  0.00  0.00    +0.000 C 
ATOM      9  C   UNL     1       5.433  -5.333  24.637  0.00  0.00    +0.000 C 
ATOM     10  C   UNL     1       4.767  -6.705  24.278  0.00  0.00    +0.000 C 
ATOM     11  C   UNL     1       3.418  -6.336  23.635  0.00  0.00    +0.000 C 
ATOM     12  C   UNL     1       3.057  -4.928  24.136  0.00  0.00    +0.000 C 
ATOM     13  C   UNL     1       1.923  -5.036  25.136  0.00  0.00    +0.000 C 
BRANCH   9  14
ATOM     14  C   UNL     1       6.187  -5.558  25.893  0.00  0.00    +0.000 C 
ATOM     15  O   UNL     1       6.501  -4.662  26.659  0.00  0.00    +0.000 OA
ATOM     16  O   UNL     1       5.642  -6.678  26.453  0.00  0.00    +0.000 OA
ENDBRANCH   9  14
BRANCH   8  17
ATOM     17  C   UNL     1       4.036  -3.946  26.206  0.00  0.00    +0.000 C 
ATOM     18  C   UNL     1       4.010  -2.434  26.346  0.00  0.00    +0.000 C 
ENDBRANCH   8  17
ENDBRANCH   2   4
BRANCH   1  19
ATOM     19  C   UNL     1       9.062  -2.641  23.208  0.00  0.00    +0.000 C 
BRANCH  19  21
ATOM     20  C   UNL     1       9.350  -0.223  23.940  0.00  0.00    +0.000 C 
ATOM     21  C   UNL     1       8.594  -1.226  22.922  0.00  0.00    +0.000 C 
ATOM     22  C   UNL     1       7.842  -0.920  21.805  0.00  0.00    +0.000 C 
ATOM     23  C   UNL     1       8.115   0.214  20.847  0.00  0.00    +0.000 C 
ATOM     24  C   UNL     1       9.070   1.025  21.536  0.00  0.00    +0.000 C 
ATOM     25  C   UNL     1       9.360   1.025  22.939  0.00  0.00    +0.000 C 
ATOM     26  C   UNL     1      10.418   1.944  23.277  0.00  0.00    +0.000 C 
ATOM     27  F   UNL     1       8.635  -0.354  19.754  0.00  0.00    +0.000 F 
BRANCH  20  28
ATOM     28  N   UNL     1       8.351   0.100  24.932  0.00  0.00    +0.000 NA
BRANCH  28  30
ATOM     29  C   UNL     1       7.660  -0.462  27.183  0.00  0.00    +0.000 C 
ATOM     30  C   UNL     1       8.810  -0.431  26.185  0.00  0.00    +0.000 C 
ENDBRANCH  28  30
ENDBRANCH  20  28
ENDBRANCH  19  21
ENDBRANCH   1  19
TORSDOF 7
ENDMDL
MODEL 9
REMARK VINA RESULT:      -7.1      2.118      3.136
REMARK  Name = 
REMARK  7 active torsions:
REMARK  status: ('A' for Active; 'I' for Inactive)
REMARK    1  A    between atoms: C_2  and  N_3
REMARK    2  A    between atoms: N_3  and  C_4
REMARK    3  A    between atoms: C_5  and  C_12
REMARK    4  A    between atoms: C_12  and  N_13
REMARK    5  A    between atoms: C_14  and  C_16
REMARK    6  A    between atoms: C_21  and  C_31
REMARK    7  A    between atoms: C_22  and  C_28
REMARK                            x       y       z     vdW  Elec       q    Type
REMARK                         _______ _______ _______ _____ _____    ______ ____
ROOT
ATOM      1  N   UNL     1       7.118  -2.519  22.081  0.00  0.00    +0.000 NA
ATOM      2  C   UNL     1       6.044  -3.308  22.139  0.00  0.00    +0.000 C 
ATOM      3  O   UNL     1       5.406  -3.465  21.083  0.00  0.00    +0.000 OA
ENDROOT
BRANCH   2   4
ATOM      4  C   UNL     1       5.512  -3.891  23.373  0.00  0.00    +0.000 C 
ATOM      5  C   UNL     1       4.217  -4.641  23.028  0.00  0.00    +0.000 C 
ATOM      6  C   UNL     1       5.094  -2.692  24.304  0.00  0.00    +0.000 C 
ATOM      7  C   UNL     1       6.266  -2.597  25.335  0.00  0.00    +0.000 C 
ATOM      8  C   UNL     1       6.718  -4.088  25.491  0.00  0.00    +0.000 C 
ATOM      9  C   UNL     1       6.431  -4.750  24.169  0.00  0.00    +0.000 C 
ATOM     10  C   UNL     1       5.682  -6.086  24.499  0.00  0.00    +0.000 C 
ATOM     11  C   UNL     1       5.017  -5.843  25.865  0.00  0.00    +0.000 C 
ATOM     12  C   UNL     1       5.808  -4.718  26.551  0.00  0.00    +0.000 C 
ATOM     13  C   UNL     1       6.633  -5.309  27.676  0.00  0.00    +0.000 C 
BRANCH   9  14
ATOM     14  C   UNL     1       7.662  -5.137  23.441  0.00  0.00    +0.000 C 
ATOM     15  O   UNL     1       8.720  -5.392  23.994  0.00  0.00    +0.000 OA
ATOM     16  O   UNL     1       7.255  -6.007  22.470  0.00  0.00    +0.000 OA
ENDBRANCH   9  14
BRANCH   8  17
ATOM     17  C   UNL     1       8.143  -4.131  25.907  0.00  0.00    +0.000 C 
ATOM     18  C   UNL     1       8.664  -2.737  26.209  0.00  0.00    +0.000 C 
ENDBRANCH   8  17
ENDBRANCH   2   4
BRANCH   1  19
ATOM     19  C   UNL     1       6.992  -1.177  21.526  0.00  0.00    +0.000 C 
BRANCH  19  21
ATOM     20  C   UNL     1       7.766   0.933  22.716  0.00  0.00    +0.000 C 
ATOM     21  C   UNL     1       8.232  -0.413  21.950  0.00  0.00    +0.000 C 
ATOM     22  C   UNL     1       9.493  -0.971  21.873  0.00  0.00    +0.000 C 
ATOM     23  C   UNL     1      10.524  -0.966  22.976  0.00  0.00    +0.000 C 
ATOM     24  C   UNL     1      10.021  -0.012  23.914  0.00  0.00    +0.000 C 
ATOM     25  C   UNL     1       9.041   1.007  23.678  0.00  0.00    +0.000 C 
ATOM     26  C   UNL     1       8.740   1.759  24.871  0.00  0.00    +0.000 C 
ATOM     27  F   UNL     1      10.526  -2.207  23.474  0.00  0.00    +0.000 F 
BRANCH  20  28
ATOM     28  N   UNL     1       7.967   1.984  21.745  0.00  0.00    +0.000 NA
BRANCH  28  30
ATOM     29  C   UNL     1       7.167   4.198  22.311  0.00  0.00    +0.000 C 
ATOM     30  C   UNL     1       6.799   2.820  21.777  0.00  0.00    +0.000 C 
ENDBRANCH  28  30
ENDBRANCH  20  28
ENDBRANCH  19  21
ENDBRANCH   1  19
TORSDOF 7
ENDMDL
