MODEL 1
REMARK VINA RESULT:      -7.6      0.000      0.000
REMARK  Name = 
REMARK  5 active torsions:
REMARK  status: ('A' for Active; 'I' for Inactive)
REMARK    1  A    between atoms: C_2  and  C_3
REMARK    2  A    between atoms: C_4  and  N_5
REMARK    3  A    between atoms: N_8  and  C_12
REMARK    4  A    between atoms: C_15  and  C_21
REMARK    5  A    between atoms: C_21  and  S_22
REMARK                            x       y       z     vdW  Elec       q    Type
REMARK                         _______ _______ _______ _____ _____    ______ ____
ROOT
ATOM      1  C   UNL     1       8.743  -0.946  22.254  0.00  0.00    +0.000 C 
ATOM      2  C   UNL     1       8.297   0.097  21.534  0.00  0.00    +0.000 C 
ATOM      3  C   UNL     1       6.898   0.180  20.623  0.00  0.00    +0.000 C 
ATOM      4  C   UNL     1       6.521  -1.291  20.775  0.00  0.00    +0.000 C 
ATOM      5  C   UNL     1       6.654  -1.974  22.139  0.00  0.00    +0.000 C 
ATOM      6  C   UNL     1       7.907  -2.165  22.892  0.00  0.00    +0.000 C 
ATOM      7  F   UNL     1       7.806  -1.484  24.163  0.00  0.00    +0.000 F 
ATOM      8 CL   UNL     1       5.963  -3.628  21.801  0.00  0.00    +0.000 Cl
ENDROOT
BRANCH   2   9
ATOM      9  N   UNL     1       8.254   1.429  22.191  0.00  0.00    +0.000 N 
ATOM     10  C   UNL     1       7.335   1.526  23.263  0.00  0.00    +0.000 C 
ATOM     11  C   UNL     1       7.650   2.522  24.300  0.00  0.00    +0.000 C 
ATOM     12  N   UNL     1       8.976   3.014  24.346  0.00  0.00    +0.000 NA
ATOM     13  C   UNL     1       9.903   2.106  23.808  0.00  0.00    +0.000 C 
ATOM     14  C   UNL     1       9.668   1.846  22.367  0.00  0.00    +0.000 C 
ATOM     15  C   UNL     1      10.445   1.039  24.622  0.00  0.00    +0.000 C 
BRANCH  12  16
ATOM     16  C   UNL     1       9.010   4.191  23.445  0.00  0.00    +0.000 C 
ATOM     17  O   UNL     1      10.157   4.940  23.814  0.00  0.00    +0.000 OA
ATOM     18  C   UNL     1       7.802   5.061  23.827  0.00  0.00    +0.000 C 
ENDBRANCH  12  16
ENDBRANCH   2   9
BRANCH   1  20
ATOM     19  N   UNL     1      10.399  -1.970  22.774  0.00  0.00    +0.000 NA
ATOM     20  C   UNL     1       9.776  -1.645  21.832  0.00  0.00    +0.000 C 
ENDBRANCH   1  20
BRANCH   3  21
ATOM     21  C   UNL     1       7.350   0.532  19.285  0.00  0.00    +0.000 C 
ATOM     22  O   UNL     1       8.244  -0.398  18.749  0.00  0.00    +0.000 OA
BRANCH  21  23
ATOM     23  S   UNL     1       5.962   0.733  18.167  0.00  0.00    +0.000 S 
ATOM     24  O   UNL     1       6.344   1.706  17.183  0.00  0.00    +0.000 OA
ATOM     25  O   UNL     1       5.639  -0.571  17.658  0.00  0.00    +0.000 OA
ATOM     26  N   UNL     1       4.673   1.299  19.012  0.00  0.00    +0.000 NA
ENDBRANCH  21  23
ENDBRANCH   3  21
TORSDOF 5
ENDMDL
MODEL 2
REMARK VINA RESULT:      -7.4      2.934      5.562
REMARK  Name = 
REMARK  5 active torsions:
REMARK  status: ('A' for Active; 'I' for Inactive)
REMARK    1  A    between atoms: C_2  and  C_3
REMARK    2  A    between atoms: C_4  and  N_5
REMARK    3  A    between atoms: N_8  and  C_12
REMARK    4  A    between atoms: C_15  and  C_21
REMARK    5  A    between atoms: C_21  and  S_22
REMARK                            x       y       z     vdW  Elec       q    Type
REMARK                         _______ _______ _______ _____ _____    ______ ____
ROOT
ATOM      1  C   UNL     1       8.115  -0.088  23.907  0.00  0.00    +0.000 C 
ATOM      2  C   UNL     1       7.563  -0.522  22.761  0.00  0.00    +0.000 C 
ATOM      3  C   UNL     1       7.932  -0.035  21.205  0.00  0.00    +0.000 C 
ATOM      4  C   UNL     1       8.874   1.096  21.612  0.00  0.00    +0.000 C 
ATOM      5  C   UNL     1       9.887   0.876  22.738  0.00  0.00    +0.000 C 
ATOM      6  C   UNL     1       9.565   0.571  24.144  0.00  0.00    +0.000 C 
ATOM      7  F   UNL     1      10.135  -0.710  24.494  0.00  0.00    +0.000 F 
ATOM      8 CL   UNL     1      10.817   2.445  22.719  0.00  0.00    +0.000 Cl
ENDROOT
BRANCH   2   9
ATOM      9  N   UNL     1       7.459  -1.990  22.551  0.00  0.00    +0.000 N 
ATOM     10  C   UNL     1       8.326  -2.762  23.360  0.00  0.00    +0.000 C 
ATOM     11  C   UNL     1       7.884  -4.133  23.661  0.00  0.00    +0.000 C 
ATOM     12  N   UNL     1       6.517  -4.434  23.453  0.00  0.00    +0.000 NA
ATOM     13  C   UNL     1       5.697  -3.296  23.543  0.00  0.00    +0.000 C 
ATOM     14  C   UNL     1       6.007  -2.294  22.495  0.00  0.00    +0.000 C 
ATOM     15  C   UNL     1       5.229  -2.827  24.830  0.00  0.00    +0.000 C 
BRANCH  12  16
ATOM     16  C   UNL     1       6.404  -4.889  22.047  0.00  0.00    +0.000 C 
ATOM     17  O   UNL     1       5.098  -5.423  21.905  0.00  0.00    +0.000 OA
ATOM     18  C   UNL     1       7.361  -6.083  21.902  0.00  0.00    +0.000 C 
ENDBRANCH  12  16
ENDBRANCH   2   9
BRANCH   1  20
ATOM     19  N   UNL     1       6.334   0.769  24.297  0.00  0.00    +0.000 NA
ATOM     20  C   UNL     1       7.432   0.700  24.711  0.00  0.00    +0.000 C 
ENDBRANCH   1  20
BRANCH   3  21
ATOM     21  C   UNL     1       6.667   0.427  20.654  0.00  0.00    +0.000 C 
ATOM     22  O   UNL     1       6.478   1.803  20.801  0.00  0.00    +0.000 OA
BRANCH  21  23
ATOM     23  S   UNL     1       6.520  -0.009  18.921  0.00  0.00    +0.000 S 
ATOM     24  O   UNL     1       7.847  -0.054  18.377  0.00  0.00    +0.000 OA
ATOM     25  O   UNL     1       5.780  -1.240  18.858  0.00  0.00    +0.000 OA
ATOM     26  N   UNL     1       5.660   1.157  18.147  0.00  0.00    +0.000 NA
ENDBRANCH  21  23
ENDBRANCH   3  21
TORSDOF 5
ENDMDL
MODEL 3
REMARK VINA RESULT:      -6.9      3.596      4.953
REMARK  Name = 
REMARK  5 active torsions:
REMARK  status: ('A' for Active; 'I' for Inactive)
REMARK    1  A    between atoms: C_2  and  C_3
REMARK    2  A    between atoms: C_4  and  N_5
REMARK    3  A    between atoms: N_8  and  C_12
REMARK    4  A    between atoms: C_15  and  C_21
REMARK    5  A    between atoms: C_21  and  S_22
REMARK                            x       y       z     vdW  Elec       q    Type
REMARK                         _______ _______ _______ _____ _____    ______ ____
ROOT
ATOM      1  C   UNL     1       8.349  -1.701  24.382  0.00  0.00    +0.000 C 
ATOM      2  C   UNL     1       7.798  -2.262  23.292  0.00  0.00    +0.000 C 
ATOM      3  C   UNL     1       6.650  -3.476  23.242  0.00  0.00    +0.000 C 
ATOM      4  C   UNL     1       6.660  -3.767  24.741  0.00  0.00    +0.000 C 
ATOM      5  C   UNL     1       6.686  -2.608  25.741  0.00  0.00    +0.000 C 
ATOM      6  C   UNL     1       7.758  -1.605  25.877  0.00  0.00    +0.000 C 
ATOM      7  F   UNL     1       7.214  -0.291  25.621  0.00  0.00    +0.000 F 
ATOM      8 CL   UNL     1       6.552  -3.483  27.335  0.00  0.00    +0.000 Cl
ENDROOT
BRANCH   2   9
ATOM      9  N   UNL     1       7.261  -1.359  22.241  0.00  0.00    +0.000 N 
ATOM     10  C   UNL     1       6.684  -0.164  22.731  0.00  0.00    +0.000 C 
ATOM     11  C   UNL     1       6.698   0.987  21.815  0.00  0.00    +0.000 C 
ATOM     12  N   UNL     1       7.587   0.930  20.715  0.00  0.00    +0.000 NA
ATOM     13  C   UNL     1       8.689   0.094  20.959  0.00  0.00    +0.000 C 
ATOM     14  C   UNL     1       8.290  -1.318  21.170  0.00  0.00    +0.000 C 
ATOM     15  C   UNL     1       9.851   0.595  21.661  0.00  0.00    +0.000 C 
BRANCH  12  16
ATOM     16  C   UNL     1       6.838   0.281  19.613  0.00  0.00    +0.000 C 
ATOM     17  O   UNL     1       7.650   0.399  18.457  0.00  0.00    +0.000 OA
ATOM     18  C   UNL     1       5.606   1.163  19.351  0.00  0.00    +0.000 C 
ENDBRANCH  12  16
ENDBRANCH   2   9
BRANCH   1  20
ATOM     19  N   UNL     1      10.041  -2.663  23.864  0.00  0.00    +0.000 NA
ATOM     20  C   UNL     1       9.596  -1.973  24.704  0.00  0.00    +0.000 C 
ENDBRANCH   1  20
BRANCH   3  21
ATOM     21  C   UNL     1       7.259  -4.526  22.439  0.00  0.00    +0.000 C 
ATOM     22  O   UNL     1       8.176  -5.299  23.156  0.00  0.00    +0.000 OA
BRANCH  21  23
ATOM     23  S   UNL     1       6.011  -5.598  21.724  0.00  0.00    +0.000 S 
ATOM     24  O   UNL     1       5.931  -5.287  20.325  0.00  0.00    +0.000 OA
ATOM     25  O   UNL     1       6.385  -6.949  22.041  0.00  0.00    +0.000 OA
ATOM     26  N   UNL     1       4.564  -5.277  22.431  0.00  0.00    +0.000 NA
ENDBRANCH  21  23
ENDBRANCH   3  21
TORSDOF 5
ENDMDL
MODEL 4
REMARK VINA RESULT:      -6.4      4.855      6.858
REMARK  Name = 
REMARK  5 active torsions:
REMARK  status: ('A' for Active; 'I' for Inactive)
REMARK    1  A    between atoms: C_2  and  C_3
REMARK    2  A    between atoms: C_4  and  N_5
REMARK    3  A    between atoms: N_8  and  C_12
REMARK    4  A    between atoms: C_15  and  C_21
REMARK    5  A    between atoms: C_21  and  S_22
REMARK                            x       y       z     vdW  Elec       q    Type
REMARK                         _______ _______ _______ _____ _____    ______ ____
ROOT
ATOM      1  C   UNL     1       8.567  -2.186  23.656  0.00  0.00    +0.000 C 
ATOM      2  C   UNL     1       7.676  -1.920  24.627  0.00  0.00    +0.000 C 
ATOM      3  C   UNL     1       6.362  -0.889  24.549  0.00  0.00    +0.000 C 
ATOM      4  C   UNL     1       6.693  -0.314  23.174  0.00  0.00    +0.000 C 
ATOM      5  C   UNL     1       7.161  -1.244  22.052  0.00  0.00    +0.000 C 
ATOM      6  C   UNL     1       8.388  -2.061  22.061  0.00  0.00    +0.000 C 
ATOM      7  F   UNL     1       8.031  -3.457  21.951  0.00  0.00    +0.000 F 
ATOM      8 CL   UNL     1       7.279  -0.099  20.637  0.00  0.00    +0.000 Cl
ENDROOT
BRANCH   2   9
ATOM      9  N   UNL     1       7.058  -3.069  25.338  0.00  0.00    +0.000 N 
ATOM     10  C   UNL     1       6.437  -4.019  24.493  0.00  0.00    +0.000 C 
ATOM     11  C   UNL     1       6.362  -5.395  25.008  0.00  0.00    +0.000 C 
ATOM     12  N   UNL     1       7.213  -5.731  26.087  0.00  0.00    +0.000 NA
ATOM     13  C   UNL     1       8.364  -4.928  26.133  0.00  0.00    +0.000 C 
ATOM     14  C   UNL     1       8.045  -3.498  26.361  0.00  0.00    +0.000 C 
ATOM     15  C   UNL     1       9.523  -5.257  25.330  0.00  0.00    +0.000 C 
BRANCH  12  16
ATOM     16  C   UNL     1       6.460  -5.410  27.323  0.00  0.00    +0.000 C 
ATOM     17  O   UNL     1       7.080  -6.141  28.367  0.00  0.00    +0.000 OA
ATOM     18  C   UNL     1       5.064  -6.029  27.150  0.00  0.00    +0.000 C 
ENDBRANCH  12  16
ENDBRANCH   2   9
BRANCH   1  20
ATOM     19  N   UNL     1      10.487  -2.391  23.083  0.00  0.00    +0.000 NA
ATOM     20  C   UNL     1       9.790  -1.705  23.734  0.00  0.00    +0.000 C 
ENDBRANCH   1  20
BRANCH   3  21
ATOM     21  C   UNL     1       6.565   0.052  25.640  0.00  0.00    +0.000 C 
ATOM     22  O   UNL     1       7.369   1.136  25.283  0.00  0.00    +0.000 OA
BRANCH  21  23
ATOM     23  S   UNL     1       4.999   0.657  26.271  0.00  0.00    +0.000 S 
ATOM     24  O   UNL     1       5.255   1.248  27.554  0.00  0.00    +0.000 OA
ATOM     25  O   UNL     1       4.458   1.540  25.276  0.00  0.00    +0.000 OA
ATOM     26  N   UNL     1       3.973  -0.612  26.458  0.00  0.00    +0.000 NA
ENDBRANCH  21  23
ENDBRANCH   3  21
TORSDOF 5
ENDMDL
MODEL 5
REMARK VINA RESULT:      -6.4      4.692      5.971
REMARK  Name = 
REMARK  5 active torsions:
REMARK  status: ('A' for Active; 'I' for Inactive)
REMARK    1  A    between atoms: C_2  and  C_3
REMARK    2  A    between atoms: C_4  and  N_5
REMARK    3  A    between atoms: N_8  and  C_12
REMARK    4  A    between atoms: C_15  and  C_21
REMARK    5  A    between atoms: C_21  and  S_22
REMARK                            x       y       z     vdW  Elec       q    Type
REMARK                         _______ _______ _______ _____ _____    ______ ____
ROOT
ATOM      1  C   UNL     1       8.189  -4.266  24.999  0.00  0.00    +0.000 C 
ATOM      2  C   UNL     1       7.158  -4.012  24.175  0.00  0.00    +0.000 C 
ATOM      3  C   UNL     1       5.531  -4.255  24.474  0.00  0.00    +0.000 C 
ATOM      4  C   UNL     1       5.722  -4.977  25.806  0.00  0.00    +0.000 C 
ATOM      5  C   UNL     1       6.743  -4.452  26.818  0.00  0.00    +0.000 C 
ATOM      6  C   UNL     1       8.198  -4.353  26.607  0.00  0.00    +0.000 C 
ATOM      7  F   UNL     1       8.603  -2.970  26.720  0.00  0.00    +0.000 F 
ATOM      8 CL   UNL     1       6.472  -5.563  28.239  0.00  0.00    +0.000 Cl
ENDROOT
BRANCH   2   9
ATOM      9  N   UNL     1       7.101  -2.679  23.521  0.00  0.00    +0.000 N 
ATOM     10  C   UNL     1       7.135  -1.584  24.416  0.00  0.00    +0.000 C 
ATOM     11  C   UNL     1       7.682  -0.326  23.883  0.00  0.00    +0.000 C 
ATOM     12  N   UNL     1       8.450  -0.404  22.697  0.00  0.00    +0.000 NA
ATOM     13  C   UNL     1       9.043  -1.665  22.524  0.00  0.00    +0.000 C 
ATOM     14  C   UNL     1       8.038  -2.745  22.371  0.00  0.00    +0.000 C 
ATOM     15  C   UNL     1      10.302  -1.980  23.165  0.00  0.00    +0.000 C 
BRANCH  12  16
ATOM     16  C   UNL     1       7.491  -0.263  21.575  0.00  0.00    +0.000 C 
ATOM     17  O   UNL     1       8.272  -0.148  20.397  0.00  0.00    +0.000 OA
ATOM     18  C   UNL     1       6.809   1.102  21.760  0.00  0.00    +0.000 C 
ENDBRANCH  12  16
ENDBRANCH   2   9
BRANCH   1  20
ATOM     19  N   UNL     1      10.082  -4.954  25.023  0.00  0.00    +0.000 NA
ATOM     20  C   UNL     1       8.985  -5.288  24.764  0.00  0.00    +0.000 C 
ENDBRANCH   1  20
BRANCH   3  21
ATOM     21  C   UNL     1       5.084  -5.125  23.397  0.00  0.00    +0.000 C 
ATOM     22  O   UNL     1       6.014  -6.117  23.075  0.00  0.00    +0.000 OA
BRANCH  21  23
ATOM     23  S   UNL     1       3.513  -5.893  23.797  0.00  0.00    +0.000 S 
ATOM     24  O   UNL     1       2.889  -5.087  24.807  0.00  0.00    +0.000 OA
ATOM     25  O   UNL     1       2.783  -6.024  22.566  0.00  0.00    +0.000 OA
ATOM     26  N   UNL     1       3.792  -7.395  24.401  0.00  0.00    +0.000 NA
ENDBRANCH  21  23
ENDBRANCH   3  21
TORSDOF 5
ENDMDL
MODEL 6
REMARK VINA RESULT:      -6.0      5.048      6.996
REMARK  Name = 
REMARK  5 active torsions:
REMARK  status: ('A' for Active; 'I' for Inactive)
REMARK    1  A    between atoms: C_2  and  C_3
REMARK    2  A    between atoms: C_4  and  N_5
REMARK    3  A    between atoms: N_8  and  C_12
REMARK    4  A    between atoms: C_15  and  C_21
REMARK    5  A    between atoms: C_21  and  S_22
REMARK                            x       y       z     vdW  Elec       q    Type
REMARK                         _______ _______ _______ _____ _____    ______ ____
ROOT
ATOM      1  C   UNL     1       7.274  -1.456  25.031  0.00  0.00    +0.000 C 
ATOM      2  C   UNL     1       6.632  -2.559  24.610  0.00  0.00    +0.000 C 
ATOM      3  C   UNL     1       7.088  -3.596  23.380  0.00  0.00    +0.000 C 
ATOM      4  C   UNL     1       8.259  -2.750  22.886  0.00  0.00    +0.000 C 
ATOM      5  C   UNL     1       9.207  -2.097  23.895  0.00  0.00    +0.000 C 
ATOM      6  C   UNL     1       8.836  -1.086  24.902  0.00  0.00    +0.000 C 
ATOM      7  F   UNL     1       9.110  -1.605  26.222  0.00  0.00    +0.000 F 
ATOM      8 CL   UNL     1      10.461  -1.347  22.805  0.00  0.00    +0.000 Cl
ENDROOT
BRANCH   2   9
ATOM      9  N   UNL     1       6.204  -3.549  25.633  0.00  0.00    +0.000 N 
ATOM     10  C   UNL     1       5.753  -4.782  25.105  0.00  0.00    +0.000 C 
ATOM     11  C   UNL     1       5.899  -5.955  25.981  0.00  0.00    +0.000 C 
ATOM     12  N   UNL     1       6.786  -5.840  27.077  0.00  0.00    +0.000 NA
ATOM     13  C   UNL     1       7.790  -4.883  26.856  0.00  0.00    +0.000 C 
ATOM     14  C   UNL     1       7.241  -3.515  26.696  0.00  0.00    +0.000 C 
ATOM     15  C   UNL     1       8.993  -5.233  26.131  0.00  0.00    +0.000 C 
BRANCH  12  16
ATOM     16  C   UNL     1       5.981  -5.312  28.205  0.00  0.00    +0.000 C 
ATOM     17  O   UNL     1       6.603  -5.781  29.390  0.00  0.00    +0.000 OA
ATOM     18  C   UNL     1       4.621  -6.025  28.135  0.00  0.00    +0.000 C 
ENDBRANCH  12  16
ENDBRANCH   2   9
BRANCH   1  20
ATOM     19  N   UNL     1       5.623  -0.370  24.645  0.00  0.00    +0.000 NA
ATOM     20  C   UNL     1       6.788  -0.264  24.755  0.00  0.00    +0.000 C 
ENDBRANCH   1  20
BRANCH   3  21
ATOM     21  C   UNL     1       5.953  -3.611  22.470  0.00  0.00    +0.000 C 
ATOM     22  O   UNL     1       5.951  -2.532  21.583  0.00  0.00    +0.000 OA
BRANCH  21  23
ATOM     23  S   UNL     1       5.890  -5.143  21.541  0.00  0.00    +0.000 S 
ATOM     24  O   UNL     1       4.727  -5.861  21.978  0.00  0.00    +0.000 OA
ATOM     25  O   UNL     1       5.917  -4.792  20.147  0.00  0.00    +0.000 OA
ATOM     26  N   UNL     1       7.230  -6.030  21.882  0.00  0.00    +0.000 NA
ENDBRANCH  21  23
ENDBRANCH   3  21
TORSDOF 5
ENDMDL
MODEL 7
REMARK VINA RESULT:      -6.0      3.930      5.027
REMARK  Name = 
REMARK  5 active torsions:
REMARK  status: ('A' for Active; 'I' for Inactive)
REMARK    1  A    between atoms: C_2  and  C_3
REMARK    2  A    between atoms: C_4  and  N_5
REMARK    3  A    between atoms: N_8  and  C_12
REMARK    4  A    between atoms: C_15  and  C_21
REMARK    5  A    between atoms: C_21  and  S_22
REMARK                            x       y       z     vdW  Elec       q    Type
REMARK                         _______ _______ _______ _____ _____    ______ ____
ROOT
ATOM      1  C   UNL     1       8.127  -3.009  23.647  0.00  0.00    +0.000 C 
ATOM      2  C   UNL     1       7.527  -1.875  24.049  0.00  0.00    +0.000 C 
ATOM      3  C   UNL     1       6.766  -1.588  25.510  0.00  0.00    +0.000 C 
ATOM      4  C   UNL     1       6.856  -3.024  26.020  0.00  0.00    +0.000 C 
ATOM      5  C   UNL     1       8.149  -3.820  25.833  0.00  0.00    +0.000 C 
ATOM      6  C   UNL     1       8.760  -4.188  24.543  0.00  0.00    +0.000 C 
ATOM      7  F   UNL     1      10.078  -3.600  24.456  0.00  0.00    +0.000 F 
ATOM      8 CL   UNL     1       7.770  -5.369  26.718  0.00  0.00    +0.000 Cl
ENDROOT
BRANCH   2   9
ATOM      9  N   UNL     1       8.274  -0.600  23.895  0.00  0.00    +0.000 N 
ATOM     10  C   UNL     1       9.677  -0.750  23.791  0.00  0.00    +0.000 C 
ATOM     11  C   UNL     1      10.391   0.307  23.057  0.00  0.00    +0.000 C 
ATOM     12  N   UNL     1       9.621   1.150  22.221  0.00  0.00    +0.000 NA
ATOM     13  C   UNL     1       8.441   0.530  21.776  0.00  0.00    +0.000 C 
ATOM     14  C   UNL     1       7.523   0.197  22.892  0.00  0.00    +0.000 C 
ATOM     15  C   UNL     1       8.457  -0.333  20.615  0.00  0.00    +0.000 C 
BRANCH  12  16
ATOM     16  C   UNL     1       9.175   2.279  23.072  0.00  0.00    +0.000 C 
ATOM     17  O   UNL     1       8.473   3.167  22.218  0.00  0.00    +0.000 OA
ATOM     18  C   UNL     1      10.448   3.026  23.498  0.00  0.00    +0.000 C 
ENDBRANCH  12  16
ENDBRANCH   2   9
BRANCH   1  20
ATOM     19  N   UNL     1       6.687  -3.150  22.246  0.00  0.00    +0.000 NA
ATOM     20  C   UNL     1       7.557  -3.769  22.735  0.00  0.00    +0.000 C 
ENDBRANCH   1  20
BRANCH   3  21
ATOM     21  C   UNL     1       5.417  -1.178  25.149  0.00  0.00    +0.000 C 
ATOM     22  O   UNL     1       4.469  -2.182  25.358  0.00  0.00    +0.000 OA
BRANCH  21  23
ATOM     23  S   UNL     1       4.928   0.296  26.046  0.00  0.00    +0.000 S 
ATOM     24  O   UNL     1       5.951   0.564  27.017  0.00  0.00    +0.000 OA
ATOM     25  O   UNL     1       4.710   1.329  25.071  0.00  0.00    +0.000 OA
ATOM     26  N   UNL     1       3.511   0.003  26.823  0.00  0.00    +0.000 NA
ENDBRANCH  21  23
ENDBRANCH   3  21
TORSDOF 5
ENDMDL
MODEL 8
REMARK VINA RESULT:      -6.0      4.184      5.592
REMARK  Name = 
REMARK  5 active torsions:
REMARK  status: ('A' for Active; 'I' for Inactive)
REMARK    1  A    between atoms: C_2  and  C_3
REMARK    2  A    between atoms: C_4  and  N_5
REMARK    3  A    between atoms: N_8  and  C_12
REMARK    4  A    between atoms: C_15  and  C_21
REMARK    5  A    between atoms: C_21  and  S_22
REMARK                            x       y       z     vdW  Elec       q    Type
REMARK                         _______ _______ _______ _____ _____    ______ ____
ROOT
ATOM      1  C   UNL     1       8.791  -0.010  24.703  0.00  0.00    +0.000 C 
ATOM      2  C   UNL     1       7.962  -0.884  24.108  0.00  0.00    +0.000 C 
ATOM      3  C   UNL     1       6.598  -1.599  24.759  0.00  0.00    +0.000 C 
ATOM      4  C   UNL     1       6.800  -1.066  26.176  0.00  0.00    +0.000 C 
ATOM      5  C   UNL     1       7.230   0.388  26.389  0.00  0.00    +0.000 C 
ATOM      6  C   UNL     1       8.492   0.994  25.926  0.00  0.00    +0.000 C 
ATOM      7  F   UNL     1       8.194   2.077  25.017  0.00  0.00    +0.000 F 
ATOM      8 CL   UNL     1       7.190   0.531  28.206  0.00  0.00    +0.000 Cl
ENDROOT
BRANCH   2   9
ATOM      9  N   UNL     1       7.453  -0.548  22.753  0.00  0.00    +0.000 N 
ATOM     10  C   UNL     1       6.662   0.623  22.696  0.00  0.00    +0.000 C 
ATOM     11  C   UNL     1       6.643   1.332  21.407  0.00  0.00    +0.000 C 
ATOM     12  N   UNL     1       7.668   1.023  20.482  0.00  0.00    +0.000 NA
ATOM     13  C   UNL     1       8.830   0.544  21.109  0.00  0.00    +0.000 C 
ATOM     14  C   UNL     1       8.598  -0.733  21.827  0.00  0.00    +0.000 C 
ATOM     15  C   UNL     1       9.812   1.465  21.639  0.00  0.00    +0.000 C 
BRANCH  12  16
ATOM     16  C   UNL     1       7.163  -0.111  19.671  0.00  0.00    +0.000 C 
ATOM     17  O   UNL     1       7.884  -0.079  18.450  0.00  0.00    +0.000 OA
ATOM     18  C   UNL     1       5.710   0.232  19.308  0.00  0.00    +0.000 C 
ENDBRANCH  12  16
ENDBRANCH   2   9
BRANCH   1  20
ATOM     19  N   UNL     1      10.751   0.452  24.781  0.00  0.00    +0.000 NA
ATOM     20  C   UNL     1       9.993  -0.393  25.082  0.00  0.00    +0.000 C 
ENDBRANCH   1  20
BRANCH   3  21
ATOM     21  C   UNL     1       6.835  -3.029  24.633  0.00  0.00    +0.000 C 
ATOM     22  O   UNL     1       7.861  -3.487  25.463  0.00  0.00    +0.000 OA
BRANCH  21  23
ATOM     23  S   UNL     1       5.341  -3.963  24.967  0.00  0.00    +0.000 S 
ATOM     24  O   UNL     1       5.304  -5.056  24.037  0.00  0.00    +0.000 OA
ATOM     25  O   UNL     1       5.375  -4.329  26.356  0.00  0.00    +0.000 OA
ATOM     26  N   UNL     1       4.039  -2.995  24.713  0.00  0.00    +0.000 NA
ENDBRANCH  21  23
ENDBRANCH   3  21
TORSDOF 5
ENDMDL
MODEL 9
REMARK VINA RESULT:      -5.9      3.317      4.742
REMARK  Name = 
REMARK  5 active torsions:
REMARK  status: ('A' for Active; 'I' for Inactive)
REMARK    1  A    between atoms: C_2  and  C_3
REMARK    2  A    between atoms: C_4  and  N_5
REMARK    3  A    between atoms: N_8  and  C_12
REMARK    4  A    between atoms: C_15  and  C_21
REMARK    5  A    between atoms: C_21  and  S_22
REMARK                            x       y       z     vdW  Elec       q    Type
REMARK                         _______ _______ _______ _____ _____    ______ ____
ROOT
ATOM      1  C   UNL     1       8.123  -1.103  22.606  0.00  0.00    +0.000 C 
ATOM      2  C   UNL     1       8.231   0.056  23.278  0.00  0.00    +0.000 C 
ATOM      3  C   UNL     1       8.162   1.605  22.652  0.00  0.00    +0.000 C 
ATOM      4  C   UNL     1       8.137   1.183  21.185  0.00  0.00    +0.000 C 
ATOM      5  C   UNL     1       7.262   0.007  20.745  0.00  0.00    +0.000 C 
ATOM      6  C   UNL     1       7.398  -1.390  21.197  0.00  0.00    +0.000 C 
ATOM      7  F   UNL     1       6.180  -1.797  21.860  0.00  0.00    +0.000 F 
ATOM      8 CL   UNL     1       7.492   0.021  18.936  0.00  0.00    +0.000 Cl
ENDROOT
BRANCH   2   9
ATOM      9  N   UNL     1       7.401   0.235  24.496  0.00  0.00    +0.000 N 
ATOM     10  C   UNL     1       6.202  -0.516  24.506  0.00  0.00    +0.000 C 
ATOM     11  C   UNL     1       5.669  -0.871  25.831  0.00  0.00    +0.000 C 
ATOM     12  N   UNL     1       6.551  -0.773  26.933  0.00  0.00    +0.000 NA
ATOM     13  C   UNL     1       7.897  -0.908  26.556  0.00  0.00    +0.000 C 
ATOM     14  C   UNL     1       8.340   0.176  25.645  0.00  0.00    +0.000 C 
ATOM     15  C   UNL     1       8.491  -2.220  26.406  0.00  0.00    +0.000 C 
BRANCH  12  16
ATOM     16  C   UNL     1       6.423   0.613  27.442  0.00  0.00    +0.000 C 
ATOM     17  O   UNL     1       7.130   0.652  28.671  0.00  0.00    +0.000 OA
ATOM     18  C   UNL     1       4.942   0.804  27.805  0.00  0.00    +0.000 C 
ENDBRANCH  12  16
ENDBRANCH   2   9
BRANCH   1  20
ATOM     19  N   UNL     1      10.092  -1.341  22.955  0.00  0.00    +0.000 NA
ATOM     20  C   UNL     1       9.186  -1.855  22.413  0.00  0.00    +0.000 C 
ENDBRANCH   1  20
BRANCH   3  21
ATOM     21  C   UNL     1       9.414   2.225  23.061  0.00  0.00    +0.000 C 
ATOM     22  O   UNL     1      10.362   2.266  22.036  0.00  0.00    +0.000 OA
BRANCH  21  23
ATOM     23  S   UNL     1       9.140   3.884  23.684  0.00  0.00    +0.000 S 
ATOM     24  O   UNL     1      10.423   4.519  23.786  0.00  0.00    +0.000 OA
ATOM     25  O   UNL     1       8.202   4.516  22.798  0.00  0.00    +0.000 OA
ATOM     26  N   UNL     1       8.465   3.789  25.178  0.00  0.00    +0.000 NA
ENDBRANCH  21  23
ENDBRANCH   3  21
TORSDOF 5
ENDMDL
