MODEL 1
REMARK VINA RESULT:      -7.1      0.000      0.000
REMARK  Name = 
REMARK  5 active torsions:
REMARK  status: ('A' for Active; 'I' for Inactive)
REMARK    1  A    between atoms: C_2  and  C_12
REMARK    2  A    between atoms: N_3  and  C_4
REMARK    3  A    between atoms: C_12  and  N_13
REMARK    4  A    between atoms: N_16  and  C_19
REMARK    5  A    between atoms: C_19  and  N_20
REMARK                            x       y       z     vdW  Elec       q    Type
REMARK                         _______ _______ _______ _____ _____    ______ ____
ROOT
ATOM      1  N   UNL     1       7.317  -2.721  22.928  0.00  0.00    +0.000 NA
ATOM      2  C   UNL     1       7.234  -3.626  21.897  0.00  0.00    +0.000 C 
ATOM      3  C   UNL     1       5.966  -4.427  21.830  0.00  0.00    +0.000 C 
ATOM      4  N   UNL     1       5.394  -4.619  23.121  0.00  0.00    +0.000 NA
ATOM      5  C   UNL     1       5.066  -3.358  23.690  0.00  0.00    +0.000 C 
ATOM      6  C   UNL     1       6.160  -2.349  23.569  0.00  0.00    +0.000 C 
ENDROOT
BRANCH   1   7
ATOM      7  C   UNL     1       8.419  -2.927  23.787  0.00  0.00    +0.000 C 
BRANCH   7   9
ATOM      8  O   UNL     1      10.464  -2.312  22.759  0.00  0.00    +0.000 OA
ATOM      9  C   UNL     1       9.541  -1.924  23.480  0.00  0.00    +0.000 C 
ATOM     10  N   UNL     1       9.793  -1.064  24.480  0.00  0.00    +0.000 NA
BRANCH  10  11
ATOM     11  C   UNL     1       9.516   0.237  24.084  0.00  0.00    +0.000 A 
ATOM     12  C   UNL     1       8.413   0.686  25.278  0.00  0.00    +0.000 A 
ATOM     13  N   UNL     1       7.282   1.000  24.626  0.00  0.00    +0.000 NA
ATOM     14  C   UNL     1       6.766   1.170  23.428  0.00  0.00    +0.000 A 
ATOM     15  C   UNL     1       7.660   0.858  22.205  0.00  0.00    +0.000 A 
ATOM     16  C   UNL     1       9.062   0.601  22.753  0.00  0.00    +0.000 A 
ATOM     17  C   UNL     1       9.996   1.614  21.964  0.00  0.00    +0.000 C 
ATOM     18  O   UNL     1       7.192   0.175  21.186  0.00  0.00    +0.000 OA
ENDBRANCH  10  11
ENDBRANCH   7   9
ENDBRANCH   1   7
BRANCH   4  19
ATOM     19  C   UNL     1       6.346  -5.281  23.968  0.00  0.00    +0.000 C 
BRANCH  19  20
ATOM     20  N   UNL     1       5.928  -5.252  25.337  0.00  0.00    +0.000 NA
ATOM     21  C   UNL     1       5.257  -6.485  25.645  0.00  0.00    +0.000 C 
ATOM     22  C   UNL     1       4.683  -6.410  27.054  0.00  0.00    +0.000 C 
ATOM     23  N   UNL     1       5.694  -5.970  27.983  0.00  0.00    +0.000 N 
ATOM     24  C   UNL     1       6.672  -4.967  27.614  0.00  0.00    +0.000 C 
ATOM     25  C   UNL     1       7.099  -5.171  26.168  0.00  0.00    +0.000 C 
ATOM     26  C   UNL     1       5.808  -6.583  29.192  0.00  0.00    +0.000 C 
ATOM     27  O   UNL     1       6.517  -7.568  29.297  0.00  0.00    +0.000 OA
ATOM     28  C   UNL     1       5.551  -5.684  30.387  0.00  0.00    +0.000 C 
ENDBRANCH  19  20
ENDBRANCH   4  19
TORSDOF 5
ENDMDL
MODEL 2
REMARK VINA RESULT:      -6.8      2.929      7.965
REMARK  Name = 
REMARK  5 active torsions:
REMARK  status: ('A' for Active; 'I' for Inactive)
REMARK    1  A    between atoms: C_2  and  C_12
REMARK    2  A    between atoms: N_3  and  C_4
REMARK    3  A    between atoms: C_12  and  N_13
REMARK    4  A    between atoms: N_16  and  C_19
REMARK    5  A    between atoms: C_19  and  N_20
REMARK                            x       y       z     vdW  Elec       q    Type
REMARK                         _______ _______ _______ _____ _____    ______ ____
ROOT
ATOM      1  N   UNL     1       7.330  -2.727  26.077  0.00  0.00    +0.000 NA
ATOM      2  C   UNL     1       8.566  -2.263  26.458  0.00  0.00    +0.000 C 
ATOM      3  C   UNL     1       8.797  -0.790  26.282  0.00  0.00    +0.000 C 
ATOM      4  N   UNL     1       8.037  -0.263  25.198  0.00  0.00    +0.000 NA
ATOM      5  C   UNL     1       6.650  -0.444  25.455  0.00  0.00    +0.000 C 
ATOM      6  C   UNL     1       6.308  -1.820  25.926  0.00  0.00    +0.000 C 
ENDROOT
BRANCH   1   7
ATOM      7  C   UNL     1       7.372  -3.727  25.082  0.00  0.00    +0.000 C 
BRANCH   7   9
ATOM      8  O   UNL     1       7.485  -5.756  26.303  0.00  0.00    +0.000 OA
ATOM      9  C   UNL     1       6.764  -5.037  25.605  0.00  0.00    +0.000 C 
ATOM     10  N   UNL     1       5.875  -5.598  24.770  0.00  0.00    +0.000 NA
BRANCH  10  11
ATOM     11  C   UNL     1       4.615  -5.632  25.353  0.00  0.00    +0.000 A 
ATOM     12  C   UNL     1       4.484  -7.280  25.689  0.00  0.00    +0.000 A 
ATOM     13  N   UNL     1       3.404  -7.702  25.012  0.00  0.00    +0.000 NA
ATOM     14  C   UNL     1       2.389  -7.293  24.282  0.00  0.00    +0.000 A 
ATOM     15  C   UNL     1       2.316  -5.791  23.922  0.00  0.00    +0.000 A 
ATOM     16  C   UNL     1       3.416  -5.103  24.727  0.00  0.00    +0.000 A 
ATOM     17  C   UNL     1       2.669  -3.958  25.535  0.00  0.00    +0.000 C 
ATOM     18  O   UNL     1       2.022  -5.405  22.701  0.00  0.00    +0.000 OA
ENDBRANCH  10  11
ENDBRANCH   7   9
ENDBRANCH   1   7
BRANCH   4  19
ATOM     19  C   UNL     1       8.384  -0.960  23.992  0.00  0.00    +0.000 C 
BRANCH  19  20
ATOM     20  N   UNL     1       7.624  -0.477  22.879  0.00  0.00    +0.000 NA
ATOM     21  C   UNL     1       8.372   0.558  22.218  0.00  0.00    +0.000 C 
ATOM     22  C   UNL     1       7.518   1.177  21.121  0.00  0.00    +0.000 C 
ATOM     23  N   UNL     1       6.954   0.147  20.284  0.00  0.00    +0.000 N 
ATOM     24  C   UNL     1       6.504  -1.113  20.839  0.00  0.00    +0.000 C 
ATOM     25  C   UNL     1       7.451  -1.557  21.944  0.00  0.00    +0.000 C 
ATOM     26  C   UNL     1       6.944   0.310  18.934  0.00  0.00    +0.000 C 
ATOM     27  O   UNL     1       7.905  -0.056  18.281  0.00  0.00    +0.000 OA
ATOM     28  C   UNL     1       5.561   0.362  18.311  0.00  0.00    +0.000 C 
ENDBRANCH  19  20
ENDBRANCH   4  19
TORSDOF 5
ENDMDL
MODEL 3
REMARK VINA RESULT:      -6.7      2.512      7.394
REMARK  Name = 
REMARK  5 active torsions:
REMARK  status: ('A' for Active; 'I' for Inactive)
REMARK    1  A    between atoms: C_2  and  C_12
REMARK    2  A    between atoms: N_3  and  C_4
REMARK    3  A    between atoms: C_12  and  N_13
REMARK    4  A    between atoms: N_16  and  C_19
REMARK    5  A    between atoms: C_19  and  N_20
REMARK                            x       y       z     vdW  Elec       q    Type
REMARK                         _______ _______ _______ _____ _____    ______ ____
ROOT
ATOM      1  N   UNL     1       7.101  -4.884  26.022  0.00  0.00    +0.000 NA
ATOM      2  C   UNL     1       7.059  -5.046  24.658  0.00  0.00    +0.000 C 
ATOM      3  C   UNL     1       8.389  -5.110  23.964  0.00  0.00    +0.000 C 
ATOM      4  N   UNL     1       9.382  -4.360  24.657  0.00  0.00    +0.000 NA
ATOM      5  C   UNL     1       9.562  -4.896  25.962  0.00  0.00    +0.000 C 
ATOM      6  C   UNL     1       8.278  -5.158  26.679  0.00  0.00    +0.000 C 
ENDROOT
BRANCH   1   7
ATOM      7  C   UNL     1       6.430  -3.732  26.486  0.00  0.00    +0.000 C 
BRANCH   7   9
ATOM      8  O   UNL     1       4.657  -3.452  28.034  0.00  0.00    +0.000 OA
ATOM      9  C   UNL     1       5.055  -4.101  27.062  0.00  0.00    +0.000 C 
ATOM     10  N   UNL     1       4.755  -5.405  26.965  0.00  0.00    +0.000 NA
BRANCH  10  11
ATOM     11  C   UNL     1       3.649  -5.590  26.146  0.00  0.00    +0.000 A 
ATOM     12  C   UNL     1       3.870  -7.202  25.701  0.00  0.00    +0.000 A 
ATOM     13  N   UNL     1       3.975  -7.197  24.362  0.00  0.00    +0.000 NA
ATOM     14  C   UNL     1       3.878  -6.429  23.298  0.00  0.00    +0.000 A 
ATOM     15  C   UNL     1       3.617  -4.921  23.516  0.00  0.00    +0.000 A 
ATOM     16  C   UNL     1       3.334  -4.745  25.007  0.00  0.00    +0.000 A 
ATOM     17  C   UNL     1       1.926  -4.012  25.066  0.00  0.00    +0.000 C 
ATOM     18  O   UNL     1       4.290  -4.017  22.840  0.00  0.00    +0.000 OA
ENDBRANCH  10  11
ENDBRANCH   7   9
ENDBRANCH   1   7
BRANCH   4  19
ATOM     19  C   UNL     1       8.955  -2.994  24.768  0.00  0.00    +0.000 C 
BRANCH  19  20
ATOM     20  N   UNL     1       8.492  -2.493  23.510  0.00  0.00    +0.000 NA
ATOM     21  C   UNL     1       7.419  -1.565  23.745  0.00  0.00    +0.000 C 
ATOM     22  C   UNL     1       6.824  -1.133  22.412  0.00  0.00    +0.000 C 
ATOM     23  N   UNL     1       7.867  -0.706  21.512  0.00  0.00    +0.000 N 
ATOM     24  C   UNL     1       9.152  -1.375  21.476  0.00  0.00    +0.000 C 
ATOM     25  C   UNL     1       9.568  -1.769  22.885  0.00  0.00    +0.000 C 
ATOM     26  C   UNL     1       7.690   0.413  20.761  0.00  0.00    +0.000 C 
ATOM     27  O   UNL     1       8.007   1.497  21.219  0.00  0.00    +0.000 OA
ATOM     28  C   UNL     1       7.689   0.179  19.262  0.00  0.00    +0.000 C 
ENDBRANCH  19  20
ENDBRANCH   4  19
TORSDOF 5
ENDMDL
MODEL 4
REMARK VINA RESULT:      -6.7      2.679      7.342
REMARK  Name = 
REMARK  5 active torsions:
REMARK  status: ('A' for Active; 'I' for Inactive)
REMARK    1  A    between atoms: C_2  and  C_12
REMARK    2  A    between atoms: N_3  and  C_4
REMARK    3  A    between atoms: C_12  and  N_13
REMARK    4  A    between atoms: N_16  and  C_19
REMARK    5  A    between atoms: C_19  and  N_20
REMARK                            x       y       z     vdW  Elec       q    Type
REMARK                         _______ _______ _______ _____ _____    ______ ____
ROOT
ATOM      1  N   UNL     1       7.989  -2.046  26.204  0.00  0.00    +0.000 NA
ATOM      2  C   UNL     1       8.621  -0.951  26.742  0.00  0.00    +0.000 C 
ATOM      3  C   UNL     1       7.925   0.365  26.556  0.00  0.00    +0.000 C 
ATOM      4  N   UNL     1       7.151   0.388  25.360  0.00  0.00    +0.000 NA
ATOM      5  C   UNL     1       6.145  -0.615  25.422  0.00  0.00    +0.000 C 
ATOM      6  C   UNL     1       6.657  -1.941  25.882  0.00  0.00    +0.000 C 
ENDROOT
BRANCH   1   7
ATOM      7  C   UNL     1       8.764  -2.750  25.255  0.00  0.00    +0.000 C 
BRANCH   7   9
ATOM      8  O   UNL     1       8.965  -4.756  26.500  0.00  0.00    +0.000 OA
ATOM      9  C   UNL     1       8.590  -4.265  25.431  0.00  0.00    +0.000 C 
ATOM     10  N   UNL     1       8.723  -4.966  24.294  0.00  0.00    +0.000 NA
BRANCH  10  11
ATOM     11  C   UNL     1       7.532  -5.603  23.974  0.00  0.00    +0.000 A 
ATOM     12  C   UNL     1       7.849  -6.048  22.378  0.00  0.00    +0.000 A 
ATOM     13  N   UNL     1       6.902  -5.446  21.639  0.00  0.00    +0.000 NA
ATOM     14  C   UNL     1       5.798  -4.734  21.715  0.00  0.00    +0.000 A 
ATOM     15  C   UNL     1       5.322  -4.283  23.115  0.00  0.00    +0.000 A 
ATOM     16  C   UNL     1       6.221  -4.995  24.124  0.00  0.00    +0.000 A 
ATOM     17  C   UNL     1       5.218  -5.760  25.089  0.00  0.00    +0.000 C 
ATOM     18  O   UNL     1       4.908  -3.054  23.322  0.00  0.00    +0.000 OA
ENDBRANCH  10  11
ENDBRANCH   7   9
ENDBRANCH   1   7
BRANCH   4  19
ATOM     19  C   UNL     1       8.005   0.124  24.236  0.00  0.00    +0.000 C 
BRANCH  19  20
ATOM     20  N   UNL     1       7.281   0.208  23.005  0.00  0.00    +0.000 NA
ATOM     21  C   UNL     1       7.793   1.311  22.238  0.00  0.00    +0.000 C 
ATOM     22  C   UNL     1       6.939   1.500  20.991  0.00  0.00    +0.000 C 
ATOM     23  N   UNL     1       6.779   0.245  20.298  0.00  0.00    +0.000 N 
ATOM     24  C   UNL     1       6.626  -1.001  21.022  0.00  0.00    +0.000 C 
ATOM     25  C   UNL     1       7.520  -0.995  22.253  0.00  0.00    +0.000 C 
ATOM     26  C   UNL     1       6.886   0.208  18.944  0.00  0.00    +0.000 C 
ATOM     27  O   UNL     1       7.981   0.045  18.435  0.00  0.00    +0.000 OA
ATOM     28  C   UNL     1       5.625  -0.227  18.219  0.00  0.00    +0.000 C 
ENDBRANCH  19  20
ENDBRANCH   4  19
TORSDOF 5
ENDMDL
MODEL 5
REMARK VINA RESULT:      -6.7      2.556      7.490
REMARK  Name = 
REMARK  5 active torsions:
REMARK  status: ('A' for Active; 'I' for Inactive)
REMARK    1  A    between atoms: C_2  and  C_12
REMARK    2  A    between atoms: N_3  and  C_4
REMARK    3  A    between atoms: C_12  and  N_13
REMARK    4  A    between atoms: N_16  and  C_19
REMARK    5  A    between atoms: C_19  and  N_20
REMARK                            x       y       z     vdW  Elec       q    Type
REMARK                         _______ _______ _______ _____ _____    ______ ____
ROOT
ATOM      1  N   UNL     1       8.489  -4.156  25.765  0.00  0.00    +0.000 NA
ATOM      2  C   UNL     1       9.443  -4.042  24.783  0.00  0.00    +0.000 C 
ATOM      3  C   UNL     1       9.673  -2.657  24.250  0.00  0.00    +0.000 C 
ATOM      4  N   UNL     1       8.496  -1.860  24.328  0.00  0.00    +0.000 NA
ATOM      5  C   UNL     1       8.097  -1.727  25.687  0.00  0.00    +0.000 C 
ATOM      6  C   UNL     1       8.098  -3.020  26.435  0.00  0.00    +0.000 C 
ENDROOT
BRANCH   1   7
ATOM      7  C   UNL     1       7.432  -5.035  25.443  0.00  0.00    +0.000 C 
BRANCH   7   9
ATOM      8  O   UNL     1       7.363  -5.842  27.671  0.00  0.00    +0.000 OA
ATOM      9  C   UNL     1       6.682  -5.468  26.711  0.00  0.00    +0.000 C 
ATOM     10  N   UNL     1       5.495  -6.047  26.473  0.00  0.00    +0.000 NA
BRANCH  10  11
ATOM     11  C   UNL     1       4.466  -5.282  27.005  0.00  0.00    +0.000 A 
ATOM     12  C   UNL     1       3.143  -5.960  26.207  0.00  0.00    +0.000 A 
ATOM     13  N   UNL     1       2.581  -4.954  25.518  0.00  0.00    +0.000 NA
ATOM     14  C   UNL     1       2.630  -3.654  25.319  0.00  0.00    +0.000 A 
ATOM     15  C   UNL     1       3.752  -2.856  26.023  0.00  0.00    +0.000 A 
ATOM     16  C   UNL     1       4.437  -3.830  26.979  0.00  0.00    +0.000 A 
ATOM     17  C   UNL     1       4.364  -3.121  28.399  0.00  0.00    +0.000 C 
ATOM     18  O   UNL     1       4.439  -1.944  25.373  0.00  0.00    +0.000 OA
ENDBRANCH  10  11
ENDBRANCH   7   9
ENDBRANCH   1   7
BRANCH   4  19
ATOM     19  C   UNL     1       7.441  -2.496  23.591  0.00  0.00    +0.000 C 
BRANCH  19  20
ATOM     20  N   UNL     1       6.898  -1.618  22.601  0.00  0.00    +0.000 NA
ATOM     21  C   UNL     1       7.857  -0.585  22.318  0.00  0.00    +0.000 C 
ATOM     22  C   UNL     1       7.238   0.435  21.372  0.00  0.00    +0.000 C 
ATOM     23  N   UNL     1       6.644  -0.228  20.238  0.00  0.00    +0.000 N 
ATOM     24  C   UNL     1       5.960  -1.498  20.381  0.00  0.00    +0.000 C 
ATOM     25  C   UNL     1       6.693  -2.368  21.390  0.00  0.00    +0.000 C 
ATOM     26  C   UNL     1       6.823   0.283  18.991  0.00  0.00    +0.000 C 
ATOM     27  O   UNL     1       7.797  -0.052  18.342  0.00  0.00    +0.000 OA
ATOM     28  C   UNL     1       5.548   0.727  18.298  0.00  0.00    +0.000 C 
ENDBRANCH  19  20
ENDBRANCH   4  19
TORSDOF 5
ENDMDL
MODEL 6
REMARK VINA RESULT:      -6.6      2.755      4.090
REMARK  Name = 
REMARK  5 active torsions:
REMARK  status: ('A' for Active; 'I' for Inactive)
REMARK    1  A    between atoms: C_2  and  C_12
REMARK    2  A    between atoms: N_3  and  C_4
REMARK    3  A    between atoms: C_12  and  N_13
REMARK    4  A    between atoms: N_16  and  C_19
REMARK    5  A    between atoms: C_19  and  N_20
REMARK                            x       y       z     vdW  Elec       q    Type
REMARK                         _______ _______ _______ _____ _____    ______ ____
ROOT
ATOM      1  N   UNL     1       8.324  -1.159  25.479  0.00  0.00    +0.000 NA
ATOM      2  C   UNL     1       7.935  -2.199  26.288  0.00  0.00    +0.000 C 
ATOM      3  C   UNL     1       8.401  -3.564  25.871  0.00  0.00    +0.000 C 
ATOM      4  N   UNL     1       8.564  -3.657  24.458  0.00  0.00    +0.000 NA
ATOM      5  C   UNL     1       9.548  -2.725  24.028  0.00  0.00    +0.000 C 
ATOM      6  C   UNL     1       9.369  -1.361  24.608  0.00  0.00    +0.000 C 
ENDROOT
BRANCH   1   7
ATOM      7  C   UNL     1       7.252  -0.416  24.940  0.00  0.00    +0.000 C 
BRANCH   7   9
ATOM      8  O   UNL     1       8.191   1.654  25.610  0.00  0.00    +0.000 OA
ATOM      9  C   UNL     1       7.677   1.035  24.673  0.00  0.00    +0.000 C 
ATOM     10  N   UNL     1       6.892   1.683  23.798  0.00  0.00    +0.000 NA
BRANCH  10  11
ATOM     11  C   UNL     1       7.612   2.032  22.664  0.00  0.00    +0.000 A 
ATOM     12  C   UNL     1       6.350   2.318  21.582  0.00  0.00    +0.000 A 
ATOM     13  N   UNL     1       6.537   1.455  20.571  0.00  0.00    +0.000 NA
ATOM     14  C   UNL     1       7.372   0.560  20.087  0.00  0.00    +0.000 A 
ATOM     15  C   UNL     1       8.624   0.212  20.924  0.00  0.00    +0.000 A 
ATOM     16  C   UNL     1       8.657   1.208  22.082  0.00  0.00    +0.000 A 
ATOM     17  C   UNL     1      10.092   1.885  21.990  0.00  0.00    +0.000 C 
ATOM     18  O   UNL     1       8.997  -1.037  21.091  0.00  0.00    +0.000 OA
ENDBRANCH  10  11
ENDBRANCH   7   9
ENDBRANCH   1   7
BRANCH   4  19
ATOM     19  C   UNL     1       7.317  -3.349  23.815  0.00  0.00    +0.000 C 
BRANCH  19  20
ATOM     20  N   UNL     1       6.306  -4.299  24.167  0.00  0.00    +0.000 NA
ATOM     21  C   UNL     1       5.064  -3.603  24.369  0.00  0.00    +0.000 C 
ATOM     22  C   UNL     1       4.014  -4.580  24.881  0.00  0.00    +0.000 C 
ATOM     23  N   UNL     1       3.972  -5.754  24.044  0.00  0.00    +0.000 N 
ATOM     24  C   UNL     1       5.180  -6.318  23.477  0.00  0.00    +0.000 C 
ATOM     25  C   UNL     1       6.126  -5.202  23.061  0.00  0.00    +0.000 C 
ATOM     26  C   UNL     1       2.771  -6.280  23.684  0.00  0.00    +0.000 C 
ATOM     27  O   UNL     1       2.216  -5.869  22.681  0.00  0.00    +0.000 OA
ATOM     28  C   UNL     1       2.521  -7.691  24.184  0.00  0.00    +0.000 C 
ENDBRANCH  19  20
ENDBRANCH   4  19
TORSDOF 5
ENDMDL
MODEL 7
REMARK VINA RESULT:      -6.4      2.182      4.014
REMARK  Name = 
REMARK  5 active torsions:
REMARK  status: ('A' for Active; 'I' for Inactive)
REMARK    1  A    between atoms: C_2  and  C_12
REMARK    2  A    between atoms: N_3  and  C_4
REMARK    3  A    between atoms: C_12  and  N_13
REMARK    4  A    between atoms: N_16  and  C_19
REMARK    5  A    between atoms: C_19  and  N_20
REMARK                            x       y       z     vdW  Elec       q    Type
REMARK                         _______ _______ _______ _____ _____    ______ ____
ROOT
ATOM      1  N   UNL     1       8.656   0.040  22.660  0.00  0.00    +0.000 NA
ATOM      2  C   UNL     1       8.464  -0.134  24.010  0.00  0.00    +0.000 C 
ATOM      3  C   UNL     1       9.337  -1.161  24.670  0.00  0.00    +0.000 C 
ATOM      4  N   UNL     1       9.704  -2.200  23.767  0.00  0.00    +0.000 NA
ATOM      5  C   UNL     1      10.444  -1.652  22.683  0.00  0.00    +0.000 C 
ATOM      6  C   UNL     1       9.822  -0.426  22.099  0.00  0.00    +0.000 C 
ENDROOT
BRANCH   1   7
ATOM      7  C   UNL     1       7.503  -0.188  21.879  0.00  0.00    +0.000 C 
BRANCH   7   9
ATOM      8  O   UNL     1       6.493   1.049  20.128  0.00  0.00    +0.000 OA
ATOM      9  C   UNL     1       7.007   1.121  21.248  0.00  0.00    +0.000 C 
ATOM     10  N   UNL     1       7.740   2.197  21.576  0.00  0.00    +0.000 NA
BRANCH  10  11
ATOM     11  C   UNL     1       6.975   3.105  22.294  0.00  0.00    +0.000 A 
ATOM     12  C   UNL     1       8.138   3.703  23.359  0.00  0.00    +0.000 A 
ATOM     13  N   UNL     1       7.680   3.424  24.590  0.00  0.00    +0.000 NA
ATOM     14  C   UNL     1       6.643   2.952  25.249  0.00  0.00    +0.000 A 
ATOM     15  C   UNL     1       5.450   2.410  24.428  0.00  0.00    +0.000 A 
ATOM     16  C   UNL     1       5.735   2.766  22.971  0.00  0.00    +0.000 A 
ATOM     17  C   UNL     1       4.451   3.572  22.495  0.00  0.00    +0.000 C 
ATOM     18  O   UNL     1       4.872   1.275  24.751  0.00  0.00    +0.000 OA
ENDBRANCH  10  11
ENDBRANCH   7   9
ENDBRANCH   1   7
BRANCH   4  19
ATOM     19  C   UNL     1       8.518  -2.825  23.254  0.00  0.00    +0.000 C 
BRANCH  19  20
ATOM     20  N   UNL     1       7.744  -3.409  24.307  0.00  0.00    +0.000 NA
ATOM     21  C   UNL     1       6.356  -3.389  23.932  0.00  0.00    +0.000 C 
ATOM     22  C   UNL     1       5.510  -3.877  25.100  0.00  0.00    +0.000 C 
ATOM     23  N   UNL     1       6.028  -5.123  25.608  0.00  0.00    +0.000 N 
ATOM     24  C   UNL     1       7.453  -5.377  25.674  0.00  0.00    +0.000 C 
ATOM     25  C   UNL     1       8.139  -4.786  24.451  0.00  0.00    +0.000 C 
ATOM     26  C   UNL     1       5.168  -6.127  25.928  0.00  0.00    +0.000 C 
ATOM     27  O   UNL     1       4.833  -6.922  25.068  0.00  0.00    +0.000 OA
ATOM     28  C   UNL     1       5.177  -6.528  27.391  0.00  0.00    +0.000 C 
ENDBRANCH  19  20
ENDBRANCH   4  19
TORSDOF 5
ENDMDL
MODEL 8
REMARK VINA RESULT:      -6.4      2.498      7.698
REMARK  Name = 
REMARK  5 active torsions:
REMARK  status: ('A' for Active; 'I' for Inactive)
REMARK    1  A    between atoms: C_2  and  C_12
REMARK    2  A    between atoms: N_3  and  C_4
REMARK    3  A    between atoms: C_12  and  N_13
REMARK    4  A    between atoms: N_16  and  C_19
REMARK    5  A    between atoms: C_19  and  N_20
REMARK                            x       y       z     vdW  Elec       q    Type
REMARK                         _______ _______ _______ _____ _____    ______ ____
ROOT
ATOM      1  N   UNL     1       6.964  -4.328  24.384  0.00  0.00    +0.000 NA
ATOM      2  C   UNL     1       8.205  -4.907  24.280  0.00  0.00    +0.000 C 
ATOM      3  C   UNL     1       9.345  -4.125  24.867  0.00  0.00    +0.000 C 
ATOM      4  N   UNL     1       9.102  -2.722  24.816  0.00  0.00    +0.000 NA
ATOM      5  C   UNL     1       7.942  -2.410  25.577  0.00  0.00    +0.000 C 
ATOM      6  C   UNL     1       6.787  -3.315  25.297  0.00  0.00    +0.000 C 
ENDROOT
BRANCH   1   7
ATOM      7  C   UNL     1       6.323  -4.113  23.144  0.00  0.00    +0.000 C 
BRANCH   7   9
ATOM      8  O   UNL     1       5.586  -6.115  22.112  0.00  0.00    +0.000 OA
ATOM      9  C   UNL     1       5.272  -5.201  22.881  0.00  0.00    +0.000 C 
ATOM     10  N   UNL     1       4.006  -4.756  22.905  0.00  0.00    +0.000 NA
BRANCH  10  11
ATOM     11  C   UNL     1       3.301  -5.351  23.942  0.00  0.00    +0.000 A 
ATOM     12  C   UNL     1       2.783  -3.980  24.778  0.00  0.00    +0.000 A 
ATOM     13  N   UNL     1       3.301  -4.092  26.012  0.00  0.00    +0.000 NA
ATOM     14  C   UNL     1       3.966  -4.900  26.808  0.00  0.00    +0.000 A 
ATOM     15  C   UNL     1       4.472  -6.238  26.222  0.00  0.00    +0.000 A 
ATOM     16  C   UNL     1       3.858  -6.357  24.829  0.00  0.00    +0.000 A 
ATOM     17  C   UNL     1       3.104  -7.755  24.839  0.00  0.00    +0.000 C 
ATOM     18  O   UNL     1       5.692  -6.661  26.466  0.00  0.00    +0.000 OA
ENDBRANCH  10  11
ENDBRANCH   7   9
ENDBRANCH   1   7
BRANCH   4  19
ATOM     19  C   UNL     1       8.888  -2.325  23.453  0.00  0.00    +0.000 C 
BRANCH  19  20
ATOM     20  N   UNL     1       9.502  -1.061  23.180  0.00  0.00    +0.000 NA
ATOM     21  C   UNL     1       8.498  -0.150  22.702  0.00  0.00    +0.000 C 
ATOM     22  C   UNL     1       9.161   1.152  22.273  0.00  0.00    +0.000 C 
ATOM     23  N   UNL     1      10.035   1.636  23.313  0.00  0.00    +0.000 N 
ATOM     24  C   UNL     1      10.825   0.725  24.117  0.00  0.00    +0.000 C 
ATOM     25  C   UNL     1      10.022  -0.532  24.413  0.00  0.00    +0.000 C 
ATOM     26  C   UNL     1      10.038   2.958  23.627  0.00  0.00    +0.000 C 
ATOM     27  O   UNL     1       9.253   3.377  24.459  0.00  0.00    +0.000 OA
ATOM     28  C   UNL     1      11.360   3.664  23.388  0.00  0.00    +0.000 C 
ENDBRANCH  19  20
ENDBRANCH   4  19
TORSDOF 5
ENDMDL
MODEL 9
REMARK VINA RESULT:      -6.3      2.232      7.673
REMARK  Name = 
REMARK  5 active torsions:
REMARK  status: ('A' for Active; 'I' for Inactive)
REMARK    1  A    between atoms: C_2  and  C_12
REMARK    2  A    between atoms: N_3  and  C_4
REMARK    3  A    between atoms: C_12  and  N_13
REMARK    4  A    between atoms: N_16  and  C_19
REMARK    5  A    between atoms: C_19  and  N_20
REMARK                            x       y       z     vdW  Elec       q    Type
REMARK                         _______ _______ _______ _____ _____    ______ ____
ROOT
ATOM      1  N   UNL     1       7.533  -5.162  25.816  0.00  0.00    +0.000 NA
ATOM      2  C   UNL     1       7.019  -4.884  24.572  0.00  0.00    +0.000 C 
ATOM      3  C   UNL     1       8.017  -4.479  23.526  0.00  0.00    +0.000 C 
ATOM      4  N   UNL     1       9.144  -3.822  24.098  0.00  0.00    +0.000 NA
ATOM      5  C   UNL     1       9.808  -4.705  24.994  0.00  0.00    +0.000 C 
ATOM      6  C   UNL     1       8.880  -5.411  25.928  0.00  0.00    +0.000 C 
ENDROOT
BRANCH   1   7
ATOM      7  C   UNL     1       7.001  -4.361  26.851  0.00  0.00    +0.000 C 
BRANCH   7   9
ATOM      8  O   UNL     1       6.098  -5.106  28.911  0.00  0.00    +0.000 OA
ATOM      9  C   UNL     1       5.985  -5.156  27.683  0.00  0.00    +0.000 C 
ATOM     10  N   UNL     1       5.569  -6.291  27.099  0.00  0.00    +0.000 NA
BRANCH  10  11
ATOM     11  C   UNL     1       4.208  -6.231  26.834  0.00  0.00    +0.000 A 
ATOM     12  C   UNL     1       4.126  -7.194  25.452  0.00  0.00    +0.000 A 
ATOM     13  N   UNL     1       3.629  -6.403  24.488  0.00  0.00    +0.000 NA
ATOM     14  C   UNL     1       3.110  -5.215  24.260  0.00  0.00    +0.000 A 
ATOM     15  C   UNL     1       3.050  -4.214  25.436  0.00  0.00    +0.000 A 
ATOM     16  C   UNL     1       3.465  -4.991  26.683  0.00  0.00    +0.000 A 
ATOM     17  C   UNL     1       2.267  -4.782  27.705  0.00  0.00    +0.000 C 
ATOM     18  O   UNL     1       3.400  -2.958  25.270  0.00  0.00    +0.000 OA
ENDBRANCH  10  11
ENDBRANCH   7   9
ENDBRANCH   1   7
BRANCH   4  19
ATOM     19  C   UNL     1       8.701  -2.665  24.824  0.00  0.00    +0.000 C 
BRANCH  19  20
ATOM     20  N   UNL     1       9.436  -1.499  24.438  0.00  0.00    +0.000 NA
ATOM     21  C   UNL     1       9.222  -1.257  23.037  0.00  0.00    +0.000 C 
ATOM     22  C   UNL     1      10.109  -0.106  22.582  0.00  0.00    +0.000 C 
ATOM     23  N   UNL     1       9.957   1.023  23.466  0.00  0.00    +0.000 N 
ATOM     24  C   UNL     1       9.788   0.844  24.894  0.00  0.00    +0.000 C 
ATOM     25  C   UNL     1       8.912  -0.371  25.161  0.00  0.00    +0.000 C 
ATOM     26  C   UNL     1       9.858   2.275  22.946  0.00  0.00    +0.000 C 
ATOM     27  O   UNL     1       8.762   2.708  22.637  0.00  0.00    +0.000 OA
ATOM     28  C   UNL     1      10.978   3.219  23.345  0.00  0.00    +0.000 C 
ENDBRANCH  19  20
ENDBRANCH   4  19
TORSDOF 5
ENDMDL
