MODEL 1
REMARK VINA RESULT:      -7.0      0.000      0.000
REMARK  Name = 
REMARK  4 active torsions:
REMARK  status: ('A' for Active; 'I' for Inactive)
REMARK    1  A    between atoms: C_2  and  C_3
REMARK    2  A    between atoms: C_7  and  S_19
REMARK    3  A    between atoms: C_9  and  C_10
REMARK    4  A    between atoms: C_15  and  C_16
REMARK                            x       y       z     vdW  Elec       q    Type
REMARK                         _______ _______ _______ _____ _____    ______ ____
ROOT
ATOM      1  C   UNL     1       7.550   0.679  22.644  0.00  0.00    +0.000 A 
ATOM      2  C   UNL     1       8.342   1.490  21.387  0.00  0.00    +0.000 A 
ATOM      3  O   UNL     1       9.671   1.442  21.629  0.00  0.00    +0.000 OA
ATOM      4  N   UNL     1       8.143   0.671  20.307  0.00  0.00    +0.000 NA
ATOM      5  C   UNL     1       7.494  -0.399  19.954  0.00  0.00    +0.000 A 
ATOM      6  N   UNL     1       6.803  -1.071  20.873  0.00  0.00    +0.000 NA
ATOM      7  C   UNL     1       7.031  -0.647  22.156  0.00  0.00    +0.000 A 
ENDROOT
BRANCH   7   8
ATOM      8  C   UNL     1       7.601  -1.643  23.097  0.00  0.00    +0.000 A 
ATOM      9  C   UNL     1       6.447  -2.197  24.093  0.00  0.00    +0.000 A 
ATOM     10  C   UNL     1       6.877  -1.890  25.513  0.00  0.00    +0.000 A 
ATOM     11  C   UNL     1       8.079  -1.410  26.210  0.00  0.00    +0.000 A 
ATOM     12  C   UNL     1       9.118  -0.775  25.230  0.00  0.00    +0.000 A 
ATOM     13  C   UNL     1       8.821  -1.277  23.810  0.00  0.00    +0.000 A 
BRANCH  13  14
ATOM     14  C   UNL     1      10.050  -2.044  23.477  0.00  0.00    +0.000 C 
ATOM     15  O   UNL     1      10.569  -1.837  22.395  0.00  0.00    +0.000 OA
ATOM     16  O   UNL     1       9.934  -3.284  23.960  0.00  0.00    +0.000 OA
ENDBRANCH  13  14
ENDBRANCH   7   8
BRANCH   5  17
ATOM     17  S   UNL     1       6.441   0.147  18.629  0.00  0.00    +0.000 S 
ATOM     18  O   UNL     1       7.178   1.047  17.780  0.00  0.00    +0.000 OA
ATOM     19  O   UNL     1       6.048  -1.086  17.955  0.00  0.00    +0.000 OA
ATOM     20  N   UNL     1       5.109   0.872  19.202  0.00  0.00    +0.000 NA
ENDBRANCH   5  17
BRANCH   1  22
ATOM     21  N   UNL     1       6.155   1.505  23.838  0.00  0.00    +0.000 NA
ATOM     22  C   UNL     1       6.621   1.633  22.780  0.00  0.00    +0.000 C 
ENDBRANCH   1  22
TORSDOF 4
ENDMDL
MODEL 2
REMARK VINA RESULT:      -6.9      2.873      5.284
REMARK  Name = 
REMARK  4 active torsions:
REMARK  status: ('A' for Active; 'I' for Inactive)
REMARK    1  A    between atoms: C_2  and  C_3
REMARK    2  A    between atoms: C_7  and  S_19
REMARK    3  A    between atoms: C_9  and  C_10
REMARK    4  A    between atoms: C_15  and  C_16
REMARK                            x       y       z     vdW  Elec       q    Type
REMARK                         _______ _______ _______ _____ _____    ______ ____
ROOT
ATOM      1  C   UNL     1       8.329  -1.027  23.751  0.00  0.00    +0.000 A 
ATOM      2  C   UNL     1       6.966  -1.695  24.499  0.00  0.00    +0.000 A 
ATOM      3  O   UNL     1       5.945  -0.820  24.369  0.00  0.00    +0.000 OA
ATOM      4  N   UNL     1       6.644  -2.749  23.687  0.00  0.00    +0.000 NA
ATOM      5  C   UNL     1       7.089  -3.408  22.657  0.00  0.00    +0.000 A 
ATOM      6  N   UNL     1       8.187  -2.978  22.038  0.00  0.00    +0.000 NA
ATOM      7  C   UNL     1       8.610  -1.743  22.457  0.00  0.00    +0.000 A 
ENDROOT
BRANCH   7   8
ATOM      8  C   UNL     1       8.650  -0.669  21.434  0.00  0.00    +0.000 A 
ATOM      9  C   UNL     1       9.887   0.339  21.728  0.00  0.00    +0.000 A 
ATOM     10  C   UNL     1       9.314   1.729  21.918  0.00  0.00    +0.000 A 
ATOM     11  C   UNL     1       8.024   2.411  21.741  0.00  0.00    +0.000 A 
ATOM     12  C   UNL     1       6.839   1.406  21.578  0.00  0.00    +0.000 A 
ATOM     13  C   UNL     1       7.408   0.044  21.154  0.00  0.00    +0.000 A 
BRANCH  13  14
ATOM     14  C   UNL     1       6.812  -0.147  19.805  0.00  0.00    +0.000 C 
ATOM     15  O   UNL     1       5.980  -1.025  19.674  0.00  0.00    +0.000 OA
ATOM     16  O   UNL     1       7.756   0.053  18.881  0.00  0.00    +0.000 OA
ENDBRANCH  13  14
ENDBRANCH   7   8
BRANCH   5  17
ATOM     17  S   UNL     1       7.299  -5.068  23.260  0.00  0.00    +0.000 S 
ATOM     18  O   UNL     1       8.579  -5.176  23.911  0.00  0.00    +0.000 OA
ATOM     19  O   UNL     1       6.174  -5.262  24.168  0.00  0.00    +0.000 OA
ATOM     20  N   UNL     1       7.184  -6.145  22.054  0.00  0.00    +0.000 NA
ENDBRANCH   5  17
BRANCH   1  22
ATOM     21  N   UNL     1       9.455  -0.358  25.280  0.00  0.00    +0.000 NA
ATOM     22  C   UNL     1       9.142  -1.352  24.763  0.00  0.00    +0.000 C 
ENDBRANCH   1  22
TORSDOF 4
ENDMDL
MODEL 3
REMARK VINA RESULT:      -6.8      4.459      6.645
REMARK  Name = 
REMARK  4 active torsions:
REMARK  status: ('A' for Active; 'I' for Inactive)
REMARK    1  A    between atoms: C_2  and  C_3
REMARK    2  A    between atoms: C_7  and  S_19
REMARK    3  A    between atoms: C_9  and  C_10
REMARK    4  A    between atoms: C_15  and  C_16
REMARK                            x       y       z     vdW  Elec       q    Type
REMARK                         _______ _______ _______ _____ _____    ______ ____
ROOT
ATOM      1  C   UNL     1       8.032  -4.226  23.835  0.00  0.00    +0.000 A 
ATOM      2  C   UNL     1       8.863  -5.262  24.884  0.00  0.00    +0.000 A 
ATOM      3  O   UNL     1      10.152  -4.860  24.937  0.00  0.00    +0.000 OA
ATOM      4  N   UNL     1       8.339  -4.957  26.111  0.00  0.00    +0.000 NA
ATOM      5  C   UNL     1       7.399  -4.247  26.663  0.00  0.00    +0.000 A 
ATOM      6  N   UNL     1       6.663  -3.440  25.901  0.00  0.00    +0.000 NA
ATOM      7  C   UNL     1       7.136  -3.306  24.621  0.00  0.00    +0.000 A 
ENDROOT
BRANCH   7   8
ATOM      8  C   UNL     1       7.528  -1.941  24.193  0.00  0.00    +0.000 A 
ATOM      9  C   UNL     1       6.831  -1.577  22.774  0.00  0.00    +0.000 A 
ATOM     10  C   UNL     1       7.936  -1.271  21.783  0.00  0.00    +0.000 A 
ATOM     11  C   UNL     1       9.389  -1.051  21.802  0.00  0.00    +0.000 A 
ATOM     12  C   UNL     1      10.042  -1.523  23.141  0.00  0.00    +0.000 A 
ATOM     13  C   UNL     1       8.949  -1.608  24.215  0.00  0.00    +0.000 A 
BRANCH  13  14
ATOM     14  C   UNL     1       9.384  -0.583  25.199  0.00  0.00    +0.000 C 
ATOM     15  O   UNL     1      10.450  -0.028  25.003  0.00  0.00    +0.000 OA
ATOM     16  O   UNL     1       9.026  -0.976  26.424  0.00  0.00    +0.000 OA
ENDBRANCH  13  14
ENDBRANCH   7   8
BRANCH   5  17
ATOM     17  S   UNL     1       6.383  -5.444  27.500  0.00  0.00    +0.000 S 
ATOM     18  O   UNL     1       7.205  -6.216  28.397  0.00  0.00    +0.000 OA
ATOM     19  O   UNL     1       5.380  -4.639  28.189  0.00  0.00    +0.000 OA
ATOM     20  N   UNL     1       5.633  -6.415  26.441  0.00  0.00    +0.000 NA
ENDBRANCH   5  17
BRANCH   1  22
ATOM     21  N   UNL     1       7.381  -4.966  22.079  0.00  0.00    +0.000 NA
ATOM     22  C   UNL     1       7.404  -5.230  23.212  0.00  0.00    +0.000 C 
ENDBRANCH   1  22
TORSDOF 4
ENDMDL
MODEL 4
REMARK VINA RESULT:      -6.7      3.518      6.127
REMARK  Name = 
REMARK  4 active torsions:
REMARK  status: ('A' for Active; 'I' for Inactive)
REMARK    1  A    between atoms: C_2  and  C_3
REMARK    2  A    between atoms: C_7  and  S_19
REMARK    3  A    between atoms: C_9  and  C_10
REMARK    4  A    between atoms: C_15  and  C_16
REMARK                            x       y       z     vdW  Elec       q    Type
REMARK                         _______ _______ _______ _____ _____    ______ ____
ROOT
ATOM      1  C   UNL     1       6.702  -3.327  22.287  0.00  0.00    +0.000 A 
ATOM      2  C   UNL     1       6.881  -4.959  22.696  0.00  0.00    +0.000 A 
ATOM      3  O   UNL     1       7.401  -5.604  21.630  0.00  0.00    +0.000 OA
ATOM      4  N   UNL     1       7.881  -4.943  23.631  0.00  0.00    +0.000 NA
ATOM      5  C   UNL     1       8.606  -4.115  24.324  0.00  0.00    +0.000 A 
ATOM      6  N   UNL     1       8.492  -2.807  24.100  0.00  0.00    +0.000 NA
ATOM      7  C   UNL     1       7.744  -2.500  22.992  0.00  0.00    +0.000 A 
ENDROOT
BRANCH   7   8
ATOM      8  C   UNL     1       8.431  -1.755  21.909  0.00  0.00    +0.000 A 
ATOM      9  C   UNL     1       9.978  -1.481  22.310  0.00  0.00    +0.000 A 
ATOM     10  C   UNL     1      10.198   0.018  22.303  0.00  0.00    +0.000 A 
ATOM     11  C   UNL     1       9.475   1.226  21.880  0.00  0.00    +0.000 A 
ATOM     12  C   UNL     1       7.960   0.946  21.616  0.00  0.00    +0.000 A 
ATOM     13  C   UNL     1       7.773  -0.560  21.389  0.00  0.00    +0.000 A 
BRANCH  13  14
ATOM     14  C   UNL     1       7.290  -0.616  19.984  0.00  0.00    +0.000 C 
ATOM     15  O   UNL     1       7.771   0.170  19.189  0.00  0.00    +0.000 OA
ATOM     16  O   UNL     1       5.981  -0.885  19.984  0.00  0.00    +0.000 OA
ENDBRANCH  13  14
ENDBRANCH   7   8
BRANCH   5  17
ATOM     17  S   UNL     1       8.225  -4.512  26.016  0.00  0.00    +0.000 S 
ATOM     18  O   UNL     1       7.505  -5.759  26.057  0.00  0.00    +0.000 OA
ATOM     19  O   UNL     1       9.529  -4.580  26.668  0.00  0.00    +0.000 OA
ATOM     20  N   UNL     1       7.357  -3.334  26.711  0.00  0.00    +0.000 NA
ENDBRANCH   5  17
BRANCH   1  22
ATOM     21  N   UNL     1       4.824  -4.054  22.274  0.00  0.00    +0.000 NA
ATOM     22  C   UNL     1       5.472  -3.248  22.808  0.00  0.00    +0.000 C 
ENDBRANCH   1  22
TORSDOF 4
ENDMDL
MODEL 5
REMARK VINA RESULT:      -6.6      3.149      5.686
REMARK  Name = 
REMARK  4 active torsions:
REMARK  status: ('A' for Active; 'I' for Inactive)
REMARK    1  A    between atoms: C_2  and  C_3
REMARK    2  A    between atoms: C_7  and  S_19
REMARK    3  A    between atoms: C_9  and  C_10
REMARK    4  A    between atoms: C_15  and  C_16
REMARK                            x       y       z     vdW  Elec       q    Type
REMARK                         _______ _______ _______ _____ _____    ______ ____
ROOT
ATOM      1  C   UNL     1       7.138  -3.425  22.326  0.00  0.00    +0.000 A 
ATOM      2  C   UNL     1       7.515  -3.938  23.894  0.00  0.00    +0.000 A 
ATOM      3  O   UNL     1       8.854  -4.100  23.971  0.00  0.00    +0.000 OA
ATOM      4  N   UNL     1       7.240  -2.837  24.661  0.00  0.00    +0.000 NA
ATOM      5  C   UNL     1       6.720  -1.648  24.576  0.00  0.00    +0.000 A 
ATOM      6  N   UNL     1       6.349  -1.185  23.384  0.00  0.00    +0.000 NA
ATOM      7  C   UNL     1       6.759  -1.968  22.336  0.00  0.00    +0.000 A 
ENDROOT
BRANCH   7   8
ATOM      8  C   UNL     1       7.664  -1.337  21.344  0.00  0.00    +0.000 A 
ATOM      9  C   UNL     1       9.207  -1.481  21.822  0.00  0.00    +0.000 A 
ATOM     10  C   UNL     1       9.782  -0.085  21.949  0.00  0.00    +0.000 A 
ATOM     11  C   UNL     1       9.396   1.291  21.603  0.00  0.00    +0.000 A 
ATOM     12  C   UNL     1       7.876   1.411  21.262  0.00  0.00    +0.000 A 
ATOM     13  C   UNL     1       7.343   0.017  20.902  0.00  0.00    +0.000 A 
BRANCH  13  14
ATOM     14  C   UNL     1       6.940   0.183  19.482  0.00  0.00    +0.000 C 
ATOM     15  O   UNL     1       7.798   0.041  18.630  0.00  0.00    +0.000 OA
ATOM     16  O   UNL     1       6.039   1.166  19.397  0.00  0.00    +0.000 OA
ENDBRANCH  13  14
ENDBRANCH   7   8
BRANCH   5  17
ATOM     17  S   UNL     1       5.345  -1.692  25.704  0.00  0.00    +0.000 S 
ATOM     18  O   UNL     1       5.806  -2.143  26.992  0.00  0.00    +0.000 OA
ATOM     19  O   UNL     1       4.852  -0.319  25.718  0.00  0.00    +0.000 OA
ATOM     20  N   UNL     1       4.169  -2.661  25.153  0.00  0.00    +0.000 NA
ENDBRANCH   5  17
BRANCH   1  22
ATOM     21  N   UNL     1       5.820  -4.306  21.083  0.00  0.00    +0.000 NA
ATOM     22  C   UNL     1       6.110  -4.275  22.209  0.00  0.00    +0.000 C 
ENDBRANCH   1  22
TORSDOF 4
ENDMDL
MODEL 6
REMARK VINA RESULT:      -6.4      4.472      6.768
REMARK  Name = 
REMARK  4 active torsions:
REMARK  status: ('A' for Active; 'I' for Inactive)
REMARK    1  A    between atoms: C_2  and  C_3
REMARK    2  A    between atoms: C_7  and  S_19
REMARK    3  A    between atoms: C_9  and  C_10
REMARK    4  A    between atoms: C_15  and  C_16
REMARK                            x       y       z     vdW  Elec       q    Type
REMARK                         _______ _______ _______ _____ _____    ______ ____
ROOT
ATOM      1  C   UNL     1       8.115  -4.322  23.776  0.00  0.00    +0.000 A 
ATOM      2  C   UNL     1       8.927  -5.314  24.881  0.00  0.00    +0.000 A 
ATOM      3  O   UNL     1      10.209  -4.895  24.957  0.00  0.00    +0.000 OA
ATOM      4  N   UNL     1       8.364  -4.975  26.082  0.00  0.00    +0.000 NA
ATOM      5  C   UNL     1       7.402  -4.259  26.584  0.00  0.00    +0.000 A 
ATOM      6  N   UNL     1       6.679  -3.486  25.776  0.00  0.00    +0.000 NA
ATOM      7  C   UNL     1       7.186  -3.388  24.506  0.00  0.00    +0.000 A 
ENDROOT
BRANCH   7   8
ATOM      8  C   UNL     1       7.576  -2.033  24.045  0.00  0.00    +0.000 A 
ATOM      9  C   UNL     1       9.064  -2.067  23.401  0.00  0.00    +0.000 A 
ATOM     10  C   UNL     1       9.930  -1.105  24.191  0.00  0.00    +0.000 A 
ATOM     11  C   UNL     1       9.753  -0.069  25.218  0.00  0.00    +0.000 A 
ATOM     12  C   UNL     1       8.348  -0.143  25.899  0.00  0.00    +0.000 A 
ATOM     13  C   UNL     1       7.400  -0.925  24.979  0.00  0.00    +0.000 A 
BRANCH  13  14
ATOM     14  C   UNL     1       6.379   0.096  24.625  0.00  0.00    +0.000 C 
ATOM     15  O   UNL     1       5.245  -0.074  25.033  0.00  0.00    +0.000 OA
ATOM     16  O   UNL     1       6.609   0.528  23.382  0.00  0.00    +0.000 OA
ENDBRANCH  13  14
ENDBRANCH   7   8
BRANCH   5  17
ATOM     17  S   UNL     1       6.375  -5.441  27.430  0.00  0.00    +0.000 S 
ATOM     18  O   UNL     1       7.185  -6.191  28.356  0.00  0.00    +0.000 OA
ATOM     19  O   UNL     1       5.359  -4.624  28.086  0.00  0.00    +0.000 OA
ATOM     20  N   UNL     1       5.645  -6.437  26.381  0.00  0.00    +0.000 NA
ENDBRANCH   5  17
BRANCH   1  22
ATOM     21  N   UNL     1       7.161  -4.975  22.127  0.00  0.00    +0.000 NA
ATOM     22  C   UNL     1       7.516  -5.353  23.169  0.00  0.00    +0.000 C 
ENDBRANCH   1  22
TORSDOF 4
ENDMDL
MODEL 7
REMARK VINA RESULT:      -6.4      1.698      1.945
REMARK  Name = 
REMARK  4 active torsions:
REMARK  status: ('A' for Active; 'I' for Inactive)
REMARK    1  A    between atoms: C_2  and  C_3
REMARK    2  A    between atoms: C_7  and  S_19
REMARK    3  A    between atoms: C_9  and  C_10
REMARK    4  A    between atoms: C_15  and  C_16
REMARK                            x       y       z     vdW  Elec       q    Type
REMARK                         _______ _______ _______ _____ _____    ______ ____
ROOT
ATOM      1  C   UNL     1       7.103  -0.761  23.961  0.00  0.00    +0.000 A 
ATOM      2  C   UNL     1       8.082   0.375  23.177  0.00  0.00    +0.000 A 
ATOM      3  O   UNL     1       9.339   0.248  23.658  0.00  0.00    +0.000 OA
ATOM      4  N   UNL     1       8.139  -0.090  21.891  0.00  0.00    +0.000 NA
ATOM      5  C   UNL     1       7.627  -1.006  21.122  0.00  0.00    +0.000 A 
ATOM      6  N   UNL     1       6.806  -1.911  21.649  0.00  0.00    +0.000 NA
ATOM      7  C   UNL     1       6.758  -1.883  23.018  0.00  0.00    +0.000 A 
ENDROOT
BRANCH   7   8
ATOM      8  C   UNL     1       7.184  -3.114  23.727  0.00  0.00    +0.000 A 
ATOM      9  C   UNL     1       5.886  -3.964  24.203  0.00  0.00    +0.000 A 
ATOM     10  C   UNL     1       5.957  -4.108  25.710  0.00  0.00    +0.000 A 
ATOM     11  C   UNL     1       6.925  -3.854  26.787  0.00  0.00    +0.000 A 
ATOM     12  C   UNL     1       8.100  -2.934  26.322  0.00  0.00    +0.000 A 
ATOM     13  C   UNL     1       8.175  -2.974  24.789  0.00  0.00    +0.000 A 
BRANCH  13  14
ATOM     14  C   UNL     1       9.509  -3.585  24.548  0.00  0.00    +0.000 C 
ATOM     15  O   UNL     1      10.266  -3.009  23.789  0.00  0.00    +0.000 OA
ATOM     16  O   UNL     1       9.379  -4.914  24.518  0.00  0.00    +0.000 OA
ENDBRANCH  13  14
ENDBRANCH   7   8
BRANCH   5  17
ATOM     17  S   UNL     1       6.826  -0.087  19.826  0.00  0.00    +0.000 S 
ATOM     18  O   UNL     1       7.732   0.050  18.714  0.00  0.00    +0.000 OA
ATOM     19  O   UNL     1       5.642  -0.879  19.508  0.00  0.00    +0.000 OA
ATOM     20  N   UNL     1       6.350   1.370  20.352  0.00  0.00    +0.000 NA
ENDBRANCH   5  17
BRANCH   1  22
ATOM     21  N   UNL     1       5.409  -0.351  24.970  0.00  0.00    +0.000 NA
ATOM     22  C   UNL     1       6.118   0.119  24.176  0.00  0.00    +0.000 C 
ENDBRANCH   1  22
TORSDOF 4
ENDMDL
MODEL 8
REMARK VINA RESULT:      -6.4      4.070      6.324
REMARK  Name = 
REMARK  4 active torsions:
REMARK  status: ('A' for Active; 'I' for Inactive)
REMARK    1  A    between atoms: C_2  and  C_3
REMARK    2  A    between atoms: C_7  and  S_19
REMARK    3  A    between atoms: C_9  and  C_10
REMARK    4  A    between atoms: C_15  and  C_16
REMARK                            x       y       z     vdW  Elec       q    Type
REMARK                         _______ _______ _______ _____ _____    ______ ____
ROOT
ATOM      1  C   UNL     1       6.547  -3.512  23.555  0.00  0.00    +0.000 A 
ATOM      2  C   UNL     1       6.875  -5.154  23.802  0.00  0.00    +0.000 A 
ATOM      3  O   UNL     1       8.020  -5.456  23.153  0.00  0.00    +0.000 OA
ATOM      4  N   UNL     1       7.188  -5.216  25.134  0.00  0.00    +0.000 NA
ATOM      5  C   UNL     1       7.208  -4.480  26.205  0.00  0.00    +0.000 A 
ATOM      6  N   UNL     1       6.913  -3.185  26.108  0.00  0.00    +0.000 NA
ATOM      7  C   UNL     1       6.817  -2.736  24.816  0.00  0.00    +0.000 A 
ENDROOT
BRANCH   7   8
ATOM      8  C   UNL     1       7.766  -1.671  24.406  0.00  0.00    +0.000 A 
ATOM      9  C   UNL     1       7.044  -0.220  24.476  0.00  0.00    +0.000 A 
ATOM     10  C   UNL     1       7.105   0.392  23.091  0.00  0.00    +0.000 A 
ATOM     11  C   UNL     1       7.763   0.120  21.806  0.00  0.00    +0.000 A 
ATOM     12  C   UNL     1       8.344  -1.329  21.732  0.00  0.00    +0.000 A 
ATOM     13  C   UNL     1       8.503  -1.865  23.161  0.00  0.00    +0.000 A 
BRANCH  13  14
ATOM     14  C   UNL     1       9.973  -2.053  23.272  0.00  0.00    +0.000 C 
ATOM     15  O   UNL     1      10.653  -1.783  22.300  0.00  0.00    +0.000 OA
ATOM     16  O   UNL     1      10.218  -3.144  24.004  0.00  0.00    +0.000 OA
ENDBRANCH  13  14
ENDBRANCH   7   8
BRANCH   5  17
ATOM     17  S   UNL     1       6.100  -5.308  27.324  0.00  0.00    +0.000 S 
ATOM     18  O   UNL     1       6.799  -5.604  28.548  0.00  0.00    +0.000 OA
ATOM     19  O   UNL     1       5.002  -4.363  27.502  0.00  0.00    +0.000 OA
ATOM     20  N   UNL     1       5.513  -6.667  26.664  0.00  0.00    +0.000 NA
ENDBRANCH   5  17
BRANCH   1  22
ATOM     21  N   UNL     1       5.147  -3.796  22.135  0.00  0.00    +0.000 NA
ATOM     22  C   UNL     1       5.252  -3.729  23.292  0.00  0.00    +0.000 C 
ENDBRANCH   1  22
TORSDOF 4
ENDMDL
MODEL 9
REMARK VINA RESULT:      -6.3      4.110      6.104
REMARK  Name = 
REMARK  4 active torsions:
REMARK  status: ('A' for Active; 'I' for Inactive)
REMARK    1  A    between atoms: C_2  and  C_3
REMARK    2  A    between atoms: C_7  and  S_19
REMARK    3  A    between atoms: C_9  and  C_10
REMARK    4  A    between atoms: C_15  and  C_16
REMARK                            x       y       z     vdW  Elec       q    Type
REMARK                         _______ _______ _______ _____ _____    ______ ____
ROOT
ATOM      1  C   UNL     1       6.414  -5.209  22.879  0.00  0.00    +0.000 A 
ATOM      2  C   UNL     1       6.447  -3.716  22.083  0.00  0.00    +0.000 A 
ATOM      3  O   UNL     1       5.181  -3.250  22.012  0.00  0.00    +0.000 OA
ATOM      4  N   UNL     1       7.083  -2.896  22.977  0.00  0.00    +0.000 NA
ATOM      5  C   UNL     1       7.713  -2.932  24.114  0.00  0.00    +0.000 A 
ATOM      6  N   UNL     1       7.778  -4.081  24.783  0.00  0.00    +0.000 NA
ATOM      7  C   UNL     1       6.975  -5.066  24.268  0.00  0.00    +0.000 A 
ENDROOT
BRANCH   7   8
ATOM      8  C   UNL     1       5.915  -5.598  25.159  0.00  0.00    +0.000 A 
ATOM      9  C   UNL     1       4.492  -5.628  24.381  0.00  0.00    +0.000 A 
ATOM     10  C   UNL     1       3.519  -4.771  25.166  0.00  0.00    +0.000 A 
ATOM     11  C   UNL     1       3.465  -4.098  26.471  0.00  0.00    +0.000 A 
ATOM     12  C   UNL     1       4.874  -3.983  27.138  0.00  0.00    +0.000 A 
ATOM     13  C   UNL     1       5.804  -5.022  26.496  0.00  0.00    +0.000 A 
BRANCH  13  14
ATOM     14  C   UNL     1       6.128  -5.913  27.641  0.00  0.00    +0.000 C 
ATOM     15  O   UNL     1       7.284  -5.946  28.022  0.00  0.00    +0.000 OA
ATOM     16  O   UNL     1       5.403  -7.030  27.542  0.00  0.00    +0.000 OA
ENDBRANCH  13  14
ENDBRANCH   7   8
BRANCH   5  17
ATOM     17  S   UNL     1       9.339  -2.320  23.730  0.00  0.00    +0.000 S 
ATOM     18  O   UNL     1      10.308  -3.352  23.999  0.00  0.00    +0.000 OA
ATOM     19  O   UNL     1       9.259  -1.959  22.319  0.00  0.00    +0.000 OA
ATOM     20  N   UNL     1       9.678  -0.988  24.589  0.00  0.00    +0.000 NA
ENDBRANCH   5  17
BRANCH   1  22
ATOM     21  N   UNL     1       6.597  -6.046  21.056  0.00  0.00    +0.000 NA
ATOM     22  C   UNL     1       7.235  -5.788  21.995  0.00  0.00    +0.000 C 
ENDBRANCH   1  22
TORSDOF 4
ENDMDL
