MODEL 1
REMARK VINA RESULT:      -6.1      0.000      0.000
REMARK  Name = 
REMARK  3 active torsions:
REMARK  status: ('A' for Active; 'I' for Inactive)
REMARK    1  A    between atoms: C_2  and  N_3
REMARK    2  A    between atoms: N_3  and  C_4
REMARK    3  A    between atoms: C_9  and  C_10
REMARK                            x       y       z     vdW  Elec       q    Type
REMARK                         _______ _______ _______ _____ _____    ______ ____
ROOT
ATOM      1  C   UNL     1       7.869   1.270  21.656  0.00  0.00    +0.000 A 
ATOM      2  C   UNL     1       6.395   2.046  21.387  0.00  0.00    +0.000 A 
ATOM      3  C   UNL     1       5.879   1.524  20.090  0.00  0.00    +0.000 A 
ATOM      4  C   UNL     1       6.261   0.612  19.013  0.00  0.00    +0.000 A 
ATOM      5  C   UNL     1       7.681   0.030  19.201  0.00  0.00    +0.000 A 
ATOM      6  C   UNL     1       8.132   0.203  20.678  0.00  0.00    +0.000 A 
ATOM      7  F   UNL     1       6.290   1.328  17.879  0.00  0.00    +0.000 F 
ENDROOT
BRANCH   6   8
ATOM      8  C   UNL     1       8.036  -1.194  21.246  0.00  0.00    +0.000 A 
ATOM      9  C   UNL     1       9.501  -1.400  21.984  0.00  0.00    +0.000 A 
ATOM     10  N   UNL     1       9.233  -1.810  23.254  0.00  0.00    +0.000 NA
ATOM     11  C   UNL     1       8.260  -1.746  24.149  0.00  0.00    +0.000 A 
ATOM     12  C   UNL     1       6.796  -1.550  23.646  0.00  0.00    +0.000 A 
ATOM     13  C   UNL     1       6.906  -1.501  22.107  0.00  0.00    +0.000 A 
ATOM     14  C   UNL     1       5.947  -2.659  21.601  0.00  0.00    +0.000 C 
ATOM     15  O   UNL     1       6.110  -0.519  24.216  0.00  0.00    +0.000 OA
ENDBRANCH   6   8
BRANCH   1  16
ATOM     16  N   UNL     1       8.731   2.318  21.845  0.00  0.00    +0.000 NA
BRANCH  16  18
ATOM     17  C   UNL     1       9.821   1.806  23.954  0.00  0.00    +0.000 C 
ATOM     18  C   UNL     1      10.023   2.060  22.465  0.00  0.00    +0.000 C 
ENDBRANCH  16  18
ENDBRANCH   1  16
TORSDOF 3
ENDMDL
MODEL 2
REMARK VINA RESULT:      -5.8      2.375      3.991
REMARK  Name = 
REMARK  3 active torsions:
REMARK  status: ('A' for Active; 'I' for Inactive)
REMARK    1  A    between atoms: C_2  and  N_3
REMARK    2  A    between atoms: N_3  and  C_4
REMARK    3  A    between atoms: C_9  and  C_10
REMARK                            x       y       z     vdW  Elec       q    Type
REMARK                         _______ _______ _______ _____ _____    ______ ____
ROOT
ATOM      1  C   UNL     1       7.453  -0.691  21.506  0.00  0.00    +0.000 A 
ATOM      2  C   UNL     1       8.757   0.084  20.766  0.00  0.00    +0.000 A 
ATOM      3  C   UNL     1       8.958   1.362  21.506  0.00  0.00    +0.000 A 
ATOM      4  C   UNL     1       8.374   2.128  22.606  0.00  0.00    +0.000 A 
ATOM      5  C   UNL     1       7.090   1.478  23.170  0.00  0.00    +0.000 A 
ATOM      6  C   UNL     1       7.019  -0.014  22.738  0.00  0.00    +0.000 A 
ATOM      7  F   UNL     1       8.011   3.319  22.110  0.00  0.00    +0.000 F 
ENDROOT
BRANCH   6   8
ATOM      8  C   UNL     1       7.346  -0.767  24.006  0.00  0.00    +0.000 A 
ATOM      9  C   UNL     1       6.351  -2.085  23.927  0.00  0.00    +0.000 A 
ATOM     10  N   UNL     1       7.146  -3.174  24.115  0.00  0.00    +0.000 NA
ATOM     11  C   UNL     1       8.414  -3.532  23.980  0.00  0.00    +0.000 A 
ATOM     12  C   UNL     1       9.510  -2.423  24.025  0.00  0.00    +0.000 A 
ATOM     13  C   UNL     1       8.738  -1.106  24.255  0.00  0.00    +0.000 A 
ATOM     14  C   UNL     1       9.372  -0.496  25.576  0.00  0.00    +0.000 C 
ATOM     15  O   UNL     1      10.382  -2.413  22.977  0.00  0.00    +0.000 OA
ENDBRANCH   6   8
BRANCH   1  16
ATOM     16  N   UNL     1       6.602  -0.917  20.457  0.00  0.00    +0.000 NA
BRANCH  16  18
ATOM     17  C   UNL     1       5.421   0.583  18.956  0.00  0.00    +0.000 C 
ATOM     18  C   UNL     1       6.744  -0.113  19.251  0.00  0.00    +0.000 C 
ENDBRANCH  16  18
ENDBRANCH   1  16
TORSDOF 3
ENDMDL
MODEL 3
REMARK VINA RESULT:      -5.8      3.093      4.681
REMARK  Name = 
REMARK  3 active torsions:
REMARK  status: ('A' for Active; 'I' for Inactive)
REMARK    1  A    between atoms: C_2  and  N_3
REMARK    2  A    between atoms: N_3  and  C_4
REMARK    3  A    between atoms: C_9  and  C_10
REMARK                            x       y       z     vdW  Elec       q    Type
REMARK                         _______ _______ _______ _____ _____    ______ ____
ROOT
ATOM      1  C   UNL     1       8.622  -1.988  22.583  0.00  0.00    +0.000 A 
ATOM      2  C   UNL     1       9.749  -2.062  23.837  0.00  0.00    +0.000 A 
ATOM      3  C   UNL     1       9.104  -1.419  25.017  0.00  0.00    +0.000 A 
ATOM      4  C   UNL     1       7.863  -0.745  25.391  0.00  0.00    +0.000 A 
ATOM      5  C   UNL     1       6.906  -0.549  24.192  0.00  0.00    +0.000 A 
ATOM      6  C   UNL     1       7.307  -1.505  23.034  0.00  0.00    +0.000 A 
ATOM      7  F   UNL     1       8.192   0.482  25.819  0.00  0.00    +0.000 F 
ENDROOT
BRANCH   6   8
ATOM      8  C   UNL     1       6.234  -2.568  23.062  0.00  0.00    +0.000 A 
ATOM      9  C   UNL     1       5.863  -2.770  21.463  0.00  0.00    +0.000 A 
ATOM     10  N   UNL     1       5.951  -4.106  21.218  0.00  0.00    +0.000 NA
ATOM     11  C   UNL     1       6.552  -5.182  21.702  0.00  0.00    +0.000 A 
ATOM     12  C   UNL     1       6.984  -5.183  23.201  0.00  0.00    +0.000 A 
ATOM     13  C   UNL     1       6.530  -3.814  23.749  0.00  0.00    +0.000 A 
ATOM     14  C   UNL     1       5.587  -4.167  24.976  0.00  0.00    +0.000 C 
ATOM     15  O   UNL     1       8.287  -5.505  23.438  0.00  0.00    +0.000 OA
ENDBRANCH   6   8
BRANCH   1  16
ATOM     16  N   UNL     1       9.324  -1.371  21.583  0.00  0.00    +0.000 NA
BRANCH  16  18
ATOM     17  C   UNL     1       9.686   1.022  21.785  0.00  0.00    +0.000 C 
ATOM     18  C   UNL     1       8.872  -0.072  21.105  0.00  0.00    +0.000 C 
ENDBRANCH  16  18
ENDBRANCH   1  16
TORSDOF 3
ENDMDL
MODEL 4
REMARK VINA RESULT:      -5.6      2.535      5.168
REMARK  Name = 
REMARK  3 active torsions:
REMARK  status: ('A' for Active; 'I' for Inactive)
REMARK    1  A    between atoms: C_2  and  N_3
REMARK    2  A    between atoms: N_3  and  C_4
REMARK    3  A    between atoms: C_9  and  C_10
REMARK                            x       y       z     vdW  Elec       q    Type
REMARK                         _______ _______ _______ _____ _____    ______ ____
ROOT
ATOM      1  C   UNL     1       6.976  -1.735  22.042  0.00  0.00    +0.000 A 
ATOM      2  C   UNL     1       6.891  -1.873  23.721  0.00  0.00    +0.000 A 
ATOM      3  C   UNL     1       8.297  -1.841  24.215  0.00  0.00    +0.000 A 
ATOM      4  C   UNL     1       9.665  -1.764  23.706  0.00  0.00    +0.000 A 
ATOM      5  C   UNL     1       9.730  -1.794  22.162  0.00  0.00    +0.000 A 
ATOM      6  C   UNL     1       8.337  -1.442  21.567  0.00  0.00    +0.000 A 
ATOM      7  F   UNL     1      10.310  -2.860  24.135  0.00  0.00    +0.000 F 
ENDROOT
BRANCH   6   8
ATOM      8  C   UNL     1       8.521  -0.038  21.040  0.00  0.00    +0.000 A 
ATOM      9  C   UNL     1       7.385   0.064  19.843  0.00  0.00    +0.000 A 
ATOM     10  N   UNL     1       6.666   1.192  20.095  0.00  0.00    +0.000 NA
ATOM     11  C   UNL     1       6.351   1.979  21.112  0.00  0.00    +0.000 A 
ATOM     12  C   UNL     1       7.304   2.020  22.347  0.00  0.00    +0.000 A 
ATOM     13  C   UNL     1       8.458   1.058  21.992  0.00  0.00    +0.000 A 
ATOM     14  C   UNL     1       9.768   1.945  22.111  0.00  0.00    +0.000 C 
ATOM     15  O   UNL     1       6.712   1.803  23.555  0.00  0.00    +0.000 OA
ENDBRANCH   6   8
BRANCH   1  16
ATOM     16  N   UNL     1       6.272  -2.829  21.613  0.00  0.00    +0.000 NA
BRANCH  16  18
ATOM     17  C   UNL     1       6.264  -5.222  21.204  0.00  0.00    +0.000 C 
ATOM     18  C   UNL     1       6.546  -4.123  22.221  0.00  0.00    +0.000 C 
ENDBRANCH  16  18
ENDBRANCH   1  16
TORSDOF 3
ENDMDL
MODEL 5
REMARK VINA RESULT:      -5.5      3.304      4.889
REMARK  Name = 
REMARK  3 active torsions:
REMARK  status: ('A' for Active; 'I' for Inactive)
REMARK    1  A    between atoms: C_2  and  N_3
REMARK    2  A    between atoms: N_3  and  C_4
REMARK    3  A    between atoms: C_9  and  C_10
REMARK                            x       y       z     vdW  Elec       q    Type
REMARK                         _______ _______ _______ _____ _____    ______ ____
ROOT
ATOM      1  C   UNL     1       7.590  -3.137  22.861  0.00  0.00    +0.000 A 
ATOM      2  C   UNL     1       6.153  -2.779  22.052  0.00  0.00    +0.000 A 
ATOM      3  C   UNL     1       5.638  -4.073  21.522  0.00  0.00    +0.000 A 
ATOM      4  C   UNL     1       6.000  -5.488  21.464  0.00  0.00    +0.000 A 
ATOM      5  C   UNL     1       7.392  -5.773  22.074  0.00  0.00    +0.000 A 
ATOM      6  C   UNL     1       7.826  -4.585  22.979  0.00  0.00    +0.000 A 
ATOM      7  F   UNL     1       6.077  -5.824  20.168  0.00  0.00    +0.000 F 
ENDROOT
BRANCH   6   8
ATOM      8  C   UNL     1       7.664  -5.127  24.379  0.00  0.00    +0.000 A 
ATOM      9  C   UNL     1       9.084  -4.702  25.112  0.00  0.00    +0.000 A 
ATOM     10  N   UNL     1       8.741  -4.060  26.262  0.00  0.00    +0.000 NA
ATOM     11  C   UNL     1       7.726  -3.381  26.773  0.00  0.00    +0.000 A 
ATOM     12  C   UNL     1       6.296  -3.641  26.208  0.00  0.00    +0.000 A 
ATOM     13  C   UNL     1       6.484  -4.729  25.129  0.00  0.00    +0.000 A 
ATOM     14  C   UNL     1       5.521  -5.908  25.578  0.00  0.00    +0.000 C 
ATOM     15  O   UNL     1       5.609  -2.534  25.808  0.00  0.00    +0.000 OA
ENDBRANCH   6   8
BRANCH   1  16
ATOM     16  N   UNL     1       8.490  -2.295  22.264  0.00  0.00    +0.000 NA
BRANCH  16  18
ATOM     17  C   UNL     1       9.213  -0.207  21.258  0.00  0.00    +0.000 C 
ATOM     18  C   UNL     1       8.018  -1.025  21.732  0.00  0.00    +0.000 C 
ENDBRANCH  16  18
ENDBRANCH   1  16
TORSDOF 3
ENDMDL
MODEL 6
REMARK VINA RESULT:      -5.5      3.203      4.855
REMARK  Name = 
REMARK  3 active torsions:
REMARK  status: ('A' for Active; 'I' for Inactive)
REMARK    1  A    between atoms: C_2  and  N_3
REMARK    2  A    between atoms: N_3  and  C_4
REMARK    3  A    between atoms: C_9  and  C_10
REMARK                            x       y       z     vdW  Elec       q    Type
REMARK                         _______ _______ _______ _____ _____    ______ ____
ROOT
ATOM      1  C   UNL     1       7.921  -1.932  21.943  0.00  0.00    +0.000 A 
ATOM      2  C   UNL     1       9.455  -1.275  21.697  0.00  0.00    +0.000 A 
ATOM      3  C   UNL     1      10.117  -1.247  23.032  0.00  0.00    +0.000 A 
ATOM      4  C   UNL     1       9.841  -1.570  24.430  0.00  0.00    +0.000 A 
ATOM      5  C   UNL     1       8.381  -2.025  24.660  0.00  0.00    +0.000 A 
ATOM      6  C   UNL     1       7.741  -2.450  23.309  0.00  0.00    +0.000 A 
ATOM      7  F   UNL     1      10.003  -0.442  25.137  0.00  0.00    +0.000 F 
ENDROOT
BRANCH   6   8
ATOM      8  C   UNL     1       7.688  -3.957  23.398  0.00  0.00    +0.000 A 
ATOM      9  C   UNL     1       7.613  -4.233  25.026  0.00  0.00    +0.000 A 
ATOM     10  N   UNL     1       6.549  -5.059  25.224  0.00  0.00    +0.000 NA
ATOM     11  C   UNL     1       5.410  -5.393  24.637  0.00  0.00    +0.000 A 
ATOM     12  C   UNL     1       5.283  -5.202  23.094  0.00  0.00    +0.000 A 
ATOM     13  C   UNL     1       6.652  -4.646  22.646  0.00  0.00    +0.000 A 
ATOM     14  C   UNL     1       7.162  -5.673  21.549  0.00  0.00    +0.000 C 
ATOM     15  O   UNL     1       4.198  -4.492  22.675  0.00  0.00    +0.000 OA
ENDBRANCH   6   8
BRANCH   1  16
ATOM     16  N   UNL     1       7.095  -0.981  21.407  0.00  0.00    +0.000 NA
BRANCH  16  18
ATOM     17  C   UNL     1       7.166   0.065  19.216  0.00  0.00    +0.000 C 
ATOM     18  C   UNL     1       7.684   0.114  20.648  0.00  0.00    +0.000 C 
ENDBRANCH  16  18
ENDBRANCH   1  16
TORSDOF 3
ENDMDL
MODEL 7
REMARK VINA RESULT:      -5.5      3.048      4.785
REMARK  Name = 
REMARK  3 active torsions:
REMARK  status: ('A' for Active; 'I' for Inactive)
REMARK    1  A    between atoms: C_2  and  N_3
REMARK    2  A    between atoms: N_3  and  C_4
REMARK    3  A    between atoms: C_9  and  C_10
REMARK                            x       y       z     vdW  Elec       q    Type
REMARK                         _______ _______ _______ _____ _____    ______ ____
ROOT
ATOM      1  C   UNL     1       7.766  -1.319  22.243  0.00  0.00    +0.000 A 
ATOM      2  C   UNL     1       9.406  -1.397  21.856  0.00  0.00    +0.000 A 
ATOM      3  C   UNL     1      10.147  -1.152  23.126  0.00  0.00    +0.000 A 
ATOM      4  C   UNL     1       9.895  -0.845  24.533  0.00  0.00    +0.000 A 
ATOM      5  C   UNL     1       8.395  -0.625  24.836  0.00  0.00    +0.000 A 
ATOM      6  C   UNL     1       7.530  -1.227  23.692  0.00  0.00    +0.000 A 
ATOM      7  F   UNL     1      10.511   0.316  24.802  0.00  0.00    +0.000 F 
ENDROOT
BRANCH   6   8
ATOM      8  C   UNL     1       6.949  -2.478  24.306  0.00  0.00    +0.000 A 
ATOM      9  C   UNL     1       6.306  -3.271  23.005  0.00  0.00    +0.000 A 
ATOM     10  N   UNL     1       6.805  -4.536  23.046  0.00  0.00    +0.000 NA
ATOM     11  C   UNL     1       7.848  -5.193  23.529  0.00  0.00    +0.000 A 
ATOM     12  C   UNL     1       8.596  -4.600  24.763  0.00  0.00    +0.000 A 
ATOM     13  C   UNL     1       7.826  -3.309  25.114  0.00  0.00    +0.000 A 
ATOM     14  C   UNL     1       7.394  -3.501  26.629  0.00  0.00    +0.000 C 
ATOM     15  O   UNL     1       9.944  -4.456  24.622  0.00  0.00    +0.000 OA
ENDBRANCH   6   8
BRANCH   1  16
ATOM     16  N   UNL     1       7.292  -0.382  21.364  0.00  0.00    +0.000 NA
BRANCH  16  18
ATOM     17  C   UNL     1       7.410   0.176  19.003  0.00  0.00    +0.000 C 
ATOM     18  C   UNL     1       8.178   0.110  20.318  0.00  0.00    +0.000 C 
ENDBRANCH  16  18
ENDBRANCH   1  16
TORSDOF 3
ENDMDL
MODEL 8
REMARK VINA RESULT:      -5.4      3.140      4.937
REMARK  Name = 
REMARK  3 active torsions:
REMARK  status: ('A' for Active; 'I' for Inactive)
REMARK    1  A    between atoms: C_2  and  N_3
REMARK    2  A    between atoms: N_3  and  C_4
REMARK    3  A    between atoms: C_9  and  C_10
REMARK                            x       y       z     vdW  Elec       q    Type
REMARK                         _______ _______ _______ _____ _____    ______ ____
ROOT
ATOM      1  C   UNL     1       7.012  -2.438  22.837  0.00  0.00    +0.000 A 
ATOM      2  C   UNL     1       5.436  -2.776  23.335  0.00  0.00    +0.000 A 
ATOM      3  C   UNL     1       5.403  -4.231  23.659  0.00  0.00    +0.000 A 
ATOM      4  C   UNL     1       6.273  -5.406  23.644  0.00  0.00    +0.000 A 
ATOM      5  C   UNL     1       7.665  -5.109  23.040  0.00  0.00    +0.000 A 
ATOM      6  C   UNL     1       7.923  -3.576  23.033  0.00  0.00    +0.000 A 
ATOM      7  F   UNL     1       5.697  -6.315  22.845  0.00  0.00    +0.000 F 
ENDROOT
BRANCH   6   8
ATOM      8  C   UNL     1       8.927  -3.380  24.144  0.00  0.00    +0.000 A 
ATOM      9  C   UNL     1       9.832  -2.102  23.612  0.00  0.00    +0.000 A 
ATOM     10  N   UNL     1       9.844  -1.196  24.627  0.00  0.00    +0.000 NA
ATOM     11  C   UNL     1       9.121  -0.853  25.682  0.00  0.00    +0.000 A 
ATOM     12  C   UNL     1       8.195  -1.928  26.331  0.00  0.00    +0.000 A 
ATOM     13  C   UNL     1       8.420  -3.207  25.496  0.00  0.00    +0.000 A 
ATOM     14  C   UNL     1       8.882  -4.298  26.551  0.00  0.00    +0.000 C 
ATOM     15  O   UNL     1       6.893  -1.562  26.498  0.00  0.00    +0.000 OA
ENDBRANCH   6   8
BRANCH   1  16
ATOM     16  N   UNL     1       6.822  -1.856  21.611  0.00  0.00    +0.000 NA
BRANCH  16  18
ATOM     17  C   UNL     1       8.399  -0.284  20.642  0.00  0.00    +0.000 C 
ATOM     18  C   UNL     1       7.118  -0.439  21.453  0.00  0.00    +0.000 C 
ENDBRANCH  16  18
ENDBRANCH   1  16
TORSDOF 3
ENDMDL
MODEL 9
REMARK VINA RESULT:      -5.4      3.161      5.092
REMARK  Name = 
REMARK  3 active torsions:
REMARK  status: ('A' for Active; 'I' for Inactive)
REMARK    1  A    between atoms: C_2  and  N_3
REMARK    2  A    between atoms: N_3  and  C_4
REMARK    3  A    between atoms: C_9  and  C_10
REMARK                            x       y       z     vdW  Elec       q    Type
REMARK                         _______ _______ _______ _____ _____    ______ ____
ROOT
ATOM      1  C   UNL     1       8.889  -1.971  23.068  0.00  0.00    +0.000 A 
ATOM      2  C   UNL     1      10.363  -1.299  22.597  0.00  0.00    +0.000 A 
ATOM      3  C   UNL     1      10.718  -0.297  23.641  0.00  0.00    +0.000 A 
ATOM      4  C   UNL     1      10.184   0.278  24.875  0.00  0.00    +0.000 A 
ATOM      5  C   UNL     1       8.765  -0.236  25.207  0.00  0.00    +0.000 A 
ATOM      6  C   UNL     1       8.475  -1.541  24.412  0.00  0.00    +0.000 A 
ATOM      7  F   UNL     1      10.073   1.600  24.680  0.00  0.00    +0.000 F 
ENDROOT
BRANCH   6   8
ATOM      8  C   UNL     1       8.561  -2.623  25.462  0.00  0.00    +0.000 A 
ATOM      9  C   UNL     1       7.354  -2.220  26.517  0.00  0.00    +0.000 A 
ATOM     10  N   UNL     1       6.599  -3.341  26.679  0.00  0.00    +0.000 NA
ATOM     11  C   UNL     1       6.307  -4.460  26.036  0.00  0.00    +0.000 A 
ATOM     12  C   UNL     1       7.328  -5.007  24.990  0.00  0.00    +0.000 A 
ATOM     13  C   UNL     1       8.503  -4.007  25.019  0.00  0.00    +0.000 A 
ATOM     14  C   UNL     1       9.775  -4.894  25.355  0.00  0.00    +0.000 C 
ATOM     15  O   UNL     1       6.819  -5.276  23.755  0.00  0.00    +0.000 OA
ENDBRANCH   6   8
BRANCH   1  16
ATOM     16  N   UNL     1       8.102  -1.776  21.963  0.00  0.00    +0.000 NA
BRANCH  16  18
ATOM     17  C   UNL     1       7.849   0.037  20.368  0.00  0.00    +0.000 C 
ATOM     18  C   UNL     1       7.490  -0.471  21.759  0.00  0.00    +0.000 C 
ENDBRANCH  16  18
ENDBRANCH   1  16
TORSDOF 3
ENDMDL
