MODEL 1
REMARK VINA RESULT:      -8.1      0.000      0.000
REMARK  Name = 
REMARK  4 active torsions:
REMARK  status: ('A' for Active; 'I' for Inactive)
REMARK    1  A    between atoms: C_2  and  C_10
REMARK    2  A    between atoms: C_3  and  C_4
REMARK    3  A    between atoms: C_4  and  S_5
REMARK    4  A    between atoms: C_12  and  C_28
REMARK                            x       y       z     vdW  Elec       q    Type
REMARK                         _______ _______ _______ _____ _____    ______ ____
ROOT
ATOM      1  C   UNL     1       8.841  -1.388  21.746  0.00  0.00    +0.000 C 
ATOM      2  C   UNL     1       9.739  -0.221  22.103  0.00  0.00    +0.000 C 
ATOM      3  C   UNL     1       9.323   0.453  23.377  0.00  0.00    +0.000 C 
ATOM      4  C   UNL     1       9.942   1.895  23.448  0.00  0.00    +0.000 C 
ATOM      5  C   UNL     1       9.091   2.718  24.320  0.00  0.00    +0.000 C 
ATOM      6  N   UNL     1       8.305   2.341  25.175  0.00  0.00    +0.000 NA
ATOM      7  C   UNL     1       7.487   1.190  24.871  0.00  0.00    +0.000 C 
ATOM      8  C   UNL     1       7.871   0.669  23.509  0.00  0.00    +0.000 C 
ATOM      9  C   UNL     1       6.972  -0.416  22.974  0.00  0.00    +0.000 C 
ATOM     10  C   UNL     1       7.405  -0.792  21.575  0.00  0.00    +0.000 C 
ATOM     11  C   UNL     1       7.527   0.358  20.620  0.00  0.00    +0.000 C 
ATOM     12  C   UNL     1       6.203   0.732  19.998  0.00  0.00    +0.000 C 
ATOM     13  O   UNL     1       8.381  -0.074  19.560  0.00  0.00    +0.000 OA
ATOM     14  C   UNL     1       8.201   1.563  21.235  0.00  0.00    +0.000 C 
ATOM     15  C   UNL     1       7.544   1.925  22.549  0.00  0.00    +0.000 C 
ATOM     16  C   UNL     1       6.008   1.634  24.852  0.00  0.00    +0.000 C 
ENDROOT
BRANCH   1  18
ATOM     17  F   UNL     1      10.044  -2.638  23.361  0.00  0.00    +0.000 F 
ATOM     18  C   UNL     1       8.710  -2.345  22.955  0.00  0.00    +0.000 C 
ATOM     19  C   UNL     1       7.961  -3.485  22.950  0.00  0.00    +0.000 C 
BRANCH  19  20
ATOM     20  C   UNL     1       6.738  -4.027  23.626  0.00  0.00    +0.000 C 
ATOM     21  O   UNL     1       7.088  -4.981  24.585  0.00  0.00    +0.000 OA
BRANCH  20  22
ATOM     22  S   UNL     1       5.611  -4.710  22.445  0.00  0.00    +0.000 S 
ATOM     23  O   UNL     1       5.687  -3.915  21.249  0.00  0.00    +0.000 OA
ATOM     24  O   UNL     1       5.928  -6.105  22.290  0.00  0.00    +0.000 OA
ATOM     25  N   UNL     1       4.077  -4.596  23.047  0.00  0.00    +0.000 NA
ENDBRANCH  20  22
ENDBRANCH  19  20
ENDBRANCH   1  18
BRANCH   3  26
ATOM     26  C   UNL     1       9.965  -0.265  24.535  0.00  0.00    +0.000 C 
ATOM     27  O   UNL     1      10.918   0.364  25.097  0.00  0.00    +0.000 OA
ATOM     28  O   UNL     1       8.964  -0.521  25.442  0.00  0.00    +0.000 OA
ENDBRANCH   3  26
TORSDOF 4
ENDMDL
MODEL 2
REMARK VINA RESULT:      -7.8      1.809      1.925
REMARK  Name = 
REMARK  4 active torsions:
REMARK  status: ('A' for Active; 'I' for Inactive)
REMARK    1  A    between atoms: C_2  and  C_10
REMARK    2  A    between atoms: C_3  and  C_4
REMARK    3  A    between atoms: C_4  and  S_5
REMARK    4  A    between atoms: C_12  and  C_28
REMARK                            x       y       z     vdW  Elec       q    Type
REMARK                         _______ _______ _______ _____ _____    ______ ____
ROOT
ATOM      1  C   UNL     1       9.142  -1.253  21.808  0.00  0.00    +0.000 C 
ATOM      2  C   UNL     1      10.002  -0.008  21.889  0.00  0.00    +0.000 C 
ATOM      3  C   UNL     1       9.736   0.792  23.130  0.00  0.00    +0.000 C 
ATOM      4  C   UNL     1      10.259   2.261  22.944  0.00  0.00    +0.000 C 
ATOM      5  C   UNL     1       9.493   3.139  23.842  0.00  0.00    +0.000 C 
ATOM      6  N   UNL     1       8.872   2.828  24.845  0.00  0.00    +0.000 NA
ATOM      7  C   UNL     1       8.097   1.610  24.802  0.00  0.00    +0.000 C 
ATOM      8  C   UNL     1       8.308   0.950  23.462  0.00  0.00    +0.000 C 
ATOM      9  C   UNL     1       7.415  -0.236  23.198  0.00  0.00    +0.000 C 
ATOM     10  C   UNL     1       7.659  -0.754  21.799  0.00  0.00    +0.000 C 
ATOM     11  C   UNL     1       7.558   0.278  20.715  0.00  0.00    +0.000 C 
ATOM     12  C   UNL     1       6.134   0.507  20.270  0.00  0.00    +0.000 C 
ATOM     13  O   UNL     1       8.272  -0.234  19.589  0.00  0.00    +0.000 OA
ATOM     14  C   UNL     1       8.233   1.580  21.080  0.00  0.00    +0.000 C 
ATOM     15  C   UNL     1       7.757   2.063  22.433  0.00  0.00    +0.000 C 
ATOM     16  C   UNL     1       6.605   1.973  24.965  0.00  0.00    +0.000 C 
ENDROOT
BRANCH   1  18
ATOM     17  F   UNL     1      10.639  -2.389  23.253  0.00  0.00    +0.000 F 
ATOM     18  C   UNL     1       9.258  -2.064  23.122  0.00  0.00    +0.000 C 
ATOM     19  C   UNL     1       8.490  -3.152  23.418  0.00  0.00    +0.000 C 
BRANCH  19  20
ATOM     20  C   UNL     1       7.437  -3.544  24.409  0.00  0.00    +0.000 C 
ATOM     21  O   UNL     1       7.122  -2.470  25.245  0.00  0.00    +0.000 OA
BRANCH  20  22
ATOM     22  S   UNL     1       7.950  -4.947  25.358  0.00  0.00    +0.000 S 
ATOM     23  O   UNL     1       6.792  -5.763  25.604  0.00  0.00    +0.000 OA
ATOM     24  O   UNL     1       9.027  -5.587  24.649  0.00  0.00    +0.000 OA
ATOM     25  N   UNL     1       8.533  -4.421  26.811  0.00  0.00    +0.000 NA
ENDBRANCH  20  22
ENDBRANCH  19  20
ENDBRANCH   1  18
BRANCH   3  26
ATOM     26  C   UNL     1      10.591   0.252  24.246  0.00  0.00    +0.000 C 
ATOM     27  O   UNL     1      11.567   0.993  24.585  0.00  0.00    +0.000 OA
ATOM     28  O   UNL     1       9.754   0.047  25.318  0.00  0.00    +0.000 OA
ENDBRANCH   3  26
TORSDOF 4
ENDMDL
MODEL 3
REMARK VINA RESULT:      -7.8      2.570      3.961
REMARK  Name = 
REMARK  4 active torsions:
REMARK  status: ('A' for Active; 'I' for Inactive)
REMARK    1  A    between atoms: C_2  and  C_10
REMARK    2  A    between atoms: C_3  and  C_4
REMARK    3  A    between atoms: C_4  and  S_5
REMARK    4  A    between atoms: C_12  and  C_28
REMARK                            x       y       z     vdW  Elec       q    Type
REMARK                         _______ _______ _______ _____ _____    ______ ____
ROOT
ATOM      1  C   UNL     1       9.717   0.527  22.217  0.00  0.00    +0.000 C 
ATOM      2  C   UNL     1      10.136   0.074  23.600  0.00  0.00    +0.000 C 
ATOM      3  C   UNL     1       8.983  -0.446  24.407  0.00  0.00    +0.000 C 
ATOM      4  C   UNL     1       9.349  -0.439  25.934  0.00  0.00    +0.000 C 
ATOM      5  C   UNL     1       8.100  -0.356  26.706  0.00  0.00    +0.000 C 
ATOM      6  N   UNL     1       6.972  -0.651  26.343  0.00  0.00    +0.000 NA
ATOM      7  C   UNL     1       6.581  -0.279  25.003  0.00  0.00    +0.000 C 
ATOM      8  C   UNL     1       7.758   0.370  24.319  0.00  0.00    +0.000 C 
ATOM      9  C   UNL     1       7.445   0.982  22.978  0.00  0.00    +0.000 C 
ATOM     10  C   UNL     1       8.676   1.674  22.435  0.00  0.00    +0.000 C 
ATOM     11  C   UNL     1       9.310   2.661  23.369  0.00  0.00    +0.000 C 
ATOM     12  C   UNL     1       8.649   4.017  23.309  0.00  0.00    +0.000 C 
ATOM     13  O   UNL     1      10.660   2.833  22.934  0.00  0.00    +0.000 OA
ATOM     14  C   UNL     1       9.392   2.156  24.791  0.00  0.00    +0.000 C 
ATOM     15  C   UNL     1       8.040   1.655  25.254  0.00  0.00    +0.000 C 
ATOM     16  C   UNL     1       5.420   0.733  25.097  0.00  0.00    +0.000 C 
ENDROOT
BRANCH   1  18
ATOM     17  F   UNL     1       9.851  -1.603  21.186  0.00  0.00    +0.000 F 
ATOM     18  C   UNL     1       8.906  -0.589  21.516  0.00  0.00    +0.000 C 
ATOM     19  C   UNL     1       8.063  -0.376  20.465  0.00  0.00    +0.000 C 
BRANCH  19  20
ATOM     20  C   UNL     1       6.597  -0.466  20.168  0.00  0.00    +0.000 C 
ATOM     21  O   UNL     1       6.127  -1.762  20.394  0.00  0.00    +0.000 OA
BRANCH  20  22
ATOM     22  S   UNL     1       6.254   0.044  18.507  0.00  0.00    +0.000 S 
ATOM     23  O   UNL     1       7.402   0.759  18.019  0.00  0.00    +0.000 OA
ATOM     24  O   UNL     1       5.879  -1.125  17.757  0.00  0.00    +0.000 OA
ATOM     25  N   UNL     1       4.967   1.079  18.525  0.00  0.00    +0.000 NA
ENDBRANCH  20  22
ENDBRANCH  19  20
ENDBRANCH   1  18
BRANCH   3  26
ATOM     26  C   UNL     1       8.794  -1.907  24.095  0.00  0.00    +0.000 C 
ATOM     27  O   UNL     1       7.975  -2.157  23.154  0.00  0.00    +0.000 OA
ATOM     28  O   UNL     1      10.037  -2.407  23.787  0.00  0.00    +0.000 OA
ENDBRANCH   3  26
TORSDOF 4
ENDMDL
MODEL 4
REMARK VINA RESULT:      -7.6      2.663      4.902
REMARK  Name = 
REMARK  4 active torsions:
REMARK  status: ('A' for Active; 'I' for Inactive)
REMARK    1  A    between atoms: C_2  and  C_10
REMARK    2  A    between atoms: C_3  and  C_4
REMARK    3  A    between atoms: C_4  and  S_5
REMARK    4  A    between atoms: C_12  and  C_28
REMARK                            x       y       z     vdW  Elec       q    Type
REMARK                         _______ _______ _______ _____ _____    ______ ____
ROOT
ATOM      1  C   UNL     1       8.667  -0.583  23.440  0.00  0.00    +0.000 C 
ATOM      2  C   UNL     1       9.172  -1.546  24.495  0.00  0.00    +0.000 C 
ATOM      3  C   UNL     1       8.209  -2.665  24.758  0.00  0.00    +0.000 C 
ATOM      4  C   UNL     1       8.524  -3.331  26.145  0.00  0.00    +0.000 C 
ATOM      5  C   UNL     1       7.291  -3.956  26.645  0.00  0.00    +0.000 C 
ATOM      6  N   UNL     1       6.309  -4.299  26.005  0.00  0.00    +0.000 NA
ATOM      7  C   UNL     1       5.854  -3.419  24.954  0.00  0.00    +0.000 C 
ATOM      8  C   UNL     1       6.799  -2.246  24.862  0.00  0.00    +0.000 C 
ATOM      9  C   UNL     1       6.347  -1.147  23.936  0.00  0.00    +0.000 C 
ATOM     10  C   UNL     1       7.327   0.003  23.996  0.00  0.00    +0.000 C 
ATOM     11  C   UNL     1       7.620   0.515  25.375  0.00  0.00    +0.000 C 
ATOM     12  C   UNL     1       6.587   1.507  25.852  0.00  0.00    +0.000 C 
ATOM     13  O   UNL     1       8.866   1.208  25.303  0.00  0.00    +0.000 OA
ATOM     14  C   UNL     1       7.817  -0.594  26.383  0.00  0.00    +0.000 C 
ATOM     15  C   UNL     1       6.666  -1.576  26.324  0.00  0.00    +0.000 C 
ATOM     16  C   UNL     1       4.442  -2.912  25.319  0.00  0.00    +0.000 C 
ENDROOT
BRANCH   1  18
ATOM     17  F   UNL     1       9.397  -2.080  21.753  0.00  0.00    +0.000 F 
ATOM     18  C   UNL     1       8.240  -1.362  22.172  0.00  0.00    +0.000 C 
ATOM     19  C   UNL     1       7.628  -0.791  21.095  0.00  0.00    +0.000 C 
BRANCH  19  20
ATOM     20  C   UNL     1       6.303  -0.850  20.396  0.00  0.00    +0.000 C 
ATOM     21  O   UNL     1       5.811  -2.157  20.384  0.00  0.00    +0.000 OA
BRANCH  20  22
ATOM     22  S   UNL     1       6.426  -0.211  18.750  0.00  0.00    +0.000 S 
ATOM     23  O   UNL     1       7.786   0.204  18.537  0.00  0.00    +0.000 OA
ATOM     24  O   UNL     1       5.930  -1.217  17.850  0.00  0.00    +0.000 OA
ATOM     25  N   UNL     1       5.453   1.118  18.623  0.00  0.00    +0.000 NA
ENDBRANCH  20  22
ENDBRANCH  19  20
ENDBRANCH   1  18
BRANCH   3  26
ATOM     26  C   UNL     1       8.470  -3.770  23.768  0.00  0.00    +0.000 C 
ATOM     27  O   UNL     1       9.005  -4.816  24.257  0.00  0.00    +0.000 OA
ATOM     28  O   UNL     1       7.259  -4.078  23.195  0.00  0.00    +0.000 OA
ENDBRANCH   3  26
TORSDOF 4
ENDMDL
MODEL 5
REMARK VINA RESULT:      -7.3      2.892      6.000
REMARK  Name = 
REMARK  4 active torsions:
REMARK  status: ('A' for Active; 'I' for Inactive)
REMARK    1  A    between atoms: C_2  and  C_10
REMARK    2  A    between atoms: C_3  and  C_4
REMARK    3  A    between atoms: C_4  and  S_5
REMARK    4  A    between atoms: C_12  and  C_28
REMARK                            x       y       z     vdW  Elec       q    Type
REMARK                         _______ _______ _______ _____ _____    ______ ____
ROOT
ATOM      1  C   UNL     1       6.214  -2.339  22.918  0.00  0.00    +0.000 C 
ATOM      2  C   UNL     1       5.469  -2.860  24.129  0.00  0.00    +0.000 C 
ATOM      3  C   UNL     1       6.387  -3.186  25.270  0.00  0.00    +0.000 C 
ATOM      4  C   UNL     1       5.667  -4.148  26.281  0.00  0.00    +0.000 C 
ATOM      5  C   UNL     1       6.696  -4.906  27.007  0.00  0.00    +0.000 C 
ATOM      6  N   UNL     1       7.873  -4.618  27.160  0.00  0.00    +0.000 NA
ATOM      7  C   UNL     1       8.579  -4.061  26.030  0.00  0.00    +0.000 C 
ATOM      8  C   UNL     1       7.612  -3.909  24.883  0.00  0.00    +0.000 C 
ATOM      9  C   UNL     1       8.247  -3.516  23.574  0.00  0.00    +0.000 C 
ATOM     10  C   UNL     1       7.194  -3.480  22.488  0.00  0.00    +0.000 C 
ATOM     11  C   UNL     1       6.373  -4.729  22.362  0.00  0.00    +0.000 C 
ATOM     12  C   UNL     1       7.054  -5.783  21.523  0.00  0.00    +0.000 C 
ATOM     13  O   UNL     1       5.170  -4.365  21.684  0.00  0.00    +0.000 OA
ATOM     14  C   UNL     1       5.945  -5.288  23.700  0.00  0.00    +0.000 C 
ATOM     15  C   UNL     1       7.138  -5.429  24.621  0.00  0.00    +0.000 C 
ATOM     16  C   UNL     1       9.703  -5.039  25.627  0.00  0.00    +0.000 C 
ENDROOT
BRANCH   1  18
ATOM     17  F   UNL     1       6.341  -0.286  24.096  0.00  0.00    +0.000 F 
ATOM     18  C   UNL     1       7.148  -1.176  23.330  0.00  0.00    +0.000 C 
ATOM     19  C   UNL     1       7.922  -0.470  22.455  0.00  0.00    +0.000 C 
BRANCH  19  20
ATOM     20  C   UNL     1       9.377  -0.251  22.171  0.00  0.00    +0.000 C 
ATOM     21  O   UNL     1      10.126  -1.368  22.547  0.00  0.00    +0.000 OA
BRANCH  20  22
ATOM     22  S   UNL     1       9.969   1.205  22.985  0.00  0.00    +0.000 S 
ATOM     23  O   UNL     1      10.934   0.799  23.971  0.00  0.00    +0.000 OA
ATOM     24  O   UNL     1      10.450   2.109  21.974  0.00  0.00    +0.000 OA
ATOM     25  N   UNL     1       8.705   1.929  23.764  0.00  0.00    +0.000 NA
ENDBRANCH  20  22
ENDBRANCH  19  20
ENDBRANCH   1  18
BRANCH   3  26
ATOM     26  C   UNL     1       6.617  -1.934  26.077  0.00  0.00    +0.000 C 
ATOM     27  O   UNL     1       5.969  -1.870  27.169  0.00  0.00    +0.000 OA
ATOM     28  O   UNL     1       7.969  -1.868  26.320  0.00  0.00    +0.000 OA
ENDBRANCH   3  26
TORSDOF 4
ENDMDL
MODEL 6
REMARK VINA RESULT:      -7.2      2.424      3.913
REMARK  Name = 
REMARK  4 active torsions:
REMARK  status: ('A' for Active; 'I' for Inactive)
REMARK    1  A    between atoms: C_2  and  C_10
REMARK    2  A    between atoms: C_3  and  C_4
REMARK    3  A    between atoms: C_4  and  S_5
REMARK    4  A    between atoms: C_12  and  C_28
REMARK                            x       y       z     vdW  Elec       q    Type
REMARK                         _______ _______ _______ _____ _____    ______ ____
ROOT
ATOM      1  C   UNL     1       6.353  -1.297  23.653  0.00  0.00    +0.000 C 
ATOM      2  C   UNL     1       6.490  -0.148  22.676  0.00  0.00    +0.000 C 
ATOM      3  C   UNL     1       7.922   0.191  22.387  0.00  0.00    +0.000 C 
ATOM      4  C   UNL     1       8.022   1.639  21.789  0.00  0.00    +0.000 C 
ATOM      5  C   UNL     1       9.365   2.164  22.075  0.00  0.00    +0.000 C 
ATOM      6  N   UNL     1      10.378   1.533  22.336  0.00  0.00    +0.000 NA
ATOM      7  C   UNL     1      10.250   0.397  23.218  0.00  0.00    +0.000 C 
ATOM      8  C   UNL     1       8.795   0.223  23.575  0.00  0.00    +0.000 C 
ATOM      9  C   UNL     1       8.528  -0.809  24.641  0.00  0.00    +0.000 C 
ATOM     10  C   UNL     1       7.053  -0.829  24.972  0.00  0.00    +0.000 C 
ATOM     11  C   UNL     1       6.465   0.505  25.322  0.00  0.00    +0.000 C 
ATOM     12  C   UNL     1       6.679   0.865  26.772  0.00  0.00    +0.000 C 
ATOM     13  O   UNL     1       5.055   0.401  25.120  0.00  0.00    +0.000 OA
ATOM     14  C   UNL     1       6.937   1.613  24.409  0.00  0.00    +0.000 C 
ATOM     15  C   UNL     1       8.448   1.614  24.315  0.00  0.00    +0.000 C 
ATOM     16  C   UNL     1      11.062   0.680  24.500  0.00  0.00    +0.000 C 
ENDROOT
BRANCH   1  18
ATOM     17  F   UNL     1       6.745  -2.806  21.868  0.00  0.00    +0.000 F 
ATOM     18  C   UNL     1       7.205  -2.500  23.181  0.00  0.00    +0.000 C 
ATOM     19  C   UNL     1       7.369  -3.648  23.899  0.00  0.00    +0.000 C 
BRANCH  19  20
ATOM     20  C   UNL     1       8.472  -4.386  24.596  0.00  0.00    +0.000 C 
ATOM     21  O   UNL     1       8.771  -5.574  23.924  0.00  0.00    +0.000 OA
BRANCH  20  22
ATOM     22  S   UNL     1       8.048  -4.711  26.284  0.00  0.00    +0.000 S 
ATOM     23  O   UNL     1       7.393  -5.989  26.338  0.00  0.00    +0.000 OA
ATOM     24  O   UNL     1       9.248  -4.589  27.069  0.00  0.00    +0.000 OA
ATOM     25  N   UNL     1       6.980  -3.558  26.794  0.00  0.00    +0.000 NA
ENDBRANCH  20  22
ENDBRANCH  19  20
ENDBRANCH   1  18
BRANCH   3  26
ATOM     26  C   UNL     1       8.410  -0.689  21.266  0.00  0.00    +0.000 C 
ATOM     27  O   UNL     1       8.513  -0.114  20.136  0.00  0.00    +0.000 OA
ATOM     28  O   UNL     1       9.630  -1.186  21.659  0.00  0.00    +0.000 OA
ENDBRANCH   3  26
TORSDOF 4
ENDMDL
MODEL 7
REMARK VINA RESULT:      -6.9      2.810      6.889
REMARK  Name = 
REMARK  4 active torsions:
REMARK  status: ('A' for Active; 'I' for Inactive)
REMARK    1  A    between atoms: C_2  and  C_10
REMARK    2  A    between atoms: C_3  and  C_4
REMARK    3  A    between atoms: C_4  and  S_5
REMARK    4  A    between atoms: C_12  and  C_28
REMARK                            x       y       z     vdW  Elec       q    Type
REMARK                         _______ _______ _______ _____ _____    ______ ____
ROOT
ATOM      1  C   UNL     1       8.216  -4.078  24.346  0.00  0.00    +0.000 C 
ATOM      2  C   UNL     1       7.559  -5.209  23.581  0.00  0.00    +0.000 C 
ATOM      3  C   UNL     1       6.145  -4.894  23.194  0.00  0.00    +0.000 C 
ATOM      4  C   UNL     1       5.372  -6.219  22.857  0.00  0.00    +0.000 C 
ATOM      5  C   UNL     1       3.937  -5.982  23.075  0.00  0.00    +0.000 C 
ATOM      6  N   UNL     1       3.348  -4.913  23.099  0.00  0.00    +0.000 NA
ATOM      7  C   UNL     1       3.991  -3.808  23.772  0.00  0.00    +0.000 C 
ATOM      8  C   UNL     1       5.345  -4.261  24.259  0.00  0.00    +0.000 C 
ATOM      9  C   UNL     1       6.057  -3.272  25.146  0.00  0.00    +0.000 C 
ATOM     10  C   UNL     1       7.355  -3.872  25.637  0.00  0.00    +0.000 C 
ATOM     11  C   UNL     1       7.225  -5.218  26.287  0.00  0.00    +0.000 C 
ATOM     12  C   UNL     1       6.841  -5.118  27.743  0.00  0.00    +0.000 C 
ATOM     13  O   UNL     1       8.514  -5.829  26.234  0.00  0.00    +0.000 OA
ATOM     14  C   UNL     1       6.293  -6.143  25.538  0.00  0.00    +0.000 C 
ATOM     15  C   UNL     1       4.969  -5.460  25.271  0.00  0.00    +0.000 C 
ATOM     16  C   UNL     1       3.122  -3.400  24.981  0.00  0.00    +0.000 C 
ENDROOT
BRANCH   1  18
ATOM     17  F   UNL     1       8.495  -3.021  22.243  0.00  0.00    +0.000 F 
ATOM     18  C   UNL     1       8.053  -2.749  23.570  0.00  0.00    +0.000 C 
ATOM     19  C   UNL     1       8.552  -1.551  23.993  0.00  0.00    +0.000 C 
BRANCH  19  20
ATOM     20  C   UNL     1       8.035  -0.221  24.451  0.00  0.00    +0.000 C 
ATOM     21  O   UNL     1       6.943   0.177  23.675  0.00  0.00    +0.000 OA
BRANCH  20  22
ATOM     22  S   UNL     1       9.313   1.003  24.409  0.00  0.00    +0.000 S 
ATOM     23  O   UNL     1       8.797   2.203  25.009  0.00  0.00    +0.000 OA
ATOM     24  O   UNL     1      10.480   0.442  25.036  0.00  0.00    +0.000 OA
ATOM     25  N   UNL     1       9.684   1.331  22.832  0.00  0.00    +0.000 NA
ENDBRANCH  20  22
ENDBRANCH  19  20
ENDBRANCH   1  18
BRANCH   3  26
ATOM     26  C   UNL     1       6.157  -4.150  21.884  0.00  0.00    +0.000 C 
ATOM     27  O   UNL     1       5.849  -4.846  20.865  0.00  0.00    +0.000 OA
ATOM     28  O   UNL     1       5.284  -3.097  22.022  0.00  0.00    +0.000 OA
ENDBRANCH   3  26
TORSDOF 4
ENDMDL
MODEL 8
REMARK VINA RESULT:      -6.8      1.867      2.163
REMARK  Name = 
REMARK  4 active torsions:
REMARK  status: ('A' for Active; 'I' for Inactive)
REMARK    1  A    between atoms: C_2  and  C_10
REMARK    2  A    between atoms: C_3  and  C_4
REMARK    3  A    between atoms: C_4  and  S_5
REMARK    4  A    between atoms: C_12  and  C_28
REMARK                            x       y       z     vdW  Elec       q    Type
REMARK                         _______ _______ _______ _____ _____    ______ ____
ROOT
ATOM      1  C   UNL     1       7.728  -1.940  21.734  0.00  0.00    +0.000 C 
ATOM      2  C   UNL     1       9.156  -1.479  21.945  0.00  0.00    +0.000 C 
ATOM      3  C   UNL     1       9.361  -0.846  23.289  0.00  0.00    +0.000 C 
ATOM      4  C   UNL     1      10.665   0.028  23.279  0.00  0.00    +0.000 C 
ATOM      5  C   UNL     1      10.532   1.064  24.314  0.00  0.00    +0.000 C 
ATOM      6  N   UNL     1       9.800   1.060  25.291  0.00  0.00    +0.000 NA
ATOM      7  C   UNL     1       8.455   0.564  25.117  0.00  0.00    +0.000 C 
ATOM      8  C   UNL     1       8.295   0.088  23.695  0.00  0.00    +0.000 C 
ATOM      9  C   UNL     1       6.885  -0.283  23.312  0.00  0.00    +0.000 C 
ATOM     10  C   UNL     1       6.838  -0.658  21.847  0.00  0.00    +0.000 C 
ATOM     11  C   UNL     1       7.425   0.358  20.914  0.00  0.00    +0.000 C 
ATOM     12  C   UNL     1       6.443   1.448  20.559  0.00  0.00    +0.000 C 
ATOM     13  O   UNL     1       7.746  -0.328  19.704  0.00  0.00    +0.000 OA
ATOM     14  C   UNL     1       8.725   0.939  21.421  0.00  0.00    +0.000 C 
ATOM     15  C   UNL     1       8.567   1.432  22.844  0.00  0.00    +0.000 C 
ATOM     16  C   UNL     1       7.469   1.722  25.384  0.00  0.00    +0.000 C 
ENDROOT
BRANCH   1  18
ATOM     17  F   UNL     1       8.037  -4.020  22.828  0.00  0.00    +0.000 F 
ATOM     18  C   UNL     1       7.274  -2.821  22.923  0.00  0.00    +0.000 C 
ATOM     19  C   UNL     1       5.972  -3.115  23.202  0.00  0.00    +0.000 C 
BRANCH  19  20
ATOM     20  C   UNL     1       4.966  -2.842  24.280  0.00  0.00    +0.000 C 
ATOM     21  O   UNL     1       5.606  -2.571  25.492  0.00  0.00    +0.000 OA
BRANCH  20  22
ATOM     22  S   UNL     1       3.840  -4.196  24.453  0.00  0.00    +0.000 S 
ATOM     23  O   UNL     1       4.442  -5.163  25.330  0.00  0.00    +0.000 OA
ATOM     24  O   UNL     1       2.575  -3.662  24.884  0.00  0.00    +0.000 OA
ATOM     25  N   UNL     1       3.624  -4.899  22.974  0.00  0.00    +0.000 NA
ENDBRANCH  20  22
ENDBRANCH  19  20
ENDBRANCH   1  18
BRANCH   3  26
ATOM     26  C   UNL     1       9.669  -1.929  24.291  0.00  0.00    +0.000 C 
ATOM     27  O   UNL     1       8.658  -2.408  24.895  0.00  0.00    +0.000 OA
ATOM     28  O   UNL     1      10.328  -2.922  23.605  0.00  0.00    +0.000 OA
ENDBRANCH   3  26
TORSDOF 4
ENDMDL
MODEL 9
REMARK VINA RESULT:      -6.8      2.650      5.137
REMARK  Name = 
REMARK  4 active torsions:
REMARK  status: ('A' for Active; 'I' for Inactive)
REMARK    1  A    between atoms: C_2  and  C_10
REMARK    2  A    between atoms: C_3  and  C_4
REMARK    3  A    between atoms: C_4  and  S_5
REMARK    4  A    between atoms: C_12  and  C_28
REMARK                            x       y       z     vdW  Elec       q    Type
REMARK                         _______ _______ _______ _____ _____    ______ ____
ROOT
ATOM      1  C   UNL     1       8.452   0.485  24.835  0.00  0.00    +0.000 C 
ATOM      2  C   UNL     1       8.910  -0.745  25.591  0.00  0.00    +0.000 C 
ATOM      3  C   UNL     1       8.427  -2.018  24.962  0.00  0.00    +0.000 C 
ATOM      4  C   UNL     1       8.496  -3.192  26.002  0.00  0.00    +0.000 C 
ATOM      5  C   UNL     1       7.512  -4.212  25.612  0.00  0.00    +0.000 C 
ATOM      6  N   UNL     1       7.012  -4.390  24.512  0.00  0.00    +0.000 NA
ATOM      7  C   UNL     1       6.627  -3.223  23.754  0.00  0.00    +0.000 C 
ATOM      8  C   UNL     1       7.017  -1.991  24.532  0.00  0.00    +0.000 C 
ATOM      9  C   UNL     1       6.509  -0.696  23.953  0.00  0.00    +0.000 C 
ATOM     10  C   UNL     1       6.888   0.451  24.862  0.00  0.00    +0.000 C 
ATOM     11  C   UNL     1       6.485   0.281  26.297  0.00  0.00    +0.000 C 
ATOM     12  C   UNL     1       5.055   0.693  26.546  0.00  0.00    +0.000 C 
ATOM     13  O   UNL     1       7.313   1.155  27.065  0.00  0.00    +0.000 OA
ATOM     14  C   UNL     1       6.751  -1.112  26.820  0.00  0.00    +0.000 C 
ATOM     15  C   UNL     1       6.160  -2.149  25.889  0.00  0.00    +0.000 C 
ATOM     16  C   UNL     1       5.095  -3.246  23.565  0.00  0.00    +0.000 C 
ENDROOT
BRANCH   1  18
ATOM     17  F   UNL     1      10.187   0.002  23.294  0.00  0.00    +0.000 F 
ATOM     18  C   UNL     1       8.805   0.347  23.334  0.00  0.00    +0.000 C 
ATOM     19  C   UNL     1       8.532   1.297  22.394  0.00  0.00    +0.000 C 
BRANCH  19  20
ATOM     20  C   UNL     1       7.670   1.457  21.179  0.00  0.00    +0.000 C 
ATOM     21  O   UNL     1       6.348   1.719  21.545  0.00  0.00    +0.000 OA
BRANCH  20  22
ATOM     22  S   UNL     1       7.763   0.025  20.144  0.00  0.00    +0.000 S 
ATOM     23  O   UNL     1       7.541   0.444  18.786  0.00  0.00    +0.000 OA
ATOM     24  O   UNL     1       9.022  -0.623  20.401  0.00  0.00    +0.000 OA
ATOM     25  N   UNL     1       6.553  -1.016  20.568  0.00  0.00    +0.000 NA
ENDBRANCH  20  22
ENDBRANCH  19  20
ENDBRANCH   1  18
BRANCH   3  26
ATOM     26  C   UNL     1       9.407  -2.432  23.896  0.00  0.00    +0.000 C 
ATOM     27  O   UNL     1      10.139  -3.429  24.194  0.00  0.00    +0.000 OA
ATOM     28  O   UNL     1       8.669  -2.705  22.768  0.00  0.00    +0.000 OA
ENDBRANCH   3  26
TORSDOF 4
ENDMDL
