MODEL 1
REMARK VINA RESULT:      -8.0      0.000      0.000
REMARK  Name = 
REMARK  2 active torsions:
REMARK  status: ('A' for Active; 'I' for Inactive)
REMARK    1  A    between atoms: C_5  and  N_16
REMARK    2  A    between atoms: C_6  and  C_8
REMARK                            x       y       z     vdW  Elec       q    Type
REMARK                         _______ _______ _______ _____ _____    ______ ____
ROOT
ATOM      1  F   UNL     1       7.158  -0.513  18.170  0.00  0.00    +0.000 F 
ATOM      2  C   UNL     1       6.649   0.011  19.313  0.00  0.00    +0.000 A 
ATOM      3  C   UNL     1       5.948  -1.366  19.876  0.00  0.00    +0.000 A 
ATOM      4  C   UNL     1       6.400  -1.594  21.273  0.00  0.00    +0.000 A 
ATOM      5  C   UNL     1       7.744  -1.235  22.006  0.00  0.00    +0.000 A 
ATOM      6  C   UNL     1       8.383  -0.025  21.478  0.00  0.00    +0.000 A 
ATOM      7  C   UNL     1       7.768   0.423  20.144  0.00  0.00    +0.000 A 
ENDROOT
BRANCH   5   8
ATOM      8  N   UNL     1       8.378  -2.456  22.281  0.00  0.00    +0.000 N 
ATOM      9  C   UNL     1       7.504  -3.634  22.516  0.00  0.00    +0.000 C 
ATOM     10  C   UNL     1       6.912  -3.427  23.932  0.00  0.00    +0.000 C 
ATOM     11  N   UNL     1       8.076  -3.386  24.854  0.00  0.00    +0.000 N 
ATOM     12  C   UNL     1       9.038  -2.308  24.622  0.00  0.00    +0.000 C 
ATOM     13  C   UNL     1       9.536  -2.361  23.188  0.00  0.00    +0.000 C 
ATOM     14  C   UNL     1       8.600  -4.627  25.147  0.00  0.00    +0.000 C 
ATOM     15  O   UNL     1       8.963  -5.311  24.196  0.00  0.00    +0.000 OA
ATOM     16  C   UNL     1       7.960  -5.294  26.353  0.00  0.00    +0.000 C 
ENDBRANCH   5   8
BRANCH   6  17
ATOM     17  C   UNL     1       8.515   1.150  22.380  0.00  0.00    +0.000 A 
ATOM     18  C   UNL     1       7.125   1.037  23.270  0.00  0.00    +0.000 A 
ATOM     19  N   UNL     1       7.532   1.006  24.564  0.00  0.00    +0.000 NA
ATOM     20  C   UNL     1       8.600   1.055  25.330  0.00  0.00    +0.000 A 
ATOM     21  C   UNL     1       9.977   1.148  24.632  0.00  0.00    +0.000 A 
ATOM     22  C   UNL     1       9.703   1.406  23.156  0.00  0.00    +0.000 A 
ATOM     23  C   UNL     1      10.474   2.757  22.829  0.00  0.00    +0.000 C 
ATOM     24  O   UNL     1      11.007   0.481  25.051  0.00  0.00    +0.000 OA
ENDBRANCH   6  17
TORSDOF 2
ENDMDL
MODEL 2
REMARK VINA RESULT:      -7.9      1.713      2.193
REMARK  Name = 
REMARK  2 active torsions:
REMARK  status: ('A' for Active; 'I' for Inactive)
REMARK    1  A    between atoms: C_5  and  N_16
REMARK    2  A    between atoms: C_6  and  C_8
REMARK                            x       y       z     vdW  Elec       q    Type
REMARK                         _______ _______ _______ _____ _____    ______ ____
ROOT
ATOM      1  F   UNL     1       7.834   0.316  18.653  0.00  0.00    +0.000 F 
ATOM      2  C   UNL     1       7.007   0.554  19.701  0.00  0.00    +0.000 A 
ATOM      3  C   UNL     1       6.348  -0.950  19.789  0.00  0.00    +0.000 A 
ATOM      4  C   UNL     1       6.468  -1.444  21.185  0.00  0.00    +0.000 A 
ATOM      5  C   UNL     1       7.546  -1.170  22.298  0.00  0.00    +0.000 A 
ATOM      6  C   UNL     1       8.156   0.159  22.196  0.00  0.00    +0.000 A 
ATOM      7  C   UNL     1       7.838   0.845  20.859  0.00  0.00    +0.000 A 
ENDROOT
BRANCH   5   8
ATOM      8  N   UNL     1       8.225  -2.383  22.491  0.00  0.00    +0.000 N 
ATOM      9  C   UNL     1       7.397  -3.587  22.759  0.00  0.00    +0.000 C 
ATOM     10  C   UNL     1       6.911  -3.430  24.221  0.00  0.00    +0.000 C 
ATOM     11  N   UNL     1       8.141  -3.386  25.052  0.00  0.00    +0.000 N 
ATOM     12  C   UNL     1       9.059  -2.280  24.778  0.00  0.00    +0.000 C 
ATOM     13  C   UNL     1       9.446  -2.284  23.309  0.00  0.00    +0.000 C 
ATOM     14  C   UNL     1       8.712  -4.622  25.271  0.00  0.00    +0.000 C 
ATOM     15  O   UNL     1       9.016  -5.271  24.277  0.00  0.00    +0.000 OA
ATOM     16  C   UNL     1       8.180  -5.334  26.504  0.00  0.00    +0.000 C 
ENDBRANCH   5   8
BRANCH   6  17
ATOM     17  C   UNL     1       7.933   1.121  23.309  0.00  0.00    +0.000 A 
ATOM     18  C   UNL     1       9.475   1.342  23.865  0.00  0.00    +0.000 A 
ATOM     19  N   UNL     1       9.684   2.681  23.814  0.00  0.00    +0.000 NA
ATOM     20  C   UNL     1       9.106   3.823  23.511  0.00  0.00    +0.000 A 
ATOM     21  C   UNL     1       7.660   3.770  22.962  0.00  0.00    +0.000 A 
ATOM     22  C   UNL     1       7.176   2.337  23.146  0.00  0.00    +0.000 A 
ATOM     23  C   UNL     1       5.857   2.463  24.025  0.00  0.00    +0.000 C 
ATOM     24  O   UNL     1       7.267   4.527  21.986  0.00  0.00    +0.000 OA
ENDBRANCH   6  17
TORSDOF 2
ENDMDL
MODEL 3
REMARK VINA RESULT:      -7.5      1.933      2.344
REMARK  Name = 
REMARK  2 active torsions:
REMARK  status: ('A' for Active; 'I' for Inactive)
REMARK    1  A    between atoms: C_5  and  N_16
REMARK    2  A    between atoms: C_6  and  C_8
REMARK                            x       y       z     vdW  Elec       q    Type
REMARK                         _______ _______ _______ _____ _____    ______ ____
ROOT
ATOM      1  F   UNL     1       8.298  -0.155  18.710  0.00  0.00    +0.000 F 
ATOM      2  C   UNL     1       7.597   0.294  19.781  0.00  0.00    +0.000 A 
ATOM      3  C   UNL     1       6.302  -0.706  19.613  0.00  0.00    +0.000 A 
ATOM      4  C   UNL     1       6.060  -1.394  20.906  0.00  0.00    +0.000 A 
ATOM      5  C   UNL     1       7.042  -1.834  22.054  0.00  0.00    +0.000 A 
ATOM      6  C   UNL     1       8.212  -0.960  22.178  0.00  0.00    +0.000 A 
ATOM      7  C   UNL     1       8.367  -0.020  20.974  0.00  0.00    +0.000 A 
ENDROOT
BRANCH   5   8
ATOM      8  N   UNL     1       7.051  -3.237  22.043  0.00  0.00    +0.000 N 
ATOM      9  C   UNL     1       5.770  -3.921  21.729  0.00  0.00    +0.000 C 
ATOM     10  C   UNL     1       4.903  -3.766  23.003  0.00  0.00    +0.000 C 
ATOM     11  N   UNL     1       5.659  -4.440  24.089  0.00  0.00    +0.000 N 
ATOM     12  C   UNL     1       6.978  -3.885  24.391  0.00  0.00    +0.000 C 
ATOM     13  C   UNL     1       7.826  -3.859  23.131  0.00  0.00    +0.000 C 
ATOM     14  C   UNL     1       5.558  -5.816  24.069  0.00  0.00    +0.000 C 
ATOM     15  O   UNL     1       5.904  -6.378  23.036  0.00  0.00    +0.000 OA
ATOM     16  C   UNL     1       4.382  -6.357  24.864  0.00  0.00    +0.000 C 
ENDBRANCH   5   8
BRANCH   6  17
ATOM     17  C   UNL     1       8.377  -0.182  23.435  0.00  0.00    +0.000 A 
ATOM     18  C   UNL     1       9.455  -1.124  24.265  0.00  0.00    +0.000 A 
ATOM     19  N   UNL     1      10.491  -0.301  24.563  0.00  0.00    +0.000 NA
ATOM     20  C   UNL     1      10.913   0.939  24.448  0.00  0.00    +0.000 A 
ATOM     21  C   UNL     1      10.011   1.934  23.681  0.00  0.00    +0.000 A 
ATOM     22  C   UNL     1       8.682   1.227  23.444  0.00  0.00    +0.000 A 
ATOM     23  C   UNL     1       7.593   2.174  24.109  0.00  0.00    +0.000 C 
ATOM     24  O   UNL     1      10.497   2.812  22.859  0.00  0.00    +0.000 OA
ENDBRANCH   6  17
TORSDOF 2
ENDMDL
MODEL 4
REMARK VINA RESULT:      -7.1      3.166      4.896
REMARK  Name = 
REMARK  2 active torsions:
REMARK  status: ('A' for Active; 'I' for Inactive)
REMARK    1  A    between atoms: C_5  and  N_16
REMARK    2  A    between atoms: C_6  and  C_8
REMARK                            x       y       z     vdW  Elec       q    Type
REMARK                         _______ _______ _______ _____ _____    ______ ____
ROOT
ATOM      1  F   UNL     1       7.019  -6.143  20.901  0.00  0.00    +0.000 F 
ATOM      2  C   UNL     1       6.464  -5.018  21.417  0.00  0.00    +0.000 A 
ATOM      3  C   UNL     1       5.218  -5.746  22.206  0.00  0.00    +0.000 A 
ATOM      4  C   UNL     1       5.215  -5.287  23.618  0.00  0.00    +0.000 A 
ATOM      5  C   UNL     1       6.384  -4.844  24.574  0.00  0.00    +0.000 A 
ATOM      6  C   UNL     1       7.507  -4.227  23.862  0.00  0.00    +0.000 A 
ATOM      7  C   UNL     1       7.423  -4.439  22.344  0.00  0.00    +0.000 A 
ENDROOT
BRANCH   5   8
ATOM      8  N   UNL     1       6.472  -5.832  25.567  0.00  0.00    +0.000 N 
ATOM      9  C   UNL     1       5.205  -6.480  25.992  0.00  0.00    +0.000 C 
ATOM     10  C   UNL     1       4.481  -5.425  26.866  0.00  0.00    +0.000 C 
ATOM     11  N   UNL     1       5.394  -5.150  28.005  0.00  0.00    +0.000 N 
ATOM     12  C   UNL     1       6.705  -4.602  27.657  0.00  0.00    +0.000 C 
ATOM     13  C   UNL     1       7.401  -5.520  26.668  0.00  0.00    +0.000 C 
ATOM     14  C   UNL     1       5.371  -6.121  28.985  0.00  0.00    +0.000 C 
ATOM     15  O   UNL     1       5.629  -7.266  28.631  0.00  0.00    +0.000 OA
ATOM     16  C   UNL     1       4.325  -5.881  30.061  0.00  0.00    +0.000 C 
ENDBRANCH   5   8
BRANCH   6  17
ATOM     17  C   UNL     1       7.816  -2.799  24.144  0.00  0.00    +0.000 A 
ATOM     18  C   UNL     1       9.469  -2.824  24.196  0.00  0.00    +0.000 A 
ATOM     19  N   UNL     1       9.869  -1.902  23.286  0.00  0.00    +0.000 NA
ATOM     20  C   UNL     1       9.421  -1.013  22.426  0.00  0.00    +0.000 A 
ATOM     21  C   UNL     1       7.888  -0.886  22.260  0.00  0.00    +0.000 A 
ATOM     22  C   UNL     1       7.258  -1.716  23.372  0.00  0.00    +0.000 A 
ATOM     23  C   UNL     1       6.332  -0.696  24.166  0.00  0.00    +0.000 C 
ATOM     24  O   UNL     1       7.333  -0.727  21.099  0.00  0.00    +0.000 OA
ENDBRANCH   6  17
TORSDOF 2
ENDMDL
MODEL 5
REMARK VINA RESULT:      -6.9      2.697      5.561
REMARK  Name = 
REMARK  2 active torsions:
REMARK  status: ('A' for Active; 'I' for Inactive)
REMARK    1  A    between atoms: C_5  and  N_16
REMARK    2  A    between atoms: C_6  and  C_8
REMARK                            x       y       z     vdW  Elec       q    Type
REMARK                         _______ _______ _______ _____ _____    ______ ____
ROOT
ATOM      1  F   UNL     1       5.427  -6.064  21.347  0.00  0.00    +0.000 F 
ATOM      2  C   UNL     1       5.771  -5.856  22.643  0.00  0.00    +0.000 A 
ATOM      3  C   UNL     1       7.394  -5.735  22.407  0.00  0.00    +0.000 A 
ATOM      4  C   UNL     1       7.875  -4.481  23.040  0.00  0.00    +0.000 A 
ATOM      5  C   UNL     1       7.174  -3.091  23.268  0.00  0.00    +0.000 A 
ATOM      6  C   UNL     1       5.722  -3.200  23.443  0.00  0.00    +0.000 A 
ATOM      7  C   UNL     1       5.191  -4.587  23.054  0.00  0.00    +0.000 A 
ENDROOT
BRANCH   5   8
ATOM      8  N   UNL     1       7.844  -2.175  22.443  0.00  0.00    +0.000 N 
ATOM      9  C   UNL     1       9.313  -2.050  22.624  0.00  0.00    +0.000 C 
ATOM     10  C   UNL     1       9.496  -1.257  23.942  0.00  0.00    +0.000 C 
ATOM     11  N   UNL     1       8.834   0.054  23.718  0.00  0.00    +0.000 N 
ATOM     12  C   UNL     1       7.399   0.006  23.434  0.00  0.00    +0.000 C 
ATOM     13  C   UNL     1       7.141  -0.896  22.240  0.00  0.00    +0.000 C 
ATOM     14  C   UNL     1       9.582   0.937  22.968  0.00  0.00    +0.000 C 
ATOM     15  O   UNL     1       9.932   0.556  21.857  0.00  0.00    +0.000 OA
ATOM     16  C   UNL     1      10.514   1.807  23.795  0.00  0.00    +0.000 C 
ENDBRANCH   5   8
BRANCH   6  17
ATOM     17  C   UNL     1       5.142  -2.800  24.754  0.00  0.00    +0.000 A 
ATOM     18  C   UNL     1       3.737  -3.672  24.770  0.00  0.00    +0.000 A 
ATOM     19  N   UNL     1       3.780  -4.398  25.915  0.00  0.00    +0.000 NA
ATOM     20  C   UNL     1       4.509  -4.625  26.986  0.00  0.00    +0.000 A 
ATOM     21  C   UNL     1       5.862  -3.886  27.101  0.00  0.00    +0.000 A 
ATOM     22  C   UNL     1       5.891  -2.850  25.984  0.00  0.00    +0.000 A 
ATOM     23  C   UNL     1       6.116  -1.461  26.723  0.00  0.00    +0.000 C 
ATOM     24  O   UNL     1       6.930  -4.471  27.547  0.00  0.00    +0.000 OA
ENDBRANCH   6  17
TORSDOF 2
ENDMDL
MODEL 6
REMARK VINA RESULT:      -6.6      2.946      5.038
REMARK  Name = 
REMARK  2 active torsions:
REMARK  status: ('A' for Active; 'I' for Inactive)
REMARK    1  A    between atoms: C_5  and  N_16
REMARK    2  A    between atoms: C_6  and  C_8
REMARK                            x       y       z     vdW  Elec       q    Type
REMARK                         _______ _______ _______ _____ _____    ______ ____
ROOT
ATOM      1  F   UNL     1       5.306  -1.840  24.831  0.00  0.00    +0.000 F 
ATOM      2  C   UNL     1       6.501  -1.514  25.383  0.00  0.00    +0.000 A 
ATOM      3  C   UNL     1       7.406  -2.639  24.596  0.00  0.00    +0.000 A 
ATOM      4  C   UNL     1       8.560  -1.960  23.954  0.00  0.00    +0.000 A 
ATOM      5  C   UNL     1       8.722  -0.510  23.366  0.00  0.00    +0.000 A 
ATOM      6  C   UNL     1       7.888   0.484  24.048  0.00  0.00    +0.000 A 
ATOM      7  C   UNL     1       6.830  -0.164  24.953  0.00  0.00    +0.000 A 
ENDROOT
BRANCH   5   8
ATOM      8  N   UNL     1       8.863  -0.665  21.979  0.00  0.00    +0.000 N 
ATOM      9  C   UNL     1       8.946   0.575  21.164  0.00  0.00    +0.000 C 
ATOM     10  C   UNL     1       7.502   1.134  21.126  0.00  0.00    +0.000 C 
ATOM     11  N   UNL     1       6.678   0.080  20.481  0.00  0.00    +0.000 N 
ATOM     12  C   UNL     1       6.629  -1.207  21.175  0.00  0.00    +0.000 C 
ATOM     13  C   UNL     1       8.038  -1.732  21.388  0.00  0.00    +0.000 C 
ATOM     14  C   UNL     1       6.803   0.036  19.108  0.00  0.00    +0.000 C 
ATOM     15  O   UNL     1       7.934  -0.118  18.663  0.00  0.00    +0.000 OA
ATOM     16  C   UNL     1       5.819   0.932  18.375  0.00  0.00    +0.000 C 
ENDBRANCH   5   8
BRANCH   6  17
ATOM     17  C   UNL     1       8.568   1.580  24.791  0.00  0.00    +0.000 A 
ATOM     18  C   UNL     1      10.157   1.268  24.452  0.00  0.00    +0.000 A 
ATOM     19  N   UNL     1      10.638   2.416  23.913  0.00  0.00    +0.000 NA
ATOM     20  C   UNL     1      10.304   3.649  23.599  0.00  0.00    +0.000 A 
ATOM     21  C   UNL     1       8.840   4.079  23.849  0.00  0.00    +0.000 A 
ATOM     22  C   UNL     1       8.188   2.964  24.656  0.00  0.00    +0.000 A 
ATOM     23  C   UNL     1       7.654   3.674  25.974  0.00  0.00    +0.000 C 
ATOM     24  O   UNL     1       8.185   4.813  23.004  0.00  0.00    +0.000 OA
ENDBRANCH   6  17
TORSDOF 2
ENDMDL
MODEL 7
REMARK VINA RESULT:      -6.6      2.017      5.677
REMARK  Name = 
REMARK  2 active torsions:
REMARK  status: ('A' for Active; 'I' for Inactive)
REMARK    1  A    between atoms: C_5  and  N_16
REMARK    2  A    between atoms: C_6  and  C_8
REMARK                            x       y       z     vdW  Elec       q    Type
REMARK                         _______ _______ _______ _____ _____    ______ ____
ROOT
ATOM      1  F   UNL     1       5.109  -0.070  19.093  0.00  0.00    +0.000 F 
ATOM      2  C   UNL     1       6.126  -0.956  19.230  0.00  0.00    +0.000 A 
ATOM      3  C   UNL     1       7.342   0.144  19.361  0.00  0.00    +0.000 A 
ATOM      4  C   UNL     1       8.135  -0.163  20.579  0.00  0.00    +0.000 A 
ATOM      5  C   UNL     1       7.725  -0.805  21.955  0.00  0.00    +0.000 A 
ATOM      6  C   UNL     1       6.619  -1.760  21.839  0.00  0.00    +0.000 A 
ATOM      7  C   UNL     1       5.917  -1.676  20.476  0.00  0.00    +0.000 A 
ENDROOT
BRANCH   5   8
ATOM      8  N   UNL     1       7.847   0.213  22.913  0.00  0.00    +0.000 N 
ATOM      9  C   UNL     1       7.888   1.611  22.413  0.00  0.00    +0.000 C 
ATOM     10  C   UNL     1       9.301   1.784  21.802  0.00  0.00    +0.000 C 
ATOM     11  N   UNL     1      10.254   1.547  22.916  0.00  0.00    +0.000 N 
ATOM     12  C   UNL     1      10.204   0.219  23.529  0.00  0.00    +0.000 C 
ATOM     13  C   UNL     1       8.792  -0.076  24.005  0.00  0.00    +0.000 C 
ATOM     14  C   UNL     1      10.387   2.618  23.774  0.00  0.00    +0.000 C 
ATOM     15  O   UNL     1       9.361   3.028  24.307  0.00  0.00    +0.000 OA
ATOM     16  C   UNL     1      11.468   3.603  23.363  0.00  0.00    +0.000 C 
ENDBRANCH   5   8
BRANCH   6  17
ATOM     17  C   UNL     1       6.885  -3.186  22.170  0.00  0.00    +0.000 A 
ATOM     18  C   UNL     1       7.436  -3.065  23.725  0.00  0.00    +0.000 A 
ATOM     19  N   UNL     1       6.630  -3.878  24.453  0.00  0.00    +0.000 NA
ATOM     20  C   UNL     1       5.619  -4.713  24.357  0.00  0.00    +0.000 A 
ATOM     21  C   UNL     1       4.989  -4.916  22.958  0.00  0.00    +0.000 A 
ATOM     22  C   UNL     1       5.911  -4.228  21.960  0.00  0.00    +0.000 A 
ATOM     23  C   UNL     1       6.319  -5.368  20.930  0.00  0.00    +0.000 C 
ATOM     24  O   UNL     1       3.707  -5.006  22.788  0.00  0.00    +0.000 OA
ENDBRANCH   6  17
TORSDOF 2
ENDMDL
MODEL 8
REMARK VINA RESULT:      -6.6      1.801      5.267
REMARK  Name = 
REMARK  2 active torsions:
REMARK  status: ('A' for Active; 'I' for Inactive)
REMARK    1  A    between atoms: C_5  and  N_16
REMARK    2  A    between atoms: C_6  and  C_8
REMARK                            x       y       z     vdW  Elec       q    Type
REMARK                         _______ _______ _______ _____ _____    ______ ____
ROOT
ATOM      1  F   UNL     1       5.135  -0.386  19.261  0.00  0.00    +0.000 F 
ATOM      2  C   UNL     1       6.249  -1.111  19.531  0.00  0.00    +0.000 A 
ATOM      3  C   UNL     1       7.337   0.109  19.349  0.00  0.00    +0.000 A 
ATOM      4  C   UNL     1       8.198   0.165  20.557  0.00  0.00    +0.000 A 
ATOM      5  C   UNL     1       7.908  -0.191  22.062  0.00  0.00    +0.000 A 
ATOM      6  C   UNL     1       6.913  -1.255  22.221  0.00  0.00    +0.000 A 
ATOM      7  C   UNL     1       6.162  -1.551  20.915  0.00  0.00    +0.000 A 
ENDROOT
BRANCH   5   8
ATOM      8  N   UNL     1       7.946   1.023  22.765  0.00  0.00    +0.000 N 
ATOM      9  C   UNL     1       8.322   2.238  21.998  0.00  0.00    +0.000 C 
ATOM     10  C   UNL     1       9.851   2.123  21.777  0.00  0.00    +0.000 C 
ATOM     11  N   UNL     1      10.453   2.094  23.135  0.00  0.00    +0.000 N 
ATOM     12  C   UNL     1      10.051   0.977  23.989  0.00  0.00    +0.000 C 
ATOM     13  C   UNL     1       8.538   0.940  24.111  0.00  0.00    +0.000 C 
ATOM     14  C   UNL     1      10.535   3.333  23.736  0.00  0.00    +0.000 C 
ATOM     15  O   UNL     1       9.485   3.954  23.860  0.00  0.00    +0.000 OA
ATOM     16  C   UNL     1      11.822   4.080  23.430  0.00  0.00    +0.000 C 
ENDBRANCH   5   8
BRANCH   6  17
ATOM     17  C   UNL     1       7.348  -2.536  22.841  0.00  0.00    +0.000 A 
ATOM     18  C   UNL     1       8.994  -2.405  22.743  0.00  0.00    +0.000 A 
ATOM     19  N   UNL     1       9.440  -2.563  24.014  0.00  0.00    +0.000 NA
ATOM     20  C   UNL     1       9.041  -2.798  25.245  0.00  0.00    +0.000 A 
ATOM     21  C   UNL     1       7.520  -2.932  25.491  0.00  0.00    +0.000 A 
ATOM     22  C   UNL     1       6.858  -2.987  24.119  0.00  0.00    +0.000 A 
ATOM     23  C   UNL     1       6.047  -4.354  24.114  0.00  0.00    +0.000 C 
ATOM     24  O   UNL     1       6.943  -2.414  26.530  0.00  0.00    +0.000 OA
ENDBRANCH   6  17
TORSDOF 2
ENDMDL
MODEL 9
REMARK VINA RESULT:      -6.5      2.834      4.263
REMARK  Name = 
REMARK  2 active torsions:
REMARK  status: ('A' for Active; 'I' for Inactive)
REMARK    1  A    between atoms: C_5  and  N_16
REMARK    2  A    between atoms: C_6  and  C_8
REMARK                            x       y       z     vdW  Elec       q    Type
REMARK                         _______ _______ _______ _____ _____    ______ ____
ROOT
ATOM      1  F   UNL     1       4.094  -0.661  26.447  0.00  0.00    +0.000 F 
ATOM      2  C   UNL     1       5.106   0.240  26.400  0.00  0.00    +0.000 A 
ATOM      3  C   UNL     1       6.091  -0.502  27.489  0.00  0.00    +0.000 A 
ATOM      4  C   UNL     1       7.437  -0.663  26.883  0.00  0.00    +0.000 A 
ATOM      5  C   UNL     1       7.891  -0.870  25.391  0.00  0.00    +0.000 A 
ATOM      6  C   UNL     1       6.992  -0.236  24.421  0.00  0.00    +0.000 A 
ATOM      7  C   UNL     1       5.666   0.204  25.059  0.00  0.00    +0.000 A 
ENDROOT
BRANCH   5   8
ATOM      8  N   UNL     1       8.406  -2.173  25.316  0.00  0.00    +0.000 N 
ATOM      9  C   UNL     1       9.085  -2.562  24.053  0.00  0.00    +0.000 C 
ATOM     10  C   UNL     1       7.944  -2.772  23.026  0.00  0.00    +0.000 C 
ATOM     11  N   UNL     1       7.099  -3.861  23.579  0.00  0.00    +0.000 N 
ATOM     12  C   UNL     1       6.474  -3.590  24.875  0.00  0.00    +0.000 C 
ATOM     13  C   UNL     1       7.538  -3.216  25.892  0.00  0.00    +0.000 C 
ATOM     14  C   UNL     1       7.626  -5.123  23.400  0.00  0.00    +0.000 C 
ATOM     15  O   UNL     1       8.748  -5.321  23.854  0.00  0.00    +0.000 OA
ATOM     16  C   UNL     1       7.215  -5.779  22.093  0.00  0.00    +0.000 C 
ENDBRANCH   5   8
BRANCH   6  17
ATOM     17  C   UNL     1       7.529   0.871  23.586  0.00  0.00    +0.000 A 
ATOM     18  C   UNL     1       9.056   1.034  24.201  0.00  0.00    +0.000 A 
ATOM     19  N   UNL     1       9.886   0.898  23.136  0.00  0.00    +0.000 NA
ATOM     20  C   UNL     1       9.901   0.712  21.834  0.00  0.00    +0.000 A 
ATOM     21  C   UNL     1       8.540   0.528  21.122  0.00  0.00    +0.000 A 
ATOM     22  C   UNL     1       7.462   0.862  22.146  0.00  0.00    +0.000 A 
ATOM     23  C   UNL     1       6.614   2.028  21.478  0.00  0.00    +0.000 C 
ATOM     24  O   UNL     1       8.370  -0.345  20.179  0.00  0.00    +0.000 OA
ENDBRANCH   6  17
TORSDOF 2
ENDMDL
