MODEL 1
REMARK VINA RESULT:      -6.8      0.000      0.000
REMARK  Name = 
REMARK  5 active torsions:
REMARK  status: ('A' for Active; 'I' for Inactive)
REMARK    1  A    between atoms: C_2  and  S_3
REMARK    2  A    between atoms: C_2  and  C_7
REMARK    3  A    between atoms: C_11  and  C_22
REMARK    4  A    between atoms: C_12  and  N_13
REMARK    5  A    between atoms: N_16  and  C_19
REMARK                            x       y       z     vdW  Elec       q    Type
REMARK                         _______ _______ _______ _____ _____    ______ ____
ROOT
ATOM      1  C   UNL     1       7.584   1.432  22.188  0.00  0.00    +0.000 C 
ATOM      2  C   UNL     1       7.771   2.873  22.206  0.00  0.00    +0.000 C 
ATOM      3  C   UNL     1       8.895   3.368  23.146  0.00  0.00    +0.000 C 
ATOM      4  C   UNL     1       9.773   2.606  23.837  0.00  0.00    +0.000 C 
ATOM      5  C   UNL     1       9.402   1.130  23.950  0.00  0.00    +0.000 C 
ATOM      6  C   UNL     1       8.218   0.734  23.436  0.00  0.00    +0.000 C 
ATOM      7  F   UNL     1      11.118   2.564  23.489  0.00  0.00    +0.000 F 
ATOM      8 CL   UNL     1       8.210   4.811  23.984  0.00  0.00    +0.000 Cl
ENDROOT
BRANCH   6   9
ATOM      9  N   UNL     1       7.082   0.275  24.259  0.00  0.00    +0.000 N 
ATOM     10  C   UNL     1       7.513  -0.199  25.594  0.00  0.00    +0.000 C 
ATOM     11  C   UNL     1       7.946  -1.660  25.428  0.00  0.00    +0.000 C 
ATOM     12  N   UNL     1       8.380  -1.881  24.087  0.00  0.00    +0.000 NA
ATOM     13  C   UNL     1       7.252  -1.914  23.215  0.00  0.00    +0.000 C 
ATOM     14  C   UNL     1       6.313  -0.746  23.491  0.00  0.00    +0.000 C 
BRANCH  12  15
ATOM     15  C   UNL     1       9.076  -3.128  24.009  0.00  0.00    +0.000 C 
ATOM     16  O   UNL     1      10.434  -2.903  23.706  0.00  0.00    +0.000 OA
ATOM     17  C   UNL     1       9.031  -3.835  25.360  0.00  0.00    +0.000 C 
ENDBRANCH  12  15
ENDBRANCH   6   9
BRANCH   1  19
ATOM     18  O   UNL     1       8.716  -0.478  21.372  0.00  0.00    +0.000 OA
ATOM     19  C   UNL     1       8.092   0.720  20.970  0.00  0.00    +0.000 C 
BRANCH  19  20
ATOM     20  S   UNL     1       6.797   0.362  19.816  0.00  0.00    +0.000 S 
ATOM     21  O   UNL     1       5.817   1.413  19.919  0.00  0.00    +0.000 OA
ATOM     22  O   UNL     1       6.306  -0.964  20.119  0.00  0.00    +0.000 OA
ATOM     23  N   UNL     1       7.390   0.344  18.285  0.00  0.00    +0.000 NA
ENDBRANCH  19  20
ENDBRANCH   1  19
BRANCH   5  24
ATOM     24  C   UNL     1      10.488   0.447  23.987  0.00  0.00    +0.000 C 
ATOM     25  N   UNL     1      10.878   0.366  25.080  0.00  0.00    +0.000 NA
ENDBRANCH   5  24
TORSDOF 5
ENDMDL
MODEL 2
REMARK VINA RESULT:      -6.8      3.485      4.154
REMARK  Name = 
REMARK  5 active torsions:
REMARK  status: ('A' for Active; 'I' for Inactive)
REMARK    1  A    between atoms: C_2  and  S_3
REMARK    2  A    between atoms: C_2  and  C_7
REMARK    3  A    between atoms: C_11  and  C_22
REMARK    4  A    between atoms: C_12  and  N_13
REMARK    5  A    between atoms: N_16  and  C_19
REMARK                            x       y       z     vdW  Elec       q    Type
REMARK                         _______ _______ _______ _____ _____    ______ ____
ROOT
ATOM      1  C   UNL     1       6.502  -2.617  22.264  0.00  0.00    +0.000 C 
ATOM      2  C   UNL     1       6.462  -1.712  21.127  0.00  0.00    +0.000 C 
ATOM      3  C   UNL     1       7.569  -0.633  21.119  0.00  0.00    +0.000 C 
ATOM      4  C   UNL     1       8.611  -0.529  21.975  0.00  0.00    +0.000 C 
ATOM      5  C   UNL     1       8.487  -1.358  23.251  0.00  0.00    +0.000 C 
ATOM      6  C   UNL     1       7.340  -2.041  23.452  0.00  0.00    +0.000 C 
ATOM      7  F   UNL     1       9.912  -0.789  21.560  0.00  0.00    +0.000 F 
ATOM      8 CL   UNL     1       6.740   0.894  20.633  0.00  0.00    +0.000 Cl
ENDROOT
BRANCH   6   9
ATOM      9  N   UNL     1       6.364  -1.708  24.508  0.00  0.00    +0.000 N 
ATOM     10  C   UNL     1       6.987  -0.988  25.641  0.00  0.00    +0.000 C 
ATOM     11  C   UNL     1       7.584  -2.052  26.569  0.00  0.00    +0.000 C 
ATOM     12  N   UNL     1       7.901  -3.221  25.814  0.00  0.00    +0.000 NA
ATOM     13  C   UNL     1       6.703  -3.914  25.473  0.00  0.00    +0.000 C 
ATOM     14  C   UNL     1       5.656  -2.955  24.920  0.00  0.00    +0.000 C 
BRANCH  12  15
ATOM     15  C   UNL     1       8.740  -4.080  26.593  0.00  0.00    +0.000 C 
ATOM     16  O   UNL     1       7.951  -4.999  27.312  0.00  0.00    +0.000 OA
ATOM     17  C   UNL     1       9.648  -4.893  25.675  0.00  0.00    +0.000 C 
ENDBRANCH  12  15
ENDBRANCH   6   9
BRANCH   1  19
ATOM     18  O   UNL     1       7.946  -4.348  22.978  0.00  0.00    +0.000 OA
ATOM     19  C   UNL     1       7.010  -3.999  21.983  0.00  0.00    +0.000 C 
BRANCH  19  20
ATOM     20  S   UNL     1       5.706  -5.196  21.942  0.00  0.00    +0.000 S 
ATOM     21  O   UNL     1       5.721  -5.814  20.641  0.00  0.00    +0.000 OA
ATOM     22  O   UNL     1       4.479  -4.507  22.278  0.00  0.00    +0.000 OA
ATOM     23  N   UNL     1       5.962  -6.354  23.078  0.00  0.00    +0.000 NA
ENDBRANCH  19  20
ENDBRANCH   1  19
BRANCH   5  24
ATOM     24  C   UNL     1       9.665  -1.715  23.612  0.00  0.00    +0.000 C 
ATOM     25  N   UNL     1      10.117  -0.935  24.347  0.00  0.00    +0.000 NA
ENDBRANCH   5  24
TORSDOF 5
ENDMDL
MODEL 3
REMARK VINA RESULT:      -6.6      3.150      4.693
REMARK  Name = 
REMARK  5 active torsions:
REMARK  status: ('A' for Active; 'I' for Inactive)
REMARK    1  A    between atoms: C_2  and  S_3
REMARK    2  A    between atoms: C_2  and  C_7
REMARK    3  A    between atoms: C_11  and  C_22
REMARK    4  A    between atoms: C_12  and  N_13
REMARK    5  A    between atoms: N_16  and  C_19
REMARK                            x       y       z     vdW  Elec       q    Type
REMARK                         _______ _______ _______ _____ _____    ______ ____
ROOT
ATOM      1  C   UNL     1       6.860  -1.673  21.179  0.00  0.00    +0.000 C 
ATOM      2  C   UNL     1       5.950  -2.800  21.306  0.00  0.00    +0.000 C 
ATOM      3  C   UNL     1       5.559  -3.155  22.759  0.00  0.00    +0.000 C 
ATOM      4  C   UNL     1       5.874  -2.466  23.879  0.00  0.00    +0.000 C 
ATOM      5  C   UNL     1       6.988  -1.435  23.714  0.00  0.00    +0.000 C 
ATOM      6  C   UNL     1       7.607  -1.358  22.517  0.00  0.00    +0.000 C 
ATOM      7  F   UNL     1       4.906  -1.768  24.590  0.00  0.00    +0.000 F 
ATOM      8 CL   UNL     1       5.638  -4.956  22.843  0.00  0.00    +0.000 Cl
ENDROOT
BRANCH   6   9
ATOM      9  N   UNL     1       9.011  -1.754  22.295  0.00  0.00    +0.000 N 
ATOM     10  C   UNL     1       9.766  -1.877  23.563  0.00  0.00    +0.000 C 
ATOM     11  C   UNL     1      10.250  -0.470  23.929  0.00  0.00    +0.000 C 
ATOM     12  N   UNL     1       9.370   0.501  23.364  0.00  0.00    +0.000 NA
ATOM     13  C   UNL     1       9.583   0.585  21.957  0.00  0.00    +0.000 C 
ATOM     14  C   UNL     1       9.633  -0.803  21.328  0.00  0.00    +0.000 C 
BRANCH  12  15
ATOM     15  C   UNL     1       9.622   1.778  23.958  0.00  0.00    +0.000 C 
ATOM     16  O   UNL     1      11.010   2.013  24.023  0.00  0.00    +0.000 OA
ATOM     17  C   UNL     1       9.023   2.883  23.092  0.00  0.00    +0.000 C 
ENDBRANCH  12  15
ENDBRANCH   6   9
BRANCH   1  19
ATOM     18  O   UNL     1       6.872   0.686  21.356  0.00  0.00    +0.000 OA
ATOM     19  C   UNL     1       6.252  -0.392  20.692  0.00  0.00    +0.000 C 
BRANCH  19  20
ATOM     20  S   UNL     1       6.423  -0.193  18.941  0.00  0.00    +0.000 S 
ATOM     21  O   UNL     1       5.845  -1.353  18.311  0.00  0.00    +0.000 OA
ATOM     22  O   UNL     1       7.828   0.015  18.667  0.00  0.00    +0.000 OA
ATOM     23  N   UNL     1       5.608   1.141  18.438  0.00  0.00    +0.000 NA
ENDBRANCH  19  20
ENDBRANCH   1  19
BRANCH   5  24
ATOM     24  C   UNL     1       6.756  -0.465  24.521  0.00  0.00    +0.000 C 
ATOM     25  N   UNL     1       7.162  -0.715  25.582  0.00  0.00    +0.000 NA
ENDBRANCH   5  24
TORSDOF 5
ENDMDL
MODEL 4
REMARK VINA RESULT:      -6.5      1.745      1.929
REMARK  Name = 
REMARK  5 active torsions:
REMARK  status: ('A' for Active; 'I' for Inactive)
REMARK    1  A    between atoms: C_2  and  S_3
REMARK    2  A    between atoms: C_2  and  C_7
REMARK    3  A    between atoms: C_11  and  C_22
REMARK    4  A    between atoms: C_12  and  N_13
REMARK    5  A    between atoms: N_16  and  C_19
REMARK                            x       y       z     vdW  Elec       q    Type
REMARK                         _______ _______ _______ _____ _____    ______ ____
ROOT
ATOM      1  C   UNL     1       6.650   0.072  21.716  0.00  0.00    +0.000 C 
ATOM      2  C   UNL     1       6.797   1.459  21.308  0.00  0.00    +0.000 C 
ATOM      3  C   UNL     1       8.139   2.112  21.708  0.00  0.00    +0.000 C 
ATOM      4  C   UNL     1       9.206   1.502  22.273  0.00  0.00    +0.000 C 
ATOM      5  C   UNL     1       8.925   0.124  22.865  0.00  0.00    +0.000 C 
ATOM      6  C   UNL     1       7.651  -0.324  22.850  0.00  0.00    +0.000 C 
ATOM      7  F   UNL     1      10.381   1.302  21.560  0.00  0.00    +0.000 F 
ATOM      8 CL   UNL     1       7.705   3.754  22.315  0.00  0.00    +0.000 Cl
ENDROOT
BRANCH   6   9
ATOM      9  N   UNL     1       6.832  -0.500  24.065  0.00  0.00    +0.000 N 
ATOM     10  C   UNL     1       7.660  -0.646  25.283  0.00  0.00    +0.000 C 
ATOM     11  C   UNL     1       8.059  -2.123  25.374  0.00  0.00    +0.000 C 
ATOM     12  N   UNL     1       8.071  -2.697  24.067  0.00  0.00    +0.000 NA
ATOM     13  C   UNL     1       6.733  -2.887  23.613  0.00  0.00    +0.000 C 
ATOM     14  C   UNL     1       5.892  -1.638  23.851  0.00  0.00    +0.000 C 
BRANCH  12  15
ATOM     15  C   UNL     1       8.742  -3.959  24.104  0.00  0.00    +0.000 C 
ATOM     16  O   UNL     1      10.111  -3.769  24.376  0.00  0.00    +0.000 OA
ATOM     17  C   UNL     1       8.177  -4.817  25.232  0.00  0.00    +0.000 C 
ENDBRANCH  12  15
ENDBRANCH   6   9
BRANCH   1  19
ATOM     18  O   UNL     1       5.907  -2.020  20.899  0.00  0.00    +0.000 OA
ATOM     19  C   UNL     1       6.781  -0.949  20.625  0.00  0.00    +0.000 C 
BRANCH  19  20
ATOM     20  S   UNL     1       6.417  -0.273  19.029  0.00  0.00    +0.000 S 
ATOM     21  O   UNL     1       5.957  -1.352  18.192  0.00  0.00    +0.000 OA
ATOM     22  O   UNL     1       7.611   0.396  18.562  0.00  0.00    +0.000 OA
ATOM     23  N   UNL     1       5.223   0.848  19.145  0.00  0.00    +0.000 NA
ENDBRANCH  19  20
ENDBRANCH   1  19
BRANCH   5  24
ATOM     24  C   UNL     1       9.988  -0.585  22.748  0.00  0.00    +0.000 C 
ATOM     25  N   UNL     1       9.865  -1.359  21.888  0.00  0.00    +0.000 NA
ENDBRANCH   5  24
TORSDOF 5
ENDMDL
MODEL 5
REMARK VINA RESULT:      -6.3      3.895      5.623
REMARK  Name = 
REMARK  5 active torsions:
REMARK  status: ('A' for Active; 'I' for Inactive)
REMARK    1  A    between atoms: C_2  and  S_3
REMARK    2  A    between atoms: C_2  and  C_7
REMARK    3  A    between atoms: C_11  and  C_22
REMARK    4  A    between atoms: C_12  and  N_13
REMARK    5  A    between atoms: N_16  and  C_19
REMARK                            x       y       z     vdW  Elec       q    Type
REMARK                         _______ _______ _______ _____ _____    ______ ____
ROOT
ATOM      1  C   UNL     1       6.173  -1.628  23.394  0.00  0.00    +0.000 C 
ATOM      2  C   UNL     1       5.644  -2.947  23.087  0.00  0.00    +0.000 C 
ATOM      3  C   UNL     1       6.715  -4.036  22.854  0.00  0.00    +0.000 C 
ATOM      4  C   UNL     1       8.052  -3.914  23.024  0.00  0.00    +0.000 C 
ATOM      5  C   UNL     1       8.562  -2.480  23.136  0.00  0.00    +0.000 C 
ATOM      6  C   UNL     1       7.672  -1.477  22.975  0.00  0.00    +0.000 C 
ATOM      7  F   UNL     1       8.706  -4.561  24.066  0.00  0.00    +0.000 F 
ATOM      8 CL   UNL     1       6.144  -4.963  21.416  0.00  0.00    +0.000 Cl
ENDROOT
BRANCH   6   9
ATOM      9  N   UNL     1       7.676  -0.558  21.822  0.00  0.00    +0.000 N 
ATOM     10  C   UNL     1       9.024  -0.407  21.229  0.00  0.00    +0.000 C 
ATOM     11  C   UNL     1       9.752   0.664  22.048  0.00  0.00    +0.000 C 
ATOM     12  N   UNL     1       9.218   0.700  23.371  0.00  0.00    +0.000 NA
ATOM     13  C   UNL     1       7.931   1.313  23.354  0.00  0.00    +0.000 C 
ATOM     14  C   UNL     1       7.067   0.739  22.237  0.00  0.00    +0.000 C 
BRANCH  12  15
ATOM     15  C   UNL     1      10.090   1.453  24.219  0.00  0.00    +0.000 C 
ATOM     16  O   UNL     1      11.210   0.675  24.570  0.00  0.00    +0.000 OA
ATOM     17  C   UNL     1      10.612   2.678  23.473  0.00  0.00    +0.000 C 
ENDBRANCH  12  15
ENDBRANCH   6   9
BRANCH   1  19
ATOM     18  O   UNL     1       5.304  -0.006  24.881  0.00  0.00    +0.000 OA
ATOM     19  C   UNL     1       6.060  -1.195  24.825  0.00  0.00    +0.000 C 
BRANCH  19  20
ATOM     20  S   UNL     1       5.305  -2.432  25.842  0.00  0.00    +0.000 S 
ATOM     21  O   UNL     1       4.190  -2.978  25.110  0.00  0.00    +0.000 OA
ATOM     22  O   UNL     1       4.961  -1.805  27.099  0.00  0.00    +0.000 OA
ATOM     23  N   UNL     1       6.372  -3.640  26.155  0.00  0.00    +0.000 NA
ENDBRANCH  19  20
ENDBRANCH   1  19
BRANCH   5  24
ATOM     24  C   UNL     1       9.586  -2.480  23.909  0.00  0.00    +0.000 C 
ATOM     25  N   UNL     1      10.565  -2.560  23.285  0.00  0.00    +0.000 NA
ENDBRANCH   5  24
TORSDOF 5
ENDMDL
MODEL 6
REMARK VINA RESULT:      -6.2      3.348      4.478
REMARK  Name = 
REMARK  5 active torsions:
REMARK  status: ('A' for Active; 'I' for Inactive)
REMARK    1  A    between atoms: C_2  and  S_3
REMARK    2  A    between atoms: C_2  and  C_7
REMARK    3  A    between atoms: C_11  and  C_22
REMARK    4  A    between atoms: C_12  and  N_13
REMARK    5  A    between atoms: N_16  and  C_19
REMARK                            x       y       z     vdW  Elec       q    Type
REMARK                         _______ _______ _______ _____ _____    ______ ____
ROOT
ATOM      1  C   UNL     1       7.505   1.012  22.428  0.00  0.00    +0.000 C 
ATOM      2  C   UNL     1       7.045   1.307  21.081  0.00  0.00    +0.000 C 
ATOM      3  C   UNL     1       6.716   0.063  20.224  0.00  0.00    +0.000 C 
ATOM      4  C   UNL     1       6.696  -1.226  20.632  0.00  0.00    +0.000 C 
ATOM      5  C   UNL     1       7.383  -1.493  21.969  0.00  0.00    +0.000 C 
ATOM      6  C   UNL     1       8.008  -0.461  22.576  0.00  0.00    +0.000 C 
ATOM      7  F   UNL     1       5.501  -1.925  20.749  0.00  0.00    +0.000 F 
ATOM      8 CL   UNL     1       7.419   0.408  18.599  0.00  0.00    +0.000 Cl
ENDROOT
BRANCH   6   9
ATOM      9  N   UNL     1       9.472  -0.372  22.734  0.00  0.00    +0.000 N 
ATOM     10  C   UNL     1      10.139  -1.679  22.534  0.00  0.00    +0.000 C 
ATOM     11  C   UNL     1      10.069  -2.422  23.873  0.00  0.00    +0.000 C 
ATOM     12  N   UNL     1       8.940  -1.964  24.616  0.00  0.00    +0.000 NA
ATOM     13  C   UNL     1       9.199  -0.661  25.133  0.00  0.00    +0.000 C 
ATOM     14  C   UNL     1       9.777   0.249  24.055  0.00  0.00    +0.000 C 
BRANCH  12  15
ATOM     15  C   UNL     1       8.685  -2.861  25.700  0.00  0.00    +0.000 C 
ATOM     16  O   UNL     1       7.324  -2.804  26.062  0.00  0.00    +0.000 OA
ATOM     17  C   UNL     1       8.972  -4.296  25.267  0.00  0.00    +0.000 C 
ENDBRANCH  12  15
ENDBRANCH   6   9
BRANCH   1  19
ATOM     18  O   UNL     1       6.473   0.129  24.365  0.00  0.00    +0.000 OA
ATOM     19  C   UNL     1       6.516   1.262  23.527  0.00  0.00    +0.000 C 
BRANCH  19  20
ATOM     20  S   UNL     1       6.924   2.696  24.482  0.00  0.00    +0.000 S 
ATOM     21  O   UNL     1       5.754   3.536  24.531  0.00  0.00    +0.000 OA
ATOM     22  O   UNL     1       8.087   3.303  23.872  0.00  0.00    +0.000 OA
ATOM     23  N   UNL     1       7.326   2.263  26.014  0.00  0.00    +0.000 NA
ENDBRANCH  19  20
ENDBRANCH   1  19
BRANCH   5  24
ATOM     24  C   UNL     1       6.774  -2.465  22.544  0.00  0.00    +0.000 C 
ATOM     25  N   UNL     1       7.182  -3.483  22.157  0.00  0.00    +0.000 NA
ENDBRANCH   5  24
TORSDOF 5
ENDMDL
MODEL 7
REMARK VINA RESULT:      -6.1      5.165      7.238
REMARK  Name = 
REMARK  5 active torsions:
REMARK  status: ('A' for Active; 'I' for Inactive)
REMARK    1  A    between atoms: C_2  and  S_3
REMARK    2  A    between atoms: C_2  and  C_7
REMARK    3  A    between atoms: C_11  and  C_22
REMARK    4  A    between atoms: C_12  and  N_13
REMARK    5  A    between atoms: N_16  and  C_19
REMARK                            x       y       z     vdW  Elec       q    Type
REMARK                         _______ _______ _______ _____ _____    ______ ____
ROOT
ATOM      1  C   UNL     1       5.051  -3.524  25.176  0.00  0.00    +0.000 C 
ATOM      2  C   UNL     1       3.848  -4.336  25.093  0.00  0.00    +0.000 C 
ATOM      3  C   UNL     1       3.863  -5.402  23.973  0.00  0.00    +0.000 C 
ATOM      4  C   UNL     1       4.902  -5.724  23.169  0.00  0.00    +0.000 C 
ATOM      5  C   UNL     1       6.047  -4.714  23.153  0.00  0.00    +0.000 C 
ATOM      6  C   UNL     1       5.894  -3.574  23.860  0.00  0.00    +0.000 C 
ATOM      7  F   UNL     1       5.560  -6.941  23.297  0.00  0.00    +0.000 F 
ATOM      8 CL   UNL     1       2.226  -5.321  23.220  0.00  0.00    +0.000 Cl
ENDROOT
BRANCH   6   9
ATOM      9  N   UNL     1       5.753  -2.242  23.242  0.00  0.00    +0.000 N 
ATOM     10  C   UNL     1       6.505  -2.130  21.971  0.00  0.00    +0.000 C 
ATOM     11  C   UNL     1       7.949  -1.773  22.341  0.00  0.00    +0.000 C 
ATOM     12  N   UNL     1       8.241  -2.257  23.651  0.00  0.00    +0.000 NA
ATOM     13  C   UNL     1       7.588  -1.442  24.621  0.00  0.00    +0.000 C 
ATOM     14  C   UNL     1       6.131  -1.203  24.243  0.00  0.00    +0.000 C 
BRANCH  12  15
ATOM     15  C   UNL     1       9.654  -2.216  23.873  0.00  0.00    +0.000 C 
ATOM     16  O   UNL     1      10.150  -3.521  24.061  0.00  0.00    +0.000 OA
ATOM     17  C   UNL     1      10.357  -1.644  22.645  0.00  0.00    +0.000 C 
ENDBRANCH  12  15
ENDBRANCH   6   9
BRANCH   1  19
ATOM     18  O   UNL     1       5.985  -2.745  27.205  0.00  0.00    +0.000 OA
ATOM     19  C   UNL     1       5.975  -3.838  26.314  0.00  0.00    +0.000 C 
BRANCH  19  20
ATOM     20  S   UNL     1       5.498  -5.308  27.178  0.00  0.00    +0.000 S 
ATOM     21  O   UNL     1       5.877  -6.435  26.364  0.00  0.00    +0.000 OA
ATOM     22  O   UNL     1       4.083  -5.204  27.456  0.00  0.00    +0.000 OA
ATOM     23  N   UNL     1       6.289  -5.406  28.613  0.00  0.00    +0.000 NA
ENDBRANCH  19  20
ENDBRANCH   1  19
BRANCH   5  24
ATOM     24  C   UNL     1       7.142  -5.355  22.959  0.00  0.00    +0.000 C 
ATOM     25  N   UNL     1       7.389  -5.398  21.823  0.00  0.00    +0.000 NA
ENDBRANCH   5  24
TORSDOF 5
ENDMDL
MODEL 8
REMARK VINA RESULT:      -6.0      3.033      4.688
REMARK  Name = 
REMARK  5 active torsions:
REMARK  status: ('A' for Active; 'I' for Inactive)
REMARK    1  A    between atoms: C_2  and  S_3
REMARK    2  A    between atoms: C_2  and  C_7
REMARK    3  A    between atoms: C_11  and  C_22
REMARK    4  A    between atoms: C_12  and  N_13
REMARK    5  A    between atoms: N_16  and  C_19
REMARK                            x       y       z     vdW  Elec       q    Type
REMARK                         _______ _______ _______ _____ _____    ______ ____
ROOT
ATOM      1  C   UNL     1       7.862  -1.302  22.168  0.00  0.00    +0.000 C 
ATOM      2  C   UNL     1       7.525  -2.705  22.344  0.00  0.00    +0.000 C 
ATOM      3  C   UNL     1       7.451  -3.173  23.816  0.00  0.00    +0.000 C 
ATOM      4  C   UNL     1       7.546  -2.401  24.922  0.00  0.00    +0.000 C 
ATOM      5  C   UNL     1       8.104  -0.999  24.688  0.00  0.00    +0.000 C 
ATOM      6  C   UNL     1       8.524  -0.685  23.443  0.00  0.00    +0.000 C 
ATOM      7  F   UNL     1       6.442  -2.166  25.732  0.00  0.00    +0.000 F 
ATOM      8 CL   UNL     1       8.286  -4.772  23.847  0.00  0.00    +0.000 Cl
ENDROOT
BRANCH   6   9
ATOM      9  N   UNL     1       9.938  -0.457  23.091  0.00  0.00    +0.000 N 
ATOM     10  C   UNL     1      10.734   0.019  24.245  0.00  0.00    +0.000 C 
ATOM     11  C   UNL     1      10.539   1.537  24.324  0.00  0.00    +0.000 C 
ATOM     12  N   UNL     1       9.281   1.888  23.748  0.00  0.00    +0.000 NA
ATOM     13  C   UNL     1       9.354   1.777  22.328  0.00  0.00    +0.000 C 
ATOM     14  C   UNL     1      10.000   0.460  21.915  0.00  0.00    +0.000 C 
BRANCH  12  15
ATOM     15  C   UNL     1       8.952   3.235  24.101  0.00  0.00    +0.000 C 
ATOM     16  O   UNL     1       8.226   3.842  23.058  0.00  0.00    +0.000 OA
ATOM     17  C   UNL     1       8.054   3.245  25.335  0.00  0.00    +0.000 C 
ENDBRANCH  12  15
ENDBRANCH   6   9
BRANCH   1  19
ATOM     18  O   UNL     1       6.816   0.791  22.515  0.00  0.00    +0.000 OA
ATOM     19  C   UNL     1       6.731  -0.402  21.768  0.00  0.00    +0.000 C 
BRANCH  19  20
ATOM     20  S   UNL     1       6.754  -0.027  20.037  0.00  0.00    +0.000 S 
ATOM     21  O   UNL     1       8.110  -0.183  19.575  0.00  0.00    +0.000 OA
ATOM     22  O   UNL     1       6.204   1.301  19.878  0.00  0.00    +0.000 OA
ATOM     23  N   UNL     1       5.793  -1.074  19.216  0.00  0.00    +0.000 NA
ENDBRANCH  19  20
ENDBRANCH   1  19
BRANCH   5  24
ATOM     24  C   UNL     1       7.559  -0.206  25.536  0.00  0.00    +0.000 C 
ATOM     25  N   UNL     1       8.195  -0.154  26.509  0.00  0.00    +0.000 NA
ENDBRANCH   5  24
TORSDOF 5
ENDMDL
MODEL 9
REMARK VINA RESULT:      -6.0      3.803      5.891
REMARK  Name = 
REMARK  5 active torsions:
REMARK  status: ('A' for Active; 'I' for Inactive)
REMARK    1  A    between atoms: C_2  and  S_3
REMARK    2  A    between atoms: C_2  and  C_7
REMARK    3  A    between atoms: C_11  and  C_22
REMARK    4  A    between atoms: C_12  and  N_13
REMARK    5  A    between atoms: N_16  and  C_19
REMARK                            x       y       z     vdW  Elec       q    Type
REMARK                         _______ _______ _______ _____ _____    ______ ____
ROOT
ATOM      1  C   UNL     1       6.982  -2.545  25.259  0.00  0.00    +0.000 C 
ATOM      2  C   UNL     1       5.979  -3.589  25.125  0.00  0.00    +0.000 C 
ATOM      3  C   UNL     1       5.329  -3.686  23.726  0.00  0.00    +0.000 C 
ATOM      4  C   UNL     1       5.679  -2.998  22.615  0.00  0.00    +0.000 C 
ATOM      5  C   UNL     1       6.575  -1.786  22.860  0.00  0.00    +0.000 C 
ATOM      6  C   UNL     1       6.866  -1.461  24.138  0.00  0.00    +0.000 C 
ATOM      7  F   UNL     1       6.295  -3.630  21.542  0.00  0.00    +0.000 F 
ATOM      8 CL   UNL     1       3.567  -3.917  24.037  0.00  0.00    +0.000 Cl
ENDROOT
BRANCH   6   9
ATOM      9  N   UNL     1       6.367  -0.244  24.806  0.00  0.00    +0.000 N 
ATOM     10  C   UNL     1       6.146   0.868  23.854  0.00  0.00    +0.000 C 
ATOM     11  C   UNL     1       7.499   1.563  23.662  0.00  0.00    +0.000 C 
ATOM     12  N   UNL     1       8.553   0.632  23.906  0.00  0.00    +0.000 NA
ATOM     13  C   UNL     1       8.662   0.384  25.305  0.00  0.00    +0.000 C 
ATOM     14  C   UNL     1       7.295   0.109  25.919  0.00  0.00    +0.000 C 
BRANCH  12  15
ATOM     15  C   UNL     1       9.788   1.171  23.423  0.00  0.00    +0.000 C 
ATOM     16  O   UNL     1      10.848   0.296  23.732  0.00  0.00    +0.000 OA
ATOM     17  C   UNL     1       9.742   1.298  21.903  0.00  0.00    +0.000 C 
ENDBRANCH  12  15
ENDBRANCH   6   9
BRANCH   1  19
ATOM     18  O   UNL     1       8.943  -2.741  26.568  0.00  0.00    +0.000 OA
ATOM     19  C   UNL     1       8.408  -3.007  25.291  0.00  0.00    +0.000 C 
BRANCH  19  20
ATOM     20  S   UNL     1       8.560  -4.734  24.928  0.00  0.00    +0.000 S 
ATOM     21  O   UNL     1       8.323  -4.906  23.517  0.00  0.00    +0.000 OA
ATOM     22  O   UNL     1       7.639  -5.438  25.793  0.00  0.00    +0.000 OA
ATOM     23  N   UNL     1      10.078  -5.256  25.274  0.00  0.00    +0.000 NA
ENDBRANCH  19  20
ENDBRANCH   1  19
BRANCH   5  24
ATOM     24  C   UNL     1       7.339  -1.642  21.839  0.00  0.00    +0.000 C 
ATOM     25  N   UNL     1       6.875  -0.884  21.089  0.00  0.00    +0.000 NA
ENDBRANCH   5  24
TORSDOF 5
ENDMDL
