MODEL 1
REMARK VINA RESULT:      -8.3      0.000      0.000
REMARK  Name = 
REMARK  8 active torsions:
REMARK  status: ('A' for Active; 'I' for Inactive)
REMARK    1  A    between atoms: C_2  and  C_3
REMARK    2  A    between atoms: C_7  and  S_19
REMARK    3  A    between atoms: C_9  and  C_10
REMARK    4  A    between atoms: C_15  and  C_16
REMARK    5  A    between atoms: S_19  and  C_20
REMARK    6  A    between atoms: C_20  and  C_21
REMARK    7  A    between atoms: N_23  and  C_24
REMARK    8  A    between atoms: C_28  and  C_30
REMARK                            x       y       z     vdW  Elec       q    Type
REMARK                         _______ _______ _______ _____ _____    ______ ____
ROOT
ATOM      1  C   UNL     1       5.844  -5.229  26.418  0.00  0.00    +0.000 A 
ATOM      2  C   UNL     1       6.013  -3.723  27.190  0.00  0.00    +0.000 A 
ATOM      3  O   UNL     1       4.934  -2.980  26.956  0.00  0.00    +0.000 OA
ATOM      4  N   UNL     1       7.063  -3.158  26.535  0.00  0.00    +0.000 NA
ATOM      5  C   UNL     1       7.927  -3.396  25.624  0.00  0.00    +0.000 A 
ATOM      6  N   UNL     1       7.943  -4.570  25.038  0.00  0.00    +0.000 NA
ATOM      7  C   UNL     1       6.791  -5.368  25.283  0.00  0.00    +0.000 A 
ENDROOT
BRANCH   7   8
ATOM      8  C   UNL     1       5.957  -5.511  24.028  0.00  0.00    +0.000 A 
ATOM      9  C   UNL     1       7.005  -5.800  22.777  0.00  0.00    +0.000 A 
ATOM     10  C   UNL     1       7.131  -4.480  22.036  0.00  0.00    +0.000 A 
ATOM     11  C   UNL     1       6.260  -3.324  21.759  0.00  0.00    +0.000 A 
ATOM     12  C   UNL     1       5.218  -3.082  22.909  0.00  0.00    +0.000 A 
ATOM     13  C   UNL     1       5.061  -4.382  23.691  0.00  0.00    +0.000 A 
BRANCH  13  14
ATOM     14  C   UNL     1       3.643  -4.735  23.563  0.00  0.00    +0.000 C 
ATOM     15  O   UNL     1       3.234  -5.556  22.820  0.00  0.00    +0.000 OA
ATOM     16  O   UNL     1       2.980  -4.242  24.614  0.00  0.00    +0.000 OA
ENDBRANCH  13  14
ENDBRANCH   7   8
BRANCH   1  18
ATOM     17  N   UNL     1       5.532  -6.907  27.476  0.00  0.00    +0.000 NA
ATOM     18  C   UNL     1       6.145  -5.925  27.484  0.00  0.00    +0.000 C 
ENDBRANCH   1  18
BRANCH   5  19
ATOM     19  S   UNL     1       8.026  -2.046  24.525  0.00  0.00    +0.000 S 
BRANCH  19  20
ATOM     20  C   UNL     1       9.693  -2.439  23.945  0.00  0.00    +0.000 C 
BRANCH  20  21
ATOM     21  C   UNL     1       9.898  -1.686  22.611  0.00  0.00    +0.000 C 
ATOM     22  O   UNL     1      11.027  -1.671  22.145  0.00  0.00    +0.000 OA
ATOM     23  N   UNL     1       8.858  -1.261  22.007  0.00  0.00    +0.000 NA
BRANCH  23  24
ATOM     24  C   UNL     1       8.837  -0.217  21.258  0.00  0.00    +0.000 A 
ATOM     25  C   UNL     1       8.502   1.045  22.311  0.00  0.00    +0.000 A 
ATOM     26  C   UNL     1       7.436   1.890  21.703  0.00  0.00    +0.000 A 
ATOM     27  C   UNL     1       6.470   1.763  20.560  0.00  0.00    +0.000 A 
ATOM     28  C   UNL     1       6.853   0.560  19.620  0.00  0.00    +0.000 A 
ATOM     29  C   UNL     1       7.933  -0.207  20.134  0.00  0.00    +0.000 A 
BRANCH  28  30
ATOM     30  C   UNL     1       5.681  -0.016  18.955  0.00  0.00    +0.000 C 
ATOM     31  F   UNL     1       5.939  -0.075  17.580  0.00  0.00    +0.000 F 
ATOM     32  F   UNL     1       5.383  -1.247  19.421  0.00  0.00    +0.000 F 
ATOM     33  F   UNL     1       4.593   0.838  19.119  0.00  0.00    +0.000 F 
ENDBRANCH  28  30
ENDBRANCH  23  24
ENDBRANCH  20  21
ENDBRANCH  19  20
ENDBRANCH   5  19
TORSDOF 8
ENDMDL
MODEL 2
REMARK VINA RESULT:      -8.0      2.560      4.154
REMARK  Name = 
REMARK  8 active torsions:
REMARK  status: ('A' for Active; 'I' for Inactive)
REMARK    1  A    between atoms: C_2  and  C_3
REMARK    2  A    between atoms: C_7  and  S_19
REMARK    3  A    between atoms: C_9  and  C_10
REMARK    4  A    between atoms: C_15  and  C_16
REMARK    5  A    between atoms: S_19  and  C_20
REMARK    6  A    between atoms: C_20  and  C_21
REMARK    7  A    between atoms: N_23  and  C_24
REMARK    8  A    between atoms: C_28  and  C_30
REMARK                            x       y       z     vdW  Elec       q    Type
REMARK                         _______ _______ _______ _____ _____    ______ ____
ROOT
ATOM      1  C   UNL     1       5.853  -5.605  23.422  0.00  0.00    +0.000 A 
ATOM      2  C   UNL     1       7.295  -5.044  22.716  0.00  0.00    +0.000 A 
ATOM      3  O   UNL     1       8.230  -5.987  22.805  0.00  0.00    +0.000 OA
ATOM      4  N   UNL     1       7.656  -4.016  23.531  0.00  0.00    +0.000 NA
ATOM      5  C   UNL     1       7.265  -3.358  24.555  0.00  0.00    +0.000 A 
ATOM      6  N   UNL     1       6.113  -3.649  25.110  0.00  0.00    +0.000 NA
ATOM      7  C   UNL     1       5.545  -4.882  24.682  0.00  0.00    +0.000 A 
ENDROOT
BRANCH   7   8
ATOM      8  C   UNL     1       5.570  -5.905  25.796  0.00  0.00    +0.000 A 
ATOM      9  C   UNL     1       4.449  -7.066  25.416  0.00  0.00    +0.000 A 
ATOM     10  C   UNL     1       3.241  -6.768  26.287  0.00  0.00    +0.000 A 
ATOM     11  C   UNL     1       3.004  -6.202  27.627  0.00  0.00    +0.000 A 
ATOM     12  C   UNL     1       4.099  -5.149  28.024  0.00  0.00    +0.000 A 
ATOM     13  C   UNL     1       5.337  -5.401  27.168  0.00  0.00    +0.000 A 
BRANCH  13  14
ATOM     14  C   UNL     1       6.409  -5.695  28.125  0.00  0.00    +0.000 C 
ATOM     15  O   UNL     1       7.516  -5.956  27.813  0.00  0.00    +0.000 OA
ATOM     16  O   UNL     1       6.020  -5.299  29.341  0.00  0.00    +0.000 OA
ENDBRANCH  13  14
ENDBRANCH   7   8
BRANCH   1  18
ATOM     17  N   UNL     1       4.032  -5.068  22.769  0.00  0.00    +0.000 NA
ATOM     18  C   UNL     1       5.105  -5.286  22.397  0.00  0.00    +0.000 C 
ENDBRANCH   1  18
BRANCH   5  19
ATOM     19  S   UNL     1       8.579  -3.172  25.685  0.00  0.00    +0.000 S 
BRANCH  19  20
ATOM     20  C   UNL     1       8.062  -1.537  26.258  0.00  0.00    +0.000 C 
BRANCH  20  21
ATOM     21  C   UNL     1       8.589  -0.509  25.233  0.00  0.00    +0.000 C 
ATOM     22  O   UNL     1       7.770   0.235  24.713  0.00  0.00    +0.000 OA
ATOM     23  N   UNL     1       9.854  -0.396  25.106  0.00  0.00    +0.000 NA
BRANCH  23  24
ATOM     24  C   UNL     1      10.440  -0.053  24.015  0.00  0.00    +0.000 A 
ATOM     25  C   UNL     1      10.628   1.608  24.147  0.00  0.00    +0.000 A 
ATOM     26  C   UNL     1      10.197   2.230  22.864  0.00  0.00    +0.000 A 
ATOM     27  C   UNL     1       9.448   1.785  21.639  0.00  0.00    +0.000 A 
ATOM     28  C   UNL     1       9.316   0.217  21.589  0.00  0.00    +0.000 A 
ATOM     29  C   UNL     1       9.810  -0.406  22.767  0.00  0.00    +0.000 A 
BRANCH  28  30
ATOM     30  C   UNL     1       8.110  -0.212  20.877  0.00  0.00    +0.000 C 
ATOM     31  F   UNL     1       7.790  -1.509  21.295  0.00  0.00    +0.000 F 
ATOM     32  F   UNL     1       7.065   0.614  21.099  0.00  0.00    +0.000 F 
ATOM     33  F   UNL     1       8.382  -0.289  19.514  0.00  0.00    +0.000 F 
ENDBRANCH  28  30
ENDBRANCH  23  24
ENDBRANCH  20  21
ENDBRANCH  19  20
ENDBRANCH   5  19
TORSDOF 8
ENDMDL
MODEL 3
REMARK VINA RESULT:      -7.6      3.405      4.931
REMARK  Name = 
REMARK  8 active torsions:
REMARK  status: ('A' for Active; 'I' for Inactive)
REMARK    1  A    between atoms: C_2  and  C_3
REMARK    2  A    between atoms: C_7  and  S_19
REMARK    3  A    between atoms: C_9  and  C_10
REMARK    4  A    between atoms: C_15  and  C_16
REMARK    5  A    between atoms: S_19  and  C_20
REMARK    6  A    between atoms: C_20  and  C_21
REMARK    7  A    between atoms: N_23  and  C_24
REMARK    8  A    between atoms: C_28  and  C_30
REMARK                            x       y       z     vdW  Elec       q    Type
REMARK                         _______ _______ _______ _____ _____    ______ ____
ROOT
ATOM      1  C   UNL     1       5.477  -5.520  23.586  0.00  0.00    +0.000 A 
ATOM      2  C   UNL     1       5.938  -5.615  21.952  0.00  0.00    +0.000 A 
ATOM      3  O   UNL     1       7.166  -6.121  21.866  0.00  0.00    +0.000 OA
ATOM      4  N   UNL     1       5.994  -4.310  21.572  0.00  0.00    +0.000 NA
ATOM      5  C   UNL     1       5.784  -3.125  22.005  0.00  0.00    +0.000 A 
ATOM      6  N   UNL     1       5.327  -2.953  23.223  0.00  0.00    +0.000 NA
ATOM      7  C   UNL     1       5.391  -4.111  24.047  0.00  0.00    +0.000 A 
ENDROOT
BRANCH   7   8
ATOM      8  C   UNL     1       6.423  -3.941  25.140  0.00  0.00    +0.000 A 
ATOM      9  C   UNL     1       6.220  -2.421  25.769  0.00  0.00    +0.000 A 
ATOM     10  C   UNL     1       7.332  -1.578  25.169  0.00  0.00    +0.000 A 
ATOM     11  C   UNL     1       8.719  -1.800  24.724  0.00  0.00    +0.000 A 
ATOM     12  C   UNL     1       8.939  -3.259  24.187  0.00  0.00    +0.000 A 
ATOM     13  C   UNL     1       7.838  -4.148  24.757  0.00  0.00    +0.000 A 
BRANCH  13  14
ATOM     14  C   UNL     1       8.542  -5.179  25.528  0.00  0.00    +0.000 C 
ATOM     15  O   UNL     1       8.028  -5.851  26.351  0.00  0.00    +0.000 OA
ATOM     16  O   UNL     1       9.707  -5.444  24.928  0.00  0.00    +0.000 OA
ENDBRANCH  13  14
ENDBRANCH   7   8
BRANCH   1  18
ATOM     17  N   UNL     1       3.984  -6.585  24.405  0.00  0.00    +0.000 NA
ATOM     18  C   UNL     1       4.327  -6.119  23.403  0.00  0.00    +0.000 C 
ENDBRANCH   1  18
BRANCH   5  19
ATOM     19  S   UNL     1       7.122  -2.089  21.587  0.00  0.00    +0.000 S 
BRANCH  19  20
ATOM     20  C   UNL     1       6.196  -1.119  20.374  0.00  0.00    +0.000 C 
BRANCH  20  21
ATOM     21  C   UNL     1       6.920   0.238  20.229  0.00  0.00    +0.000 C 
ATOM     22  O   UNL     1       7.113   0.651  19.095  0.00  0.00    +0.000 OA
ATOM     23  N   UNL     1       7.135   0.909  21.292  0.00  0.00    +0.000 NA
BRANCH  23  24
ATOM     24  C   UNL     1       8.130   1.707  21.451  0.00  0.00    +0.000 A 
ATOM     25  C   UNL     1       9.452   0.692  21.638  0.00  0.00    +0.000 A 
ATOM     26  C   UNL     1      10.248   1.172  22.802  0.00  0.00    +0.000 A 
ATOM     27  C   UNL     1      10.042   2.137  23.935  0.00  0.00    +0.000 A 
ATOM     28  C   UNL     1       8.786   3.052  23.683  0.00  0.00    +0.000 A 
ATOM     29  C   UNL     1       8.062   2.671  22.522  0.00  0.00    +0.000 A 
BRANCH  28  30
ATOM     30  C   UNL     1       8.159   3.486  24.935  0.00  0.00    +0.000 C 
ATOM     31  F   UNL     1       8.110   2.391  25.806  0.00  0.00    +0.000 F 
ATOM     32  F   UNL     1       8.829   4.505  25.515  0.00  0.00    +0.000 F 
ATOM     33  F   UNL     1       6.840   3.856  24.687  0.00  0.00    +0.000 F 
ENDBRANCH  28  30
ENDBRANCH  23  24
ENDBRANCH  20  21
ENDBRANCH  19  20
ENDBRANCH   5  19
TORSDOF 8
ENDMDL
MODEL 4
REMARK VINA RESULT:      -7.5      2.021      2.867
REMARK  Name = 
REMARK  8 active torsions:
REMARK  status: ('A' for Active; 'I' for Inactive)
REMARK    1  A    between atoms: C_2  and  C_3
REMARK    2  A    between atoms: C_7  and  S_19
REMARK    3  A    between atoms: C_9  and  C_10
REMARK    4  A    between atoms: C_15  and  C_16
REMARK    5  A    between atoms: S_19  and  C_20
REMARK    6  A    between atoms: C_20  and  C_21
REMARK    7  A    between atoms: N_23  and  C_24
REMARK    8  A    between atoms: C_28  and  C_30
REMARK                            x       y       z     vdW  Elec       q    Type
REMARK                         _______ _______ _______ _____ _____    ______ ____
ROOT
ATOM      1  C   UNL     1       4.635  -5.303  26.796  0.00  0.00    +0.000 A 
ATOM      2  C   UNL     1       5.359  -4.477  28.095  0.00  0.00    +0.000 A 
ATOM      3  O   UNL     1       4.923  -3.220  28.121  0.00  0.00    +0.000 OA
ATOM      4  N   UNL     1       6.675  -4.459  27.752  0.00  0.00    +0.000 NA
ATOM      5  C   UNL     1       7.488  -4.871  26.856  0.00  0.00    +0.000 A 
ATOM      6  N   UNL     1       7.040  -5.605  25.865  0.00  0.00    +0.000 NA
ATOM      7  C   UNL     1       5.623  -5.622  25.735  0.00  0.00    +0.000 A 
ENDROOT
BRANCH   7   8
ATOM      8  C   UNL     1       5.186  -4.883  24.489  0.00  0.00    +0.000 A 
ATOM      9  C   UNL     1       4.007  -3.812  24.946  0.00  0.00    +0.000 A 
ATOM     10  C   UNL     1       2.692  -4.445  24.522  0.00  0.00    +0.000 A 
ATOM     11  C   UNL     1       2.234  -5.325  23.433  0.00  0.00    +0.000 A 
ATOM     12  C   UNL     1       3.365  -6.300  22.947  0.00  0.00    +0.000 A 
ATOM     13  C   UNL     1       4.711  -5.710  23.357  0.00  0.00    +0.000 A 
BRANCH  13  14
ATOM     14  C   UNL     1       5.440  -5.514  22.099  0.00  0.00    +0.000 C 
ATOM     15  O   UNL     1       5.400  -4.520  21.465  0.00  0.00    +0.000 OA
ATOM     16  O   UNL     1       6.369  -6.468  21.986  0.00  0.00    +0.000 OA
ENDBRANCH  13  14
ENDBRANCH   7   8
BRANCH   1  18
ATOM     17  N   UNL     1       3.216  -6.680  27.146  0.00  0.00    +0.000 NA
ATOM     18  C   UNL     1       4.249  -6.320  27.524  0.00  0.00    +0.000 C 
ENDBRANCH   1  18
BRANCH   5  19
ATOM     19  S   UNL     1       8.547  -3.576  26.368  0.00  0.00    +0.000 S 
BRANCH  19  20
ATOM     20  C   UNL     1       8.924  -4.285  24.747  0.00  0.00    +0.000 C 
BRANCH  20  21
ATOM     21  C   UNL     1       8.997  -3.111  23.745  0.00  0.00    +0.000 C 
ATOM     22  O   UNL     1       8.249  -3.152  22.779  0.00  0.00    +0.000 OA
ATOM     23  N   UNL     1       9.716  -2.107  24.063  0.00  0.00    +0.000 NA
BRANCH  23  24
ATOM     24  C   UNL     1      10.317  -1.353  23.213  0.00  0.00    +0.000 A 
ATOM     25  C   UNL     1      10.619   0.066  24.054  0.00  0.00    +0.000 A 
ATOM     26  C   UNL     1      10.222   1.213  23.191  0.00  0.00    +0.000 A 
ATOM     27  C   UNL     1       9.436   1.398  21.923  0.00  0.00    +0.000 A 
ATOM     28  C   UNL     1       9.198   0.023  21.195  0.00  0.00    +0.000 A 
ATOM     29  C   UNL     1       9.656  -1.083  21.960  0.00  0.00    +0.000 A 
BRANCH  28  30
ATOM     30  C   UNL     1       7.959   0.022  20.411  0.00  0.00    +0.000 C 
ATOM     31  F   UNL     1       7.303   1.239  20.623  0.00  0.00    +0.000 F 
ATOM     32  F   UNL     1       8.191  -0.153  19.092  0.00  0.00    +0.000 F 
ATOM     33  F   UNL     1       7.113  -0.976  20.888  0.00  0.00    +0.000 F 
ENDBRANCH  28  30
ENDBRANCH  23  24
ENDBRANCH  20  21
ENDBRANCH  19  20
ENDBRANCH   5  19
TORSDOF 8
ENDMDL
MODEL 5
REMARK VINA RESULT:      -7.4      1.871      2.488
REMARK  Name = 
REMARK  8 active torsions:
REMARK  status: ('A' for Active; 'I' for Inactive)
REMARK    1  A    between atoms: C_2  and  C_3
REMARK    2  A    between atoms: C_7  and  S_19
REMARK    3  A    between atoms: C_9  and  C_10
REMARK    4  A    between atoms: C_15  and  C_16
REMARK    5  A    between atoms: S_19  and  C_20
REMARK    6  A    between atoms: C_20  and  C_21
REMARK    7  A    between atoms: N_23  and  C_24
REMARK    8  A    between atoms: C_28  and  C_30
REMARK                            x       y       z     vdW  Elec       q    Type
REMARK                         _______ _______ _______ _____ _____    ______ ____
ROOT
ATOM      1  C   UNL     1       6.578  -3.715  25.957  0.00  0.00    +0.000 A 
ATOM      2  C   UNL     1       7.667  -2.591  26.621  0.00  0.00    +0.000 A 
ATOM      3  O   UNL     1       7.173  -1.362  26.487  0.00  0.00    +0.000 OA
ATOM      4  N   UNL     1       8.753  -2.698  25.808  0.00  0.00    +0.000 NA
ATOM      5  C   UNL     1       9.200  -3.355  24.808  0.00  0.00    +0.000 A 
ATOM      6  N   UNL     1       8.474  -4.317  24.288  0.00  0.00    +0.000 NA
ATOM      7  C   UNL     1       7.118  -4.332  24.719  0.00  0.00    +0.000 A 
ENDROOT
BRANCH   7   8
ATOM      8  C   UNL     1       6.188  -3.943  23.590  0.00  0.00    +0.000 A 
ATOM      9  C   UNL     1       4.917  -3.122  24.268  0.00  0.00    +0.000 A 
ATOM     10  C   UNL     1       3.767  -4.114  24.311  0.00  0.00    +0.000 A 
ATOM     11  C   UNL     1       3.306  -5.251  23.495  0.00  0.00    +0.000 A 
ATOM     12  C   UNL     1       4.498  -5.996  22.795  0.00  0.00    +0.000 A 
ATOM     13  C   UNL     1       5.687  -5.041  22.733  0.00  0.00    +0.000 A 
BRANCH  13  14
ATOM     14  C   UNL     1       5.983  -4.894  21.304  0.00  0.00    +0.000 C 
ATOM     15  O   UNL     1       6.172  -5.803  20.575  0.00  0.00    +0.000 OA
ATOM     16  O   UNL     1       5.677  -3.649  20.927  0.00  0.00    +0.000 OA
ENDBRANCH  13  14
ENDBRANCH   7   8
BRANCH   1  18
ATOM     17  N   UNL     1       6.190  -5.538  26.706  0.00  0.00    +0.000 NA
ATOM     18  C   UNL     1       6.575  -4.490  27.011  0.00  0.00    +0.000 C 
ENDBRANCH   1  18
BRANCH   5  19
ATOM     19  S   UNL     1       9.893  -2.266  23.636  0.00  0.00    +0.000 S 
BRANCH  19  20
ATOM     20  C   UNL     1      10.108  -0.900  24.801  0.00  0.00    +0.000 C 
BRANCH  20  21
ATOM     21  C   UNL     1      10.108   0.405  23.973  0.00  0.00    +0.000 C 
ATOM     22  O   UNL     1      10.754   1.346  24.412  0.00  0.00    +0.000 OA
ATOM     23  N   UNL     1       9.567   0.373  22.819  0.00  0.00    +0.000 NA
BRANCH  23  24
ATOM     24  C   UNL     1       9.002   1.384  22.260  0.00  0.00    +0.000 A 
ATOM     25  C   UNL     1       7.790   1.828  23.330  0.00  0.00    +0.000 A 
ATOM     26  C   UNL     1       6.538   2.045  22.552  0.00  0.00    +0.000 A 
ATOM     27  C   UNL     1       6.058   1.744  21.160  0.00  0.00    +0.000 A 
ATOM     28  C   UNL     1       7.254   1.338  20.220  0.00  0.00    +0.000 A 
ATOM     29  C   UNL     1       8.481   1.217  20.926  0.00  0.00    +0.000 A 
BRANCH  28  30
ATOM     30  C   UNL     1       6.831   0.432  19.149  0.00  0.00    +0.000 C 
ATOM     31  F   UNL     1       6.022  -0.563  19.708  0.00  0.00    +0.000 F 
ATOM     32  F   UNL     1       6.159   1.077  18.171  0.00  0.00    +0.000 F 
ATOM     33  F   UNL     1       7.947  -0.212  18.621  0.00  0.00    +0.000 F 
ENDBRANCH  28  30
ENDBRANCH  23  24
ENDBRANCH  20  21
ENDBRANCH  19  20
ENDBRANCH   5  19
TORSDOF 8
ENDMDL
MODEL 6
REMARK VINA RESULT:      -7.4      2.015      2.710
REMARK  Name = 
REMARK  8 active torsions:
REMARK  status: ('A' for Active; 'I' for Inactive)
REMARK    1  A    between atoms: C_2  and  C_3
REMARK    2  A    between atoms: C_7  and  S_19
REMARK    3  A    between atoms: C_9  and  C_10
REMARK    4  A    between atoms: C_15  and  C_16
REMARK    5  A    between atoms: S_19  and  C_20
REMARK    6  A    between atoms: C_20  and  C_21
REMARK    7  A    between atoms: N_23  and  C_24
REMARK    8  A    between atoms: C_28  and  C_30
REMARK                            x       y       z     vdW  Elec       q    Type
REMARK                         _______ _______ _______ _____ _____    ______ ____
ROOT
ATOM      1  C   UNL     1       4.982  -5.191  26.438  0.00  0.00    +0.000 A 
ATOM      2  C   UNL     1       5.519  -4.336  27.807  0.00  0.00    +0.000 A 
ATOM      3  O   UNL     1       4.814  -3.214  27.934  0.00  0.00    +0.000 OA
ATOM      4  N   UNL     1       6.793  -3.996  27.476  0.00  0.00    +0.000 NA
ATOM      5  C   UNL     1       7.667  -4.140  26.554  0.00  0.00    +0.000 A 
ATOM      6  N   UNL     1       7.383  -4.871  25.502  0.00  0.00    +0.000 NA
ATOM      7  C   UNL     1       6.004  -5.192  25.361  0.00  0.00    +0.000 A 
ENDROOT
BRANCH   7   8
ATOM      8  C   UNL     1       5.399  -4.468  24.178  0.00  0.00    +0.000 A 
ATOM      9  C   UNL     1       4.440  -5.559  23.378  0.00  0.00    +0.000 A 
ATOM     10  C   UNL     1       5.243  -5.995  22.164  0.00  0.00    +0.000 A 
ATOM     11  C   UNL     1       6.235  -5.382  21.263  0.00  0.00    +0.000 A 
ATOM     12  C   UNL     1       7.104  -4.298  21.995  0.00  0.00    +0.000 A 
ATOM     13  C   UNL     1       6.343  -3.831  23.233  0.00  0.00    +0.000 A 
BRANCH  13  14
ATOM     14  C   UNL     1       6.144  -2.391  23.036  0.00  0.00    +0.000 C 
ATOM     15  O   UNL     1       5.835  -1.647  23.898  0.00  0.00    +0.000 OA
ATOM     16  O   UNL     1       6.679  -2.039  21.863  0.00  0.00    +0.000 OA
ENDBRANCH  13  14
ENDBRANCH   7   8
BRANCH   1  18
ATOM     17  N   UNL     1       4.924  -7.195  26.315  0.00  0.00    +0.000 NA
ATOM     18  C   UNL     1       4.841  -6.326  27.075  0.00  0.00    +0.000 C 
ENDBRANCH   1  18
BRANCH   5  19
ATOM     19  S   UNL     1       8.406  -2.606  26.183  0.00  0.00    +0.000 S 
BRANCH  19  20
ATOM     20  C   UNL     1       9.632  -3.293  25.046  0.00  0.00    +0.000 C 
BRANCH  20  21
ATOM     21  C   UNL     1       9.746  -2.313  23.856  0.00  0.00    +0.000 C 
ATOM     22  O   UNL     1      10.078  -2.780  22.777  0.00  0.00    +0.000 OA
ATOM     23  N   UNL     1       9.343  -1.116  24.036  0.00  0.00    +0.000 NA
BRANCH  23  24
ATOM     24  C   UNL     1       9.829  -0.094  23.428  0.00  0.00    +0.000 A 
ATOM     25  C   UNL     1      10.278   0.950  24.661  0.00  0.00    +0.000 A 
ATOM     26  C   UNL     1       9.783   2.314  24.322  0.00  0.00    +0.000 A 
ATOM     27  C   UNL     1       8.825   2.905  23.326  0.00  0.00    +0.000 A 
ATOM     28  C   UNL     1       8.456   1.865  22.203  0.00  0.00    +0.000 A 
ATOM     29  C   UNL     1       8.998   0.577  22.458  0.00  0.00    +0.000 A 
BRANCH  28  30
ATOM     30  C   UNL     1       7.117   2.098  21.655  0.00  0.00    +0.000 C 
ATOM     31  F   UNL     1       6.892   3.479  21.614  0.00  0.00    +0.000 F 
ATOM     32  F   UNL     1       6.973   1.571  20.420  0.00  0.00    +0.000 F 
ATOM     33  F   UNL     1       6.165   1.565  22.520  0.00  0.00    +0.000 F 
ENDBRANCH  28  30
ENDBRANCH  23  24
ENDBRANCH  20  21
ENDBRANCH  19  20
ENDBRANCH   5  19
TORSDOF 8
ENDMDL
MODEL 7
REMARK VINA RESULT:      -7.3      2.205      2.836
REMARK  Name = 
REMARK  8 active torsions:
REMARK  status: ('A' for Active; 'I' for Inactive)
REMARK    1  A    between atoms: C_2  and  C_3
REMARK    2  A    between atoms: C_7  and  S_19
REMARK    3  A    between atoms: C_9  and  C_10
REMARK    4  A    between atoms: C_15  and  C_16
REMARK    5  A    between atoms: S_19  and  C_20
REMARK    6  A    between atoms: C_20  and  C_21
REMARK    7  A    between atoms: N_23  and  C_24
REMARK    8  A    between atoms: C_28  and  C_30
REMARK                            x       y       z     vdW  Elec       q    Type
REMARK                         _______ _______ _______ _____ _____    ______ ____
ROOT
ATOM      1  C   UNL     1       4.942  -5.714  25.977  0.00  0.00    +0.000 A 
ATOM      2  C   UNL     1       3.782  -4.477  26.098  0.00  0.00    +0.000 A 
ATOM      3  O   UNL     1       3.148  -4.347  24.934  0.00  0.00    +0.000 OA
ATOM      4  N   UNL     1       4.539  -3.364  26.291  0.00  0.00    +0.000 NA
ATOM      5  C   UNL     1       5.750  -2.984  26.443  0.00  0.00    +0.000 A 
ATOM      6  N   UNL     1       6.710  -3.878  26.468  0.00  0.00    +0.000 NA
ATOM      7  C   UNL     1       6.323  -5.173  26.023  0.00  0.00    +0.000 A 
ENDROOT
BRANCH   7   8
ATOM      8  C   UNL     1       6.973  -5.506  24.698  0.00  0.00    +0.000 A 
ATOM      9  C   UNL     1       8.583  -5.138  24.838  0.00  0.00    +0.000 A 
ATOM     10  C   UNL     1       8.764  -3.814  24.115  0.00  0.00    +0.000 A 
ATOM     11  C   UNL     1       8.151  -3.136  22.960  0.00  0.00    +0.000 A 
ATOM     12  C   UNL     1       6.642  -3.529  22.778  0.00  0.00    +0.000 A 
ATOM     13  C   UNL     1       6.405  -4.855  23.496  0.00  0.00    +0.000 A 
BRANCH  13  14
ATOM     14  C   UNL     1       5.946  -5.776  22.451  0.00  0.00    +0.000 C 
ATOM     15  O   UNL     1       6.601  -6.656  22.017  0.00  0.00    +0.000 OA
ATOM     16  O   UNL     1       4.619  -5.668  22.334  0.00  0.00    +0.000 OA
ENDBRANCH  13  14
ENDBRANCH   7   8
BRANCH   1  18
ATOM     17  N   UNL     1       5.424  -6.963  27.474  0.00  0.00    +0.000 NA
ATOM     18  C   UNL     1       4.547  -6.332  27.061  0.00  0.00    +0.000 C 
ENDBRANCH   1  18
BRANCH   5  19
ATOM     19  S   UNL     1       6.079  -1.607  25.428  0.00  0.00    +0.000 S 
BRANCH  19  20
ATOM     20  C   UNL     1       7.598  -1.137  26.287  0.00  0.00    +0.000 C 
BRANCH  20  21
ATOM     21  C   UNL     1       8.386  -0.205  25.339  0.00  0.00    +0.000 C 
ATOM     22  O   UNL     1       7.788   0.752  24.871  0.00  0.00    +0.000 OA
ATOM     23  N   UNL     1       9.641  -0.402  25.226  0.00  0.00    +0.000 NA
BRANCH  23  24
ATOM     24  C   UNL     1      10.317  -0.143  24.164  0.00  0.00    +0.000 A 
ATOM     25  C   UNL     1      10.846   1.433  24.380  0.00  0.00    +0.000 A 
ATOM     26  C   UNL     1      10.591   2.188  23.121  0.00  0.00    +0.000 A 
ATOM     27  C   UNL     1       9.801   1.965  21.862  0.00  0.00    +0.000 A 
ATOM     28  C   UNL     1       9.345   0.464  21.733  0.00  0.00    +0.000 A 
ATOM     29  C   UNL     1       9.663  -0.301  22.888  0.00  0.00    +0.000 A 
BRANCH  28  30
ATOM     30  C   UNL     1       8.096   0.329  20.979  0.00  0.00    +0.000 C 
ATOM     31  F   UNL     1       8.385  -0.287  19.756  0.00  0.00    +0.000 F 
ATOM     32  F   UNL     1       7.169  -0.388  21.649  0.00  0.00    +0.000 F 
ATOM     33  F   UNL     1       7.600   1.596  20.679  0.00  0.00    +0.000 F 
ENDBRANCH  28  30
ENDBRANCH  23  24
ENDBRANCH  20  21
ENDBRANCH  19  20
ENDBRANCH   5  19
TORSDOF 8
ENDMDL
MODEL 8
REMARK VINA RESULT:      -7.3      2.844      6.851
REMARK  Name = 
REMARK  8 active torsions:
REMARK  status: ('A' for Active; 'I' for Inactive)
REMARK    1  A    between atoms: C_2  and  C_3
REMARK    2  A    between atoms: C_7  and  S_19
REMARK    3  A    between atoms: C_9  and  C_10
REMARK    4  A    between atoms: C_15  and  C_16
REMARK    5  A    between atoms: S_19  and  C_20
REMARK    6  A    between atoms: C_20  and  C_21
REMARK    7  A    between atoms: N_23  and  C_24
REMARK    8  A    between atoms: C_28  and  C_30
REMARK                            x       y       z     vdW  Elec       q    Type
REMARK                         _______ _______ _______ _____ _____    ______ ____
ROOT
ATOM      1  C   UNL     1       8.177   2.939  22.488  0.00  0.00    +0.000 A 
ATOM      2  C   UNL     1       8.886   3.418  23.957  0.00  0.00    +0.000 A 
ATOM      3  O   UNL     1      10.208   3.278  23.879  0.00  0.00    +0.000 OA
ATOM      4  N   UNL     1       8.417   2.495  24.839  0.00  0.00    +0.000 NA
ATOM      5  C   UNL     1       7.638   1.485  24.921  0.00  0.00    +0.000 A 
ATOM      6  N   UNL     1       6.964   1.100  23.863  0.00  0.00    +0.000 NA
ATOM      7  C   UNL     1       7.403   1.681  22.640  0.00  0.00    +0.000 A 
ENDROOT
BRANCH   7   8
ATOM      8  C   UNL     1       8.064   0.646  21.757  0.00  0.00    +0.000 A 
ATOM      9  C   UNL     1       7.338   0.741  20.269  0.00  0.00    +0.000 A 
ATOM     10  C   UNL     1       6.377  -0.434  20.208  0.00  0.00    +0.000 A 
ATOM     11  C   UNL     1       6.330  -1.804  20.749  0.00  0.00    +0.000 A 
ATOM     12  C   UNL     1       7.073  -1.919  22.128  0.00  0.00    +0.000 A 
ATOM     13  C   UNL     1       8.049  -0.752  22.242  0.00  0.00    +0.000 A 
BRANCH  13  14
ATOM     14  C   UNL     1       9.370  -1.373  22.381  0.00  0.00    +0.000 C 
ATOM     15  O   UNL     1       9.642  -2.442  21.961  0.00  0.00    +0.000 OA
ATOM     16  O   UNL     1      10.252  -0.433  22.736  0.00  0.00    +0.000 OA
ENDBRANCH  13  14
ENDBRANCH   7   8
BRANCH   1  18
ATOM     17  N   UNL     1       6.413   3.739  21.954  0.00  0.00    +0.000 NA
ATOM     18  C   UNL     1       7.458   4.025  22.362  0.00  0.00    +0.000 C 
ENDBRANCH   1  18
BRANCH   5  19
ATOM     19  S   UNL     1       8.424   0.189  25.781  0.00  0.00    +0.000 S 
BRANCH  19  20
ATOM     20  C   UNL     1       7.099  -0.021  26.994  0.00  0.00    +0.000 C 
BRANCH  20  21
ATOM     21  C   UNL     1       6.519  -1.439  26.789  0.00  0.00    +0.000 C 
ATOM     22  O   UNL     1       5.579  -1.766  27.500  0.00  0.00    +0.000 OA
ATOM     23  N   UNL     1       6.950  -2.117  25.799  0.00  0.00    +0.000 NA
BRANCH  23  24
ATOM     24  C   UNL     1       7.021  -3.400  25.782  0.00  0.00    +0.000 A 
ATOM     25  C   UNL     1       8.614  -3.724  25.370  0.00  0.00    +0.000 A 
ATOM     26  C   UNL     1       8.618  -4.769  24.308  0.00  0.00    +0.000 A 
ATOM     27  C   UNL     1       7.602  -5.393  23.394  0.00  0.00    +0.000 A 
ATOM     28  C   UNL     1       6.136  -5.044  23.849  0.00  0.00    +0.000 A 
ATOM     29  C   UNL     1       6.108  -4.118  24.927  0.00  0.00    +0.000 A 
BRANCH  28  30
ATOM     30  C   UNL     1       5.199  -5.020  22.722  0.00  0.00    +0.000 C 
ATOM     31  F   UNL     1       4.365  -6.140  22.818  0.00  0.00    +0.000 F 
ATOM     32  F   UNL     1       4.457  -3.893  22.700  0.00  0.00    +0.000 F 
ATOM     33  F   UNL     1       5.909  -5.152  21.531  0.00  0.00    +0.000 F 
ENDBRANCH  28  30
ENDBRANCH  23  24
ENDBRANCH  20  21
ENDBRANCH  19  20
ENDBRANCH   5  19
TORSDOF 8
ENDMDL
MODEL 9
REMARK VINA RESULT:      -7.3      3.486      5.191
REMARK  Name = 
REMARK  8 active torsions:
REMARK  status: ('A' for Active; 'I' for Inactive)
REMARK    1  A    between atoms: C_2  and  C_3
REMARK    2  A    between atoms: C_7  and  S_19
REMARK    3  A    between atoms: C_9  and  C_10
REMARK    4  A    between atoms: C_15  and  C_16
REMARK    5  A    between atoms: S_19  and  C_20
REMARK    6  A    between atoms: C_20  and  C_21
REMARK    7  A    between atoms: N_23  and  C_24
REMARK    8  A    between atoms: C_28  and  C_30
REMARK                            x       y       z     vdW  Elec       q    Type
REMARK                         _______ _______ _______ _____ _____    ______ ____
ROOT
ATOM      1  C   UNL     1       6.781  -3.152  22.561  0.00  0.00    +0.000 A 
ATOM      2  C   UNL     1       7.693  -1.723  22.690  0.00  0.00    +0.000 A 
ATOM      3  O   UNL     1       8.990  -2.023  22.697  0.00  0.00    +0.000 OA
ATOM      4  N   UNL     1       7.363  -1.259  23.925  0.00  0.00    +0.000 NA
ATOM      5  C   UNL     1       6.610  -1.510  24.927  0.00  0.00    +0.000 A 
ATOM      6  N   UNL     1       5.792  -2.535  24.881  0.00  0.00    +0.000 NA
ATOM      7  C   UNL     1       6.045  -3.444  23.816  0.00  0.00    +0.000 A 
ENDROOT
BRANCH   7   8
ATOM      8  C   UNL     1       6.576  -4.759  24.344  0.00  0.00    +0.000 A 
ATOM      9  C   UNL     1       5.939  -5.959  23.393  0.00  0.00    +0.000 A 
ATOM     10  C   UNL     1       4.812  -6.570  24.209  0.00  0.00    +0.000 A 
ATOM     11  C   UNL     1       4.532  -6.802  25.637  0.00  0.00    +0.000 A 
ATOM     12  C   UNL     1       5.188  -5.707  26.552  0.00  0.00    +0.000 A 
ATOM     13  C   UNL     1       6.326  -5.054  25.772  0.00  0.00    +0.000 A 
BRANCH  13  14
ATOM     14  C   UNL     1       7.529  -5.307  26.572  0.00  0.00    +0.000 C 
ATOM     15  O   UNL     1       7.512  -5.766  27.659  0.00  0.00    +0.000 OA
ATOM     16  O   UNL     1       8.598  -5.252  25.771  0.00  0.00    +0.000 OA
ENDBRANCH  13  14
ENDBRANCH   7   8
BRANCH   1  18
ATOM     17  N   UNL     1       5.607  -3.621  21.000  0.00  0.00    +0.000 NA
ATOM     18  C   UNL     1       6.045  -2.714  21.571  0.00  0.00    +0.000 C 
ENDBRANCH   1  18
BRANCH   5  19
ATOM     19  S   UNL     1       7.520  -1.385  26.408  0.00  0.00    +0.000 S 
BRANCH  19  20
ATOM     20  C   UNL     1       6.252  -0.450  27.294  0.00  0.00    +0.000 C 
BRANCH  20  21
ATOM     21  C   UNL     1       6.530   1.048  27.037  0.00  0.00    +0.000 C 
ATOM     22  O   UNL     1       5.936   1.856  27.736  0.00  0.00    +0.000 OA
ATOM     23  N   UNL     1       7.467   1.344  26.224  0.00  0.00    +0.000 NA
BRANCH  23  24
ATOM     24  C   UNL     1       7.483   2.405  25.500  0.00  0.00    +0.000 A 
ATOM     25  C   UNL     1       6.255   2.167  24.383  0.00  0.00    +0.000 A 
ATOM     26  C   UNL     1       6.776   2.519  23.033  0.00  0.00    +0.000 A 
ATOM     27  C   UNL     1       8.125   2.784  22.425  0.00  0.00    +0.000 A 
ATOM     28  C   UNL     1       9.219   2.998  23.536  0.00  0.00    +0.000 A 
ATOM     29  C   UNL     1       8.718   2.760  24.844  0.00  0.00    +0.000 A 
BRANCH  28  30
ATOM     30  C   UNL     1      10.553   2.594  23.081  0.00  0.00    +0.000 C 
ATOM     31  F   UNL     1      11.053   1.641  23.976  0.00  0.00    +0.000 F 
ATOM     32  F   UNL     1      10.533   2.085  21.831  0.00  0.00    +0.000 F 
ATOM     33  F   UNL     1      11.412   3.688  23.143  0.00  0.00    +0.000 F 
ENDBRANCH  28  30
ENDBRANCH  23  24
ENDBRANCH  20  21
ENDBRANCH  19  20
ENDBRANCH   5  19
TORSDOF 8
ENDMDL
