MODEL 1
REMARK VINA RESULT:      -7.0      0.000      0.000
REMARK  Name = 
REMARK  9 active torsions:
REMARK  status: ('A' for Active; 'I' for Inactive)
REMARK    1  A    between atoms: C_2  and  N_3
REMARK    2  A    between atoms: N_3  and  C_4
REMARK    3  A    between atoms: C_8  and  C_9
REMARK    4  A    between atoms: C_9  and  C_10
REMARK    5  A    between atoms: C_15  and  N_16
REMARK    6  A    between atoms: N_16  and  C_17
REMARK    7  A    between atoms: C_17  and  C_18
REMARK    8  A    between atoms: C_23  and  C_24
REMARK    9  A    between atoms: C_23  and  S_26
REMARK                            x       y       z     vdW  Elec       q    Type
REMARK                         _______ _______ _______ _____ _____    ______ ____
ROOT
ATOM      1  C   UNL     1       8.734   0.052  21.035  0.00  0.00    +0.000 C 
ATOM      2  N   UNL     1       9.078   1.456  21.541  0.00  0.00    +0.000 NA
ATOM      3  C   UNL     1      10.204   1.630  22.072  0.00  0.00    +0.000 C 
ATOM      4  C   UNL     1      10.389   1.183  23.536  0.00  0.00    +0.000 C 
ATOM      5  C   UNL     1       9.562  -0.067  23.471  0.00  0.00    +0.000 C 
ATOM      6  C   UNL     1       9.613  -0.791  22.091  0.00  0.00    +0.000 C 
ATOM      7 CL   UNL     1       9.533   2.377  24.455  0.00  0.00    +0.000 Cl
ENDROOT
BRANCH   1   8
ATOM      8  C   UNL     1       7.301  -0.199  21.406  0.00  0.00    +0.000 C 
BRANCH   8  13
ATOM      9  C   UNL     1       5.375   1.150  20.436  0.00  0.00    +0.000 C 
ATOM     10  C   UNL     1       5.004   1.591  18.996  0.00  0.00    +0.000 C 
ATOM     11  C   UNL     1       6.079   1.122  17.997  0.00  0.00    +0.000 C 
ATOM     12  C   UNL     1       6.804  -0.068  18.823  0.00  0.00    +0.000 C 
ATOM     13  C   UNL     1       6.375  -0.106  20.156  0.00  0.00    +0.000 C 
ATOM     14  F   UNL     1       6.647  -1.181  18.021  0.00  0.00    +0.000 F 
BRANCH   9  15
ATOM     15  N   UNL     1       6.182   2.186  21.008  0.00  0.00    +0.000 NA
BRANCH  15  17
ATOM     16  C   UNL     1       5.938   2.582  23.384  0.00  0.00    +0.000 C 
ATOM     17  C   UNL     1       5.378   2.863  22.000  0.00  0.00    +0.000 C 
ENDBRANCH  15  17
ENDBRANCH   9  15
ENDBRANCH   8  13
ENDBRANCH   1   8
BRANCH   6  18
ATOM     18  N   UNL     1       8.921  -2.034  22.204  0.00  0.00    +0.000 NA
BRANCH  18  19
ATOM     19  C   UNL     1       9.174  -2.577  23.467  0.00  0.00    +0.000 C 
BRANCH  19  20
ATOM     20  C   UNL     1       8.142  -3.701  23.844  0.00  0.00    +0.000 C 
ATOM     21  C   UNL     1       7.359  -4.249  22.807  0.00  0.00    +0.000 C 
ATOM     22  C   UNL     1       5.878  -3.982  22.387  0.00  0.00    +0.000 C 
ATOM     23  C   UNL     1       5.521  -3.123  23.579  0.00  0.00    +0.000 C 
ATOM     24  C   UNL     1       6.169  -2.848  24.866  0.00  0.00    +0.000 C 
ATOM     25  C   UNL     1       7.562  -3.371  25.279  0.00  0.00    +0.000 C 
ATOM     26  F   UNL     1       5.981  -3.256  21.287  0.00  0.00    +0.000 F 
BRANCH  25  27
ATOM     27  S   UNL     1       7.290  -4.913  26.116  0.00  0.00    +0.000 S 
ATOM     28  O   UNL     1       7.207  -4.585  27.531  0.00  0.00    +0.000 OA
ATOM     29  O   UNL     1       8.312  -5.840  25.773  0.00  0.00    +0.000 OA
ATOM     30  N   UNL     1       5.823  -5.521  25.669  0.00  0.00    +0.000 NA
ENDBRANCH  25  27
BRANCH  25  31
ATOM     31  C   UNL     1       8.384  -2.428  26.005  0.00  0.00    +0.000 C 
ATOM     32  C   UNL     1       7.612  -1.219  26.519  0.00  0.00    +0.000 C 
ENDBRANCH  25  31
ENDBRANCH  19  20
ENDBRANCH  18  19
ENDBRANCH   6  18
TORSDOF 9
ENDMDL
MODEL 2
REMARK VINA RESULT:      -6.8      2.231      4.309
REMARK  Name = 
REMARK  9 active torsions:
REMARK  status: ('A' for Active; 'I' for Inactive)
REMARK    1  A    between atoms: C_2  and  N_3
REMARK    2  A    between atoms: N_3  and  C_4
REMARK    3  A    between atoms: C_8  and  C_9
REMARK    4  A    between atoms: C_9  and  C_10
REMARK    5  A    between atoms: C_15  and  N_16
REMARK    6  A    between atoms: N_16  and  C_17
REMARK    7  A    between atoms: C_17  and  C_18
REMARK    8  A    between atoms: C_23  and  C_24
REMARK    9  A    between atoms: C_23  and  S_26
REMARK                            x       y       z     vdW  Elec       q    Type
REMARK                         _______ _______ _______ _____ _____    ______ ____
ROOT
ATOM      1  C   UNL     1       7.326   0.242  21.856  0.00  0.00    +0.000 C 
ATOM      2  N   UNL     1       7.145   1.373  20.838  0.00  0.00    +0.000 NA
ATOM      3  C   UNL     1       6.024   1.489  20.282  0.00  0.00    +0.000 C 
ATOM      4  C   UNL     1       5.696   0.539  19.112  0.00  0.00    +0.000 C 
ATOM      5  C   UNL     1       6.349  -0.693  19.664  0.00  0.00    +0.000 C 
ATOM      6  C   UNL     1       6.282  -0.806  21.218  0.00  0.00    +0.000 C 
ATOM      7 CL   UNL     1       6.651   1.142  17.797  0.00  0.00    +0.000 Cl
ENDROOT
BRANCH   1   8
ATOM      8  C   UNL     1       8.688  -0.340  21.614  0.00  0.00    +0.000 C 
BRANCH   8  13
ATOM      9  C   UNL     1      10.607   0.502  23.055  0.00  0.00    +0.000 C 
ATOM     10  C   UNL     1      10.818   0.614  24.587  0.00  0.00    +0.000 C 
ATOM     11  C   UNL     1       9.557   0.143  25.338  0.00  0.00    +0.000 C 
ATOM     12  C   UNL     1       8.815  -0.753  24.211  0.00  0.00    +0.000 C 
ATOM     13  C   UNL     1       9.425  -0.616  22.958  0.00  0.00    +0.000 C 
ATOM     14  F   UNL     1       8.710  -2.004  24.789  0.00  0.00    +0.000 F 
BRANCH   9  15
ATOM     15  N   UNL     1      10.031   1.735  22.608  0.00  0.00    +0.000 NA
BRANCH  15  17
ATOM     16  C   UNL     1       9.562   3.834  23.720  0.00  0.00    +0.000 C 
ATOM     17  C   UNL     1      10.623   2.797  23.389  0.00  0.00    +0.000 C 
ENDBRANCH  15  17
ENDBRANCH   9  15
ENDBRANCH   8  13
ENDBRANCH   1   8
BRANCH   6  18
ATOM     18  N   UNL     1       6.792  -2.082  21.603  0.00  0.00    +0.000 NA
BRANCH  18  19
ATOM     19  C   UNL     1       6.004  -2.587  22.642  0.00  0.00    +0.000 C 
BRANCH  19  20
ATOM     20  C   UNL     1       6.654  -3.849  23.316  0.00  0.00    +0.000 C 
ATOM     21  C   UNL     1       7.304  -4.780  22.478  0.00  0.00    +0.000 C 
ATOM     22  C   UNL     1       6.837  -6.164  21.923  0.00  0.00    +0.000 C 
ATOM     23  C   UNL     1       5.575  -6.255  22.750  0.00  0.00    +0.000 C 
ATOM     24  C   UNL     1       5.058  -5.514  23.906  0.00  0.00    +0.000 C 
ATOM     25  C   UNL     1       5.740  -4.279  24.534  0.00  0.00    +0.000 C 
ATOM     26  F   UNL     1       6.562  -5.925  20.653  0.00  0.00    +0.000 F 
BRANCH  25  27
ATOM     27  S   UNL     1       6.805  -4.892  25.815  0.00  0.00    +0.000 S 
ATOM     28  O   UNL     1       6.870  -3.836  26.813  0.00  0.00    +0.000 OA
ATOM     29  O   UNL     1       8.058  -5.276  25.264  0.00  0.00    +0.000 OA
ATOM     30  N   UNL     1       6.096  -6.198  26.530  0.00  0.00    +0.000 NA
ENDBRANCH  25  27
BRANCH  25  31
ATOM     31  C   UNL     1       4.841  -3.225  24.950  0.00  0.00    +0.000 C 
ATOM     32  C   UNL     1       3.407  -3.696  25.160  0.00  0.00    +0.000 C 
ENDBRANCH  25  31
ENDBRANCH  19  20
ENDBRANCH  18  19
ENDBRANCH   6  18
TORSDOF 9
ENDMDL
MODEL 3
REMARK VINA RESULT:      -6.7      3.593      6.673
REMARK  Name = 
REMARK  9 active torsions:
REMARK  status: ('A' for Active; 'I' for Inactive)
REMARK    1  A    between atoms: C_2  and  N_3
REMARK    2  A    between atoms: N_3  and  C_4
REMARK    3  A    between atoms: C_8  and  C_9
REMARK    4  A    between atoms: C_9  and  C_10
REMARK    5  A    between atoms: C_15  and  N_16
REMARK    6  A    between atoms: N_16  and  C_17
REMARK    7  A    between atoms: C_17  and  C_18
REMARK    8  A    between atoms: C_23  and  C_24
REMARK    9  A    between atoms: C_23  and  S_26
REMARK                            x       y       z     vdW  Elec       q    Type
REMARK                         _______ _______ _______ _____ _____    ______ ____
ROOT
ATOM      1  C   UNL     1       5.016  -2.722  25.337  0.00  0.00    +0.000 C 
ATOM      2  N   UNL     1       5.888  -3.705  26.124  0.00  0.00    +0.000 NA
ATOM      3  C   UNL     1       6.636  -3.240  27.021  0.00  0.00    +0.000 C 
ATOM      4  C   UNL     1       7.964  -2.587  26.588  0.00  0.00    +0.000 C 
ATOM      5  C   UNL     1       7.464  -1.921  25.341  0.00  0.00    +0.000 C 
ATOM      6  C   UNL     1       5.984  -1.437  25.428  0.00  0.00    +0.000 C 
ATOM      7 CL   UNL     1       8.969  -3.928  26.146  0.00  0.00    +0.000 Cl
ENDROOT
BRANCH   1   8
ATOM      8  C   UNL     1       5.058  -3.163  23.902  0.00  0.00    +0.000 C 
BRANCH   8  13
ATOM      9  C   UNL     1       4.717  -5.670  23.643  0.00  0.00    +0.000 C 
ATOM     10  C   UNL     1       5.473  -6.770  22.853  0.00  0.00    +0.000 C 
ATOM     11  C   UNL     1       6.632  -6.153  22.048  0.00  0.00    +0.000 C 
ATOM     12  C   UNL     1       6.861  -4.748  22.820  0.00  0.00    +0.000 C 
ATOM     13  C   UNL     1       5.846  -4.499  23.751  0.00  0.00    +0.000 C 
ATOM     14  F   UNL     1       8.177  -4.802  23.239  0.00  0.00    +0.000 F 
BRANCH   9  15
ATOM     15  N   UNL     1       3.688  -5.157  22.789  0.00  0.00    +0.000 NA
BRANCH  15  17
ATOM     16  C   UNL     1       2.241  -5.550  24.690  0.00  0.00    +0.000 C 
ATOM     17  C   UNL     1       2.442  -5.765  23.199  0.00  0.00    +0.000 C 
ENDBRANCH  15  17
ENDBRANCH   9  15
ENDBRANCH   8  13
ENDBRANCH   1   8
BRANCH   6  18
ATOM     18  N   UNL     1       5.680  -0.688  24.252  0.00  0.00    +0.000 NA
BRANCH  18  19
ATOM     19  C   UNL     1       6.845  -0.057  23.806  0.00  0.00    +0.000 C 
BRANCH  19  20
ATOM     20  C   UNL     1       7.230  -0.491  22.345  0.00  0.00    +0.000 C 
ATOM     21  C   UNL     1       8.177  -1.526  22.195  0.00  0.00    +0.000 C 
ATOM     22  C   UNL     1       9.700  -1.484  21.850  0.00  0.00    +0.000 C 
ATOM     23  C   UNL     1       9.754  -0.008  21.528  0.00  0.00    +0.000 C 
ATOM     24  C   UNL     1       8.735   1.021  21.291  0.00  0.00    +0.000 C 
ATOM     25  C   UNL     1       7.213   0.800  21.430  0.00  0.00    +0.000 C 
ATOM     26  F   UNL     1      10.297  -1.744  23.000  0.00  0.00    +0.000 F 
BRANCH  25  27
ATOM     27  S   UNL     1       6.629   0.315  19.826  0.00  0.00    +0.000 S 
ATOM     28  O   UNL     1       5.904  -0.929  20.029  0.00  0.00    +0.000 OA
ATOM     29  O   UNL     1       7.718   0.234  18.915  0.00  0.00    +0.000 OA
ATOM     30  N   UNL     1       5.542   1.431  19.285  0.00  0.00    +0.000 NA
ENDBRANCH  25  27
BRANCH  25  31
ATOM     31  C   UNL     1       6.485   1.895  22.032  0.00  0.00    +0.000 C 
ATOM     32  C   UNL     1       7.270   3.200  22.069  0.00  0.00    +0.000 C 
ENDBRANCH  25  31
ENDBRANCH  19  20
ENDBRANCH  18  19
ENDBRANCH   6  18
TORSDOF 9
ENDMDL
MODEL 4
REMARK VINA RESULT:      -6.7      2.808      4.534
REMARK  Name = 
REMARK  9 active torsions:
REMARK  status: ('A' for Active; 'I' for Inactive)
REMARK    1  A    between atoms: C_2  and  N_3
REMARK    2  A    between atoms: N_3  and  C_4
REMARK    3  A    between atoms: C_8  and  C_9
REMARK    4  A    between atoms: C_9  and  C_10
REMARK    5  A    between atoms: C_15  and  N_16
REMARK    6  A    between atoms: N_16  and  C_17
REMARK    7  A    between atoms: C_17  and  C_18
REMARK    8  A    between atoms: C_23  and  C_24
REMARK    9  A    between atoms: C_23  and  S_26
REMARK                            x       y       z     vdW  Elec       q    Type
REMARK                         _______ _______ _______ _____ _____    ______ ____
ROOT
ATOM      1  C   UNL     1       8.683  -0.642  25.918  0.00  0.00    +0.000 C 
ATOM      2  N   UNL     1       7.793   0.472  26.480  0.00  0.00    +0.000 NA
ATOM      3  C   UNL     1       7.148   0.235  27.532  0.00  0.00    +0.000 C 
ATOM      4  C   UNL     1       5.847  -0.586  27.413  0.00  0.00    +0.000 C 
ATOM      5  C   UNL     1       6.311  -1.545  26.357  0.00  0.00    +0.000 C 
ATOM      6  C   UNL     1       7.826  -1.902  26.443  0.00  0.00    +0.000 C 
ATOM      7 CL   UNL     1       4.713   0.520  26.711  0.00  0.00    +0.000 Cl
ENDROOT
BRANCH   1   8
ATOM      8  C   UNL     1       8.507  -0.621  24.427  0.00  0.00    +0.000 C 
BRANCH   8  13
ATOM      9  C   UNL     1       9.133   0.593  22.282  0.00  0.00    +0.000 C 
ATOM     10  C   UNL     1      10.042   1.812  21.976  0.00  0.00    +0.000 C 
ATOM     11  C   UNL     1      10.625   2.388  23.280  0.00  0.00    +0.000 C 
ATOM     12  C   UNL     1      10.462   1.138  24.298  0.00  0.00    +0.000 C 
ATOM     13  C   UNL     1       9.695   0.111  23.734  0.00  0.00    +0.000 C 
ATOM     14  F   UNL     1      11.750   0.877  24.723  0.00  0.00    +0.000 F 
BRANCH   9  15
ATOM     15  N   UNL     1       7.809   1.090  22.509  0.00  0.00    +0.000 NA
BRANCH  15  17
ATOM     16  C   UNL     1       7.269   0.061  20.384  0.00  0.00    +0.000 C 
ATOM     17  C   UNL     1       7.210   1.333  21.216  0.00  0.00    +0.000 C 
ENDBRANCH  15  17
ENDBRANCH   9  15
ENDBRANCH   8  13
ENDBRANCH   1   8
BRANCH   6  18
ATOM     18  N   UNL     1       8.106  -2.931  25.494  0.00  0.00    +0.000 NA
BRANCH  18  19
ATOM     19  C   UNL     1       7.234  -4.000  25.719  0.00  0.00    +0.000 C 
BRANCH  19  20
ATOM     20  C   UNL     1       6.798  -4.699  24.381  0.00  0.00    +0.000 C 
ATOM     21  C   UNL     1       7.599  -4.488  23.238  0.00  0.00    +0.000 C 
ATOM     22  C   UNL     1       7.406  -3.543  22.009  0.00  0.00    +0.000 C 
ATOM     23  C   UNL     1       5.999  -3.112  22.352  0.00  0.00    +0.000 C 
ATOM     24  C   UNL     1       4.988  -3.594  23.301  0.00  0.00    +0.000 C 
ATOM     25  C   UNL     1       5.217  -4.720  24.332  0.00  0.00    +0.000 C 
ATOM     26  F   UNL     1       8.271  -2.565  22.215  0.00  0.00    +0.000 F 
BRANCH  25  27
ATOM     27  S   UNL     1       4.724  -6.230  23.541  0.00  0.00    +0.000 S 
ATOM     28  O   UNL     1       4.549  -7.199  24.612  0.00  0.00    +0.000 OA
ATOM     29  O   UNL     1       5.677  -6.595  22.550  0.00  0.00    +0.000 OA
ATOM     30  N   UNL     1       3.250  -6.015  22.832  0.00  0.00    +0.000 NA
ENDBRANCH  25  27
BRANCH  25  31
ATOM     31  C   UNL     1       4.620  -4.497  25.630  0.00  0.00    +0.000 C 
ATOM     32  C   UNL     1       3.360  -3.641  25.581  0.00  0.00    +0.000 C 
ENDBRANCH  25  31
ENDBRANCH  19  20
ENDBRANCH  18  19
ENDBRANCH   6  18
TORSDOF 9
ENDMDL
MODEL 5
REMARK VINA RESULT:      -6.7      3.681      6.565
REMARK  Name = 
REMARK  9 active torsions:
REMARK  status: ('A' for Active; 'I' for Inactive)
REMARK    1  A    between atoms: C_2  and  N_3
REMARK    2  A    between atoms: N_3  and  C_4
REMARK    3  A    between atoms: C_8  and  C_9
REMARK    4  A    between atoms: C_9  and  C_10
REMARK    5  A    between atoms: C_15  and  N_16
REMARK    6  A    between atoms: N_16  and  C_17
REMARK    7  A    between atoms: C_17  and  C_18
REMARK    8  A    between atoms: C_23  and  C_24
REMARK    9  A    between atoms: C_23  and  S_26
REMARK                            x       y       z     vdW  Elec       q    Type
REMARK                         _______ _______ _______ _____ _____    ______ ____
ROOT
ATOM      1  C   UNL     1       5.945  -3.609  25.936  0.00  0.00    +0.000 C 
ATOM      2  N   UNL     1       6.745  -4.900  26.136  0.00  0.00    +0.000 NA
ATOM      3  C   UNL     1       7.692  -4.883  26.961  0.00  0.00    +0.000 C 
ATOM      4  C   UNL     1       9.030  -4.259  26.514  0.00  0.00    +0.000 C 
ATOM      5  C   UNL     1       8.464  -3.129  25.707  0.00  0.00    +0.000 C 
ATOM      6  C   UNL     1       7.123  -2.560  26.262  0.00  0.00    +0.000 C 
ATOM      7 CL   UNL     1       9.706  -5.437  25.437  0.00  0.00    +0.000 Cl
ENDROOT
BRANCH   1   8
ATOM      8  C   UNL     1       5.686  -3.487  24.463  0.00  0.00    +0.000 C 
BRANCH   8  13
ATOM      9  C   UNL     1       4.718  -5.599  23.426  0.00  0.00    +0.000 C 
ATOM     10  C   UNL     1       5.091  -6.438  22.176  0.00  0.00    +0.000 C 
ATOM     11  C   UNL     1       6.270  -5.788  21.426  0.00  0.00    +0.000 C 
ATOM     12  C   UNL     1       6.918  -4.848  22.575  0.00  0.00    +0.000 C 
ATOM     13  C   UNL     1       6.103  -4.788  23.712  0.00  0.00    +0.000 C 
ATOM     14  F   UNL     1       8.219  -5.300  22.688  0.00  0.00    +0.000 F 
BRANCH   9  15
ATOM     15  N   UNL     1       3.757  -4.620  23.016  0.00  0.00    +0.000 NA
BRANCH  15  17
ATOM     16  C   UNL     1       2.451  -5.420  24.891  0.00  0.00    +0.000 C 
ATOM     17  C   UNL     1       2.452  -5.105  23.404  0.00  0.00    +0.000 C 
ENDBRANCH  15  17
ENDBRANCH   9  15
ENDBRANCH   8  13
ENDBRANCH   1   8
BRANCH   6  18
ATOM     18  N   UNL     1       6.774  -1.400  25.507  0.00  0.00    +0.000 NA
BRANCH  18  19
ATOM     19  C   UNL     1       7.929  -0.888  24.908  0.00  0.00    +0.000 C 
BRANCH  19  20
ATOM     20  C   UNL     1       7.596   0.173  23.797  0.00  0.00    +0.000 C 
ATOM     21  C   UNL     1       6.824  -0.249  22.694  0.00  0.00    +0.000 C 
ATOM     22  C   UNL     1       7.238  -0.636  21.238  0.00  0.00    +0.000 C 
ATOM     23  C   UNL     1       8.681  -0.200  21.356  0.00  0.00    +0.000 C 
ATOM     24  C   UNL     1       9.427   0.596  22.337  0.00  0.00    +0.000 C 
ATOM     25  C   UNL     1       8.840   1.141  23.657  0.00  0.00    +0.000 C 
ATOM     26  F   UNL     1       7.136  -1.953  21.213  0.00  0.00    +0.000 F 
BRANCH  25  27
ATOM     27  S   UNL     1       8.221   2.764  23.297  0.00  0.00    +0.000 S 
ATOM     28  O   UNL     1       7.039   2.930  24.128  0.00  0.00    +0.000 OA
ATOM     29  O   UNL     1       7.996   2.900  21.899  0.00  0.00    +0.000 OA
ATOM     30  N   UNL     1       9.325   3.887  23.787  0.00  0.00    +0.000 NA
ENDBRANCH  25  27
BRANCH  25  31
ATOM     31  C   UNL     1       9.726   1.072  24.799  0.00  0.00    +0.000 C 
ATOM     32  C   UNL     1      11.171   0.760  24.430  0.00  0.00    +0.000 C 
ENDBRANCH  25  31
ENDBRANCH  19  20
ENDBRANCH  18  19
ENDBRANCH   6  18
TORSDOF 9
ENDMDL
MODEL 6
REMARK VINA RESULT:      -6.5      2.975      4.749
REMARK  Name = 
REMARK  9 active torsions:
REMARK  status: ('A' for Active; 'I' for Inactive)
REMARK    1  A    between atoms: C_2  and  N_3
REMARK    2  A    between atoms: N_3  and  C_4
REMARK    3  A    between atoms: C_8  and  C_9
REMARK    4  A    between atoms: C_9  and  C_10
REMARK    5  A    between atoms: C_15  and  N_16
REMARK    6  A    between atoms: N_16  and  C_17
REMARK    7  A    between atoms: C_17  and  C_18
REMARK    8  A    between atoms: C_23  and  C_24
REMARK    9  A    between atoms: C_23  and  S_26
REMARK                            x       y       z     vdW  Elec       q    Type
REMARK                         _______ _______ _______ _____ _____    ______ ____
ROOT
ATOM      1  C   UNL     1       8.223   0.075  26.104  0.00  0.00    +0.000 C 
ATOM      2  N   UNL     1       7.429   1.385  26.115  0.00  0.00    +0.000 NA
ATOM      3  C   UNL     1       6.634   1.582  27.067  0.00  0.00    +0.000 C 
ATOM      4  C   UNL     1       5.259   0.884  27.018  0.00  0.00    +0.000 C 
ATOM      5  C   UNL     1       5.716  -0.417  26.427  0.00  0.00    +0.000 C 
ATOM      6  C   UNL     1       7.148  -0.849  26.870  0.00  0.00    +0.000 C 
ATOM      7 CL   UNL     1       4.378   1.769  25.816  0.00  0.00    +0.000 Cl
ENDROOT
BRANCH   1   8
ATOM      8  C   UNL     1       8.237  -0.408  24.682  0.00  0.00    +0.000 C 
BRANCH   8  13
ATOM      9  C   UNL     1       8.926   0.585  22.444  0.00  0.00    +0.000 C 
ATOM     10  C   UNL     1       9.946   1.678  22.034  0.00  0.00    +0.000 C 
ATOM     11  C   UNL     1      10.622   2.277  23.282  0.00  0.00    +0.000 C 
ATOM     12  C   UNL     1      10.358   1.124  24.389  0.00  0.00    +0.000 C 
ATOM     13  C   UNL     1       9.474   0.147  23.915  0.00  0.00    +0.000 C 
ATOM     14  F   UNL     1      11.624   0.759  24.805  0.00  0.00    +0.000 F 
BRANCH   9  15
ATOM     15  N   UNL     1       7.667   1.233  22.662  0.00  0.00    +0.000 NA
BRANCH  15  17
ATOM     16  C   UNL     1       7.188   0.616  20.370  0.00  0.00    +0.000 C 
ATOM     17  C   UNL     1       7.216   1.745  21.388  0.00  0.00    +0.000 C 
ENDBRANCH  15  17
ENDBRANCH   9  15
ENDBRANCH   8  13
ENDBRANCH   1   8
BRANCH   6  18
ATOM     18  N   UNL     1       7.401  -2.162  26.372  0.00  0.00    +0.000 NA
BRANCH  18  19
ATOM     19  C   UNL     1       6.178  -2.793  26.124  0.00  0.00    +0.000 C 
BRANCH  19  20
ATOM     20  C   UNL     1       6.369  -4.243  25.549  0.00  0.00    +0.000 C 
ATOM     21  C   UNL     1       7.319  -5.078  26.173  0.00  0.00    +0.000 C 
ATOM     22  C   UNL     1       8.777  -5.462  25.764  0.00  0.00    +0.000 C 
ATOM     23  C   UNL     1       8.736  -4.823  24.394  0.00  0.00    +0.000 C 
ATOM     24  C   UNL     1       7.661  -4.290  23.551  0.00  0.00    +0.000 C 
ATOM     25  C   UNL     1       6.181  -4.176  23.979  0.00  0.00    +0.000 C 
ATOM     26  F   UNL     1       9.538  -4.770  26.594  0.00  0.00    +0.000 F 
BRANCH  25  27
ATOM     27  S   UNL     1       5.395  -5.682  23.467  0.00  0.00    +0.000 S 
ATOM     28  O   UNL     1       5.059  -6.390  24.692  0.00  0.00    +0.000 OA
ATOM     29  O   UNL     1       6.243  -6.395  22.575  0.00  0.00    +0.000 OA
ATOM     30  N   UNL     1       3.976  -5.322  22.706  0.00  0.00    +0.000 NA
ENDBRANCH  25  27
BRANCH  25  31
ATOM     31  C   UNL     1       5.508  -2.969  23.554  0.00  0.00    +0.000 C 
ATOM     32  C   UNL     1       6.109  -2.348  22.299  0.00  0.00    +0.000 C 
ENDBRANCH  25  31
ENDBRANCH  19  20
ENDBRANCH  18  19
ENDBRANCH   6  18
TORSDOF 9
ENDMDL
MODEL 7
REMARK VINA RESULT:      -6.5      3.934      7.396
REMARK  Name = 
REMARK  9 active torsions:
REMARK  status: ('A' for Active; 'I' for Inactive)
REMARK    1  A    between atoms: C_2  and  N_3
REMARK    2  A    between atoms: N_3  and  C_4
REMARK    3  A    between atoms: C_8  and  C_9
REMARK    4  A    between atoms: C_9  and  C_10
REMARK    5  A    between atoms: C_15  and  N_16
REMARK    6  A    between atoms: N_16  and  C_17
REMARK    7  A    between atoms: C_17  and  C_18
REMARK    8  A    between atoms: C_23  and  C_24
REMARK    9  A    between atoms: C_23  and  S_26
REMARK                            x       y       z     vdW  Elec       q    Type
REMARK                         _______ _______ _______ _____ _____    ______ ____
ROOT
ATOM      1  C   UNL     1       7.922  -5.045  24.931  0.00  0.00    +0.000 C 
ATOM      2  N   UNL     1       6.725  -5.480  24.078  0.00  0.00    +0.000 NA
ATOM      3  C   UNL     1       6.849  -5.438  22.828  0.00  0.00    +0.000 C 
ATOM      4  C   UNL     1       6.702  -4.070  22.131  0.00  0.00    +0.000 C 
ATOM      5  C   UNL     1       7.391  -3.240  23.173  0.00  0.00    +0.000 C 
ATOM      6  C   UNL     1       8.554  -3.975  23.906  0.00  0.00    +0.000 C 
ATOM      7 CL   UNL     1       5.000  -3.748  22.189  0.00  0.00    +0.000 Cl
ENDROOT
BRANCH   1   8
ATOM      8  C   UNL     1       7.367  -4.241  26.070  0.00  0.00    +0.000 C 
BRANCH   8  13
ATOM      9  C   UNL     1       5.486  -5.538  27.188  0.00  0.00    +0.000 C 
ATOM     10  C   UNL     1       4.071  -5.144  27.685  0.00  0.00    +0.000 C 
ATOM     11  C   UNL     1       3.826  -3.639  27.470  0.00  0.00    +0.000 C 
ATOM     12  C   UNL     1       4.930  -3.281  26.340  0.00  0.00    +0.000 C 
ATOM     13  C   UNL     1       5.814  -4.346  26.126  0.00  0.00    +0.000 C 
ATOM     14  F   UNL     1       4.187  -2.785  25.286  0.00  0.00    +0.000 F 
BRANCH   9  15
ATOM     15  N   UNL     1       6.392  -5.361  28.282  0.00  0.00    +0.000 NA
BRANCH  15  17
ATOM     16  C   UNL     1       5.878  -5.928  30.579  0.00  0.00    +0.000 C 
ATOM     17  C   UNL     1       6.194  -6.465  29.193  0.00  0.00    +0.000 C 
ENDBRANCH  15  17
ENDBRANCH   9  15
ENDBRANCH   8  13
ENDBRANCH   1   8
BRANCH   6  18
ATOM     18  N   UNL     1       9.223  -3.039  24.750  0.00  0.00    +0.000 NA
BRANCH  18  19
ATOM     19  C   UNL     1       9.959  -2.159  23.952  0.00  0.00    +0.000 C 
BRANCH  19  20
ATOM     20  C   UNL     1       9.777  -0.663  24.400  0.00  0.00    +0.000 C 
ATOM     21  C   UNL     1       9.262  -0.422  25.691  0.00  0.00    +0.000 C 
ATOM     22  C   UNL     1       7.828  -0.024  26.167  0.00  0.00    +0.000 C 
ATOM     23  C   UNL     1       7.259   0.221  24.788  0.00  0.00    +0.000 C 
ATOM     24  C   UNL     1       7.850   0.363  23.453  0.00  0.00    +0.000 C 
ATOM     25  C   UNL     1       9.349   0.179  23.131  0.00  0.00    +0.000 C 
ATOM     26  F   UNL     1       7.344  -1.134  26.695  0.00  0.00    +0.000 F 
BRANCH  25  27
ATOM     27  S   UNL     1      10.093   1.784  23.274  0.00  0.00    +0.000 S 
ATOM     28  O   UNL     1      10.446   2.179  21.920  0.00  0.00    +0.000 OA
ATOM     29  O   UNL     1      11.181   1.737  24.189  0.00  0.00    +0.000 OA
ATOM     30  N   UNL     1       8.965   2.858  23.818  0.00  0.00    +0.000 NA
ENDBRANCH  25  27
BRANCH  25  31
ATOM     31  C   UNL     1       9.632  -0.508  21.890  0.00  0.00    +0.000 C 
ATOM     32  C   UNL     1       8.523  -0.372  20.853  0.00  0.00    +0.000 C 
ENDBRANCH  25  31
ENDBRANCH  19  20
ENDBRANCH  18  19
ENDBRANCH   6  18
TORSDOF 9
ENDMDL
MODEL 8
REMARK VINA RESULT:      -6.4      2.800      4.193
REMARK  Name = 
REMARK  9 active torsions:
REMARK  status: ('A' for Active; 'I' for Inactive)
REMARK    1  A    between atoms: C_2  and  N_3
REMARK    2  A    between atoms: N_3  and  C_4
REMARK    3  A    between atoms: C_8  and  C_9
REMARK    4  A    between atoms: C_9  and  C_10
REMARK    5  A    between atoms: C_15  and  N_16
REMARK    6  A    between atoms: N_16  and  C_17
REMARK    7  A    between atoms: C_17  and  C_18
REMARK    8  A    between atoms: C_23  and  C_24
REMARK    9  A    between atoms: C_23  and  S_26
REMARK                            x       y       z     vdW  Elec       q    Type
REMARK                         _______ _______ _______ _____ _____    ______ ____
ROOT
ATOM      1  C   UNL     1       7.016   0.294  24.328  0.00  0.00    +0.000 C 
ATOM      2  N   UNL     1       7.045   0.553  22.818  0.00  0.00    +0.000 NA
ATOM      3  C   UNL     1       6.875  -0.426  22.051  0.00  0.00    +0.000 C 
ATOM      4  C   UNL     1       8.074  -1.363  21.797  0.00  0.00    +0.000 C 
ATOM      5  C   UNL     1       8.642  -1.342  23.185  0.00  0.00    +0.000 C 
ATOM      6  C   UNL     1       7.569  -1.219  24.309  0.00  0.00    +0.000 C 
ATOM      7 CL   UNL     1       9.109  -0.449  20.750  0.00  0.00    +0.000 Cl
ENDROOT
BRANCH   1   8
ATOM      8  C   UNL     1       8.114   1.123  24.928  0.00  0.00    +0.000 C 
BRANCH   8  13
ATOM      9  C   UNL     1       7.955   3.600  24.371  0.00  0.00    +0.000 C 
ATOM     10  C   UNL     1       8.970   4.634  23.818  0.00  0.00    +0.000 C 
ATOM     11  C   UNL     1      10.351   3.979  23.623  0.00  0.00    +0.000 C 
ATOM     12  C   UNL     1       9.968   2.406  23.566  0.00  0.00    +0.000 C 
ATOM     13  C   UNL     1       8.629   2.188  23.913  0.00  0.00    +0.000 C 
ATOM     14  F   UNL     1      10.433   1.988  22.334  0.00  0.00    +0.000 F 
BRANCH   9  15
ATOM     15  N   UNL     1       8.038   3.639  25.801  0.00  0.00    +0.000 NA
BRANCH  15  17
ATOM     16  C   UNL     1       5.681   4.007  25.386  0.00  0.00    +0.000 C 
ATOM     17  C   UNL     1       6.865   4.331  26.284  0.00  0.00    +0.000 C 
ENDBRANCH  15  17
ENDBRANCH   9  15
ENDBRANCH   8  13
ENDBRANCH   1   8
BRANCH   6  18
ATOM     18  N   UNL     1       8.216  -1.368  25.573  0.00  0.00    +0.000 NA
BRANCH  18  19
ATOM     19  C   UNL     1       7.303  -1.904  26.485  0.00  0.00    +0.000 C 
BRANCH  19  20
ATOM     20  C   UNL     1       7.544  -3.438  26.729  0.00  0.00    +0.000 C 
ATOM     21  C   UNL     1       8.829  -3.953  26.457  0.00  0.00    +0.000 C 
ATOM     22  C   UNL     1       9.377  -4.759  25.236  0.00  0.00    +0.000 C 
ATOM     23  C   UNL     1       8.037  -4.978  24.570  0.00  0.00    +0.000 C 
ATOM     24  C   UNL     1       6.645  -4.807  25.002  0.00  0.00    +0.000 C 
ATOM     25  C   UNL     1       6.212  -4.208  26.357  0.00  0.00    +0.000 C 
ATOM     26  F   UNL     1      10.104  -3.879  24.570  0.00  0.00    +0.000 F 
BRANCH  25  27
ATOM     27  S   UNL     1       6.050  -5.574  27.479  0.00  0.00    +0.000 S 
ATOM     28  O   UNL     1       5.164  -5.114  28.536  0.00  0.00    +0.000 OA
ATOM     29  O   UNL     1       7.334  -6.001  27.915  0.00  0.00    +0.000 OA
ATOM     30  N   UNL     1       5.288  -6.819  26.710  0.00  0.00    +0.000 NA
ENDBRANCH  25  27
BRANCH  25  31
ATOM     31  C   UNL     1       5.063  -3.331  26.304  0.00  0.00    +0.000 C 
ATOM     32  C   UNL     1       4.262  -3.457  25.014  0.00  0.00    +0.000 C 
ENDBRANCH  25  31
ENDBRANCH  19  20
ENDBRANCH  18  19
ENDBRANCH   6  18
TORSDOF 9
ENDMDL
MODEL 9
REMARK VINA RESULT:      -6.3      2.684      4.049
REMARK  Name = 
REMARK  9 active torsions:
REMARK  status: ('A' for Active; 'I' for Inactive)
REMARK    1  A    between atoms: C_2  and  N_3
REMARK    2  A    between atoms: N_3  and  C_4
REMARK    3  A    between atoms: C_8  and  C_9
REMARK    4  A    between atoms: C_9  and  C_10
REMARK    5  A    between atoms: C_15  and  N_16
REMARK    6  A    between atoms: N_16  and  C_17
REMARK    7  A    between atoms: C_17  and  C_18
REMARK    8  A    between atoms: C_23  and  C_24
REMARK    9  A    between atoms: C_23  and  S_26
REMARK                            x       y       z     vdW  Elec       q    Type
REMARK                         _______ _______ _______ _____ _____    ______ ____
ROOT
ATOM      1  C   UNL     1       7.922  -0.327  25.393  0.00  0.00    +0.000 C 
ATOM      2  N   UNL     1       7.139   0.907  25.854  0.00  0.00    +0.000 NA
ATOM      3  C   UNL     1       7.040   1.112  27.090  0.00  0.00    +0.000 C 
ATOM      4  C   UNL     1       5.995   0.295  27.877  0.00  0.00    +0.000 C 
ATOM      5  C   UNL     1       6.166  -1.005  27.149  0.00  0.00    +0.000 C 
ATOM      6  C   UNL     1       7.621  -1.274  26.661  0.00  0.00    +0.000 C 
ATOM      7 CL   UNL     1       4.479   1.001  27.422  0.00  0.00    +0.000 Cl
ENDROOT
BRANCH   1   8
ATOM      8  C   UNL     1       7.153  -0.921  24.249  0.00  0.00    +0.000 C 
BRANCH   8  13
ATOM      9  C   UNL     1       7.294  -0.182  21.819  0.00  0.00    +0.000 C 
ATOM     10  C   UNL     1       8.475   0.207  20.892  0.00  0.00    +0.000 C 
ATOM     11  C   UNL     1       9.805   0.156  21.667  0.00  0.00    +0.000 C 
ATOM     12  C   UNL     1       9.423  -0.796  22.921  0.00  0.00    +0.000 C 
ATOM     13  C   UNL     1       8.046  -1.045  22.978  0.00  0.00    +0.000 C 
ATOM     14  F   UNL     1      10.307  -1.854  22.824  0.00  0.00    +0.000 F 
BRANCH   9  15
ATOM     15  N   UNL     1       6.829   1.017  22.450  0.00  0.00    +0.000 NA
BRANCH  15  17
ATOM     16  C   UNL     1       6.873   3.412  22.094  0.00  0.00    +0.000 C 
ATOM     17  C   UNL     1       6.771   2.045  21.436  0.00  0.00    +0.000 C 
ENDBRANCH  15  17
ENDBRANCH   9  15
ENDBRANCH   8  13
ENDBRANCH   1   8
BRANCH   6  18
ATOM     18  N   UNL     1       7.686  -2.597  26.130  0.00  0.00    +0.000 NA
BRANCH  18  19
ATOM     19  C   UNL     1       6.749  -3.395  26.793  0.00  0.00    +0.000 C 
BRANCH  19  20
ATOM     20  C   UNL     1       6.496  -4.754  26.045  0.00  0.00    +0.000 C 
ATOM     21  C   UNL     1       7.489  -5.207  25.152  0.00  0.00    +0.000 C 
ATOM     22  C   UNL     1       7.572  -5.152  23.592  0.00  0.00    +0.000 C 
ATOM     23  C   UNL     1       6.160  -4.658  23.371  0.00  0.00    +0.000 C 
ATOM     24  C   UNL     1       4.974  -4.546  24.227  0.00  0.00    +0.000 C 
ATOM     25  C   UNL     1       4.948  -4.863  25.739  0.00  0.00    +0.000 C 
ATOM     26  F   UNL     1       8.456  -4.199  23.350  0.00  0.00    +0.000 F 
BRANCH  25  27
ATOM     27  S   UNL     1       4.490  -6.572  25.884  0.00  0.00    +0.000 S 
ATOM     28  O   UNL     1       5.299  -7.107  26.967  0.00  0.00    +0.000 OA
ATOM     29  O   UNL     1       4.652  -7.227  24.632  0.00  0.00    +0.000 OA
ATOM     30  N   UNL     1       2.913  -6.673  26.356  0.00  0.00    +0.000 NA
ENDBRANCH  25  27
BRANCH  25  31
ATOM     31  C   UNL     1       4.159  -3.957  26.544  0.00  0.00    +0.000 C 
ATOM     32  C   UNL     1       3.187  -3.110  25.731  0.00  0.00    +0.000 C 
ENDBRANCH  25  31
ENDBRANCH  19  20
ENDBRANCH  18  19
ENDBRANCH   6  18
TORSDOF 9
ENDMDL
