MODEL 1
REMARK VINA RESULT:      -8.1      0.000      0.000
REMARK  Name = 
REMARK  5 active torsions:
REMARK  status: ('A' for Active; 'I' for Inactive)
REMARK    1  A    between atoms: N_13  and  C_14
REMARK    2  A    between atoms: N_13  and  C_28
REMARK    3  A    between atoms: C_19  and  N_20
REMARK    4  A    between atoms: C_28  and  C_29
REMARK    5  A    between atoms: C_34  and  C_35
REMARK                            x       y       z     vdW  Elec       q    Type
REMARK                         _______ _______ _______ _____ _____    ______ ____
ROOT
ATOM      1  C   UNL     1       8.003   3.661  22.272  0.00  0.00    +0.000 C 
ATOM      2  N   UNL     1       7.660   2.571  23.141  0.00  0.00    +0.000 NA
ATOM      3  C   UNL     1       7.789   2.654  24.476  0.00  0.00    +0.000 C 
ATOM      4  O   UNL     1       6.835   2.424  25.195  0.00  0.00    +0.000 OA
ATOM      5  N   UNL     1       9.020   2.131  24.778  0.00  0.00    +0.000 N 
ATOM      6  C   UNL     1      10.071   2.351  23.764  0.00  0.00    +0.000 C 
ATOM      7  C   UNL     1      10.056   1.154  22.814  0.00  0.00    +0.000 C 
ATOM      8  N   UNL     1      10.088  -0.096  23.571  0.00  0.00    +0.000 N 
ATOM      9  C   UNL     1      10.219   0.035  25.035  0.00  0.00    +0.000 C 
ATOM     10  C   UNL     1       9.038   0.873  25.515  0.00  0.00    +0.000 C 
ATOM     11  C   UNL     1       9.304  -1.122  23.159  0.00  0.00    +0.000 C 
ATOM     12  O   UNL     1       9.727  -2.083  22.590  0.00  0.00    +0.000 OA
ATOM     13  N   UNL     1       8.272  -1.218  24.071  0.00  0.00    +0.000 N 
ENDROOT
BRANCH  13  14
ATOM     14  C   UNL     1       7.130  -1.087  23.219  0.00  0.00    +0.000 A 
ATOM     15  C   UNL     1       5.867  -1.237  24.310  0.00  0.00    +0.000 A 
ATOM     16  C   UNL     1       5.059  -2.430  23.929  0.00  0.00    +0.000 A 
ATOM     17  C   UNL     1       5.124  -3.525  22.904  0.00  0.00    +0.000 A 
ATOM     18  C   UNL     1       6.268  -3.380  21.941  0.00  0.00    +0.000 A 
ATOM     19  C   UNL     1       6.948  -2.010  22.079  0.00  0.00    +0.000 A 
ATOM     20  C   UNL     1       7.067  -4.509  21.496  0.00  0.00    +0.000 C 
BRANCH  19  21
ATOM     21  N   UNL     1       6.836  -1.384  20.814  0.00  0.00    +0.000 N 
ATOM     22  C   UNL     1       7.790  -0.388  20.433  0.00  0.00    +0.000 C 
ATOM     23  C   UNL     1       7.162   0.853  19.874  0.00  0.00    +0.000 C 
ATOM     24  C   UNL     1       5.809   0.617  19.262  0.00  0.00    +0.000 C 
ATOM     25  C   UNL     1       5.675  -0.815  18.772  0.00  0.00    +0.000 C 
ATOM     26  C   UNL     1       5.769  -1.774  19.927  0.00  0.00    +0.000 C 
ATOM     27  O   UNL     1       5.674   1.457  18.137  0.00  0.00    +0.000 OA
ENDBRANCH  19  21
ENDBRANCH  13  14
BRANCH  13  28
ATOM     28  C   UNL     1       8.270  -1.846  25.223  0.00  0.00    +0.000 C 
BRANCH  28  29
ATOM     29  C   UNL     1       8.255  -3.210  25.696  0.00  0.00    +0.000 A 
ATOM     30  C   UNL     1       7.382  -3.223  27.181  0.00  0.00    +0.000 A 
ATOM     31  N   UNL     1       6.523  -4.267  27.017  0.00  0.00    +0.000 NA
ATOM     32  C   UNL     1       6.248  -5.316  26.320  0.00  0.00    +0.000 A 
ATOM     33  C   UNL     1       6.927  -5.399  24.886  0.00  0.00    +0.000 A 
ATOM     34  C   UNL     1       8.153  -4.462  25.013  0.00  0.00    +0.000 A 
BRANCH  34  35
ATOM     35  C   UNL     1       9.289  -5.418  25.030  0.00  0.00    +0.000 C 
ATOM     36  O   UNL     1      10.395  -4.982  25.298  0.00  0.00    +0.000 OA
ATOM     37  O   UNL     1       9.158  -6.179  23.902  0.00  0.00    +0.000 OA
ENDBRANCH  34  35
ENDBRANCH  28  29
ENDBRANCH  13  28
TORSDOF 5
ENDMDL
MODEL 2
REMARK VINA RESULT:      -8.0      2.036      5.738
REMARK  Name = 
REMARK  5 active torsions:
REMARK  status: ('A' for Active; 'I' for Inactive)
REMARK    1  A    between atoms: N_13  and  C_14
REMARK    2  A    between atoms: N_13  and  C_28
REMARK    3  A    between atoms: C_19  and  N_20
REMARK    4  A    between atoms: C_28  and  C_29
REMARK    5  A    between atoms: C_34  and  C_35
REMARK                            x       y       z     vdW  Elec       q    Type
REMARK                         _______ _______ _______ _____ _____    ______ ____
ROOT
ATOM      1  C   UNL     1       7.455  -5.559  22.704  0.00  0.00    +0.000 C 
ATOM      2  N   UNL     1       8.068  -4.445  23.372  0.00  0.00    +0.000 NA
ATOM      3  C   UNL     1       8.544  -4.538  24.625  0.00  0.00    +0.000 C 
ATOM      4  O   UNL     1       9.697  -4.233  24.861  0.00  0.00    +0.000 OA
ATOM      5  N   UNL     1       7.537  -4.111  25.452  0.00  0.00    +0.000 N 
ATOM      6  C   UNL     1       6.166  -4.412  24.994  0.00  0.00    +0.000 C 
ATOM      7  C   UNL     1       5.679  -3.218  24.174  0.00  0.00    +0.000 C 
ATOM      8  N   UNL     1       5.896  -1.974  24.910  0.00  0.00    +0.000 N 
ATOM      9  C   UNL     1       6.430  -2.114  26.279  0.00  0.00    +0.000 C 
ATOM     10  C   UNL     1       7.757  -2.858  26.165  0.00  0.00    +0.000 C 
ATOM     11  C   UNL     1       6.345  -0.891  24.231  0.00  0.00    +0.000 C 
ATOM     12  O   UNL     1       5.650   0.034  23.937  0.00  0.00    +0.000 OA
ATOM     13  N   UNL     1       7.663  -0.714  24.602  0.00  0.00    +0.000 N 
ENDROOT
BRANCH  13  14
ATOM     14  C   UNL     1       8.321  -0.757  23.332  0.00  0.00    +0.000 A 
ATOM     15  C   UNL     1       9.929  -0.585  23.772  0.00  0.00    +0.000 A 
ATOM     16  C   UNL     1      10.455   0.660  23.142  0.00  0.00    +0.000 A 
ATOM     17  C   UNL     1       9.917   1.787  22.310  0.00  0.00    +0.000 A 
ATOM     18  C   UNL     1       8.472   1.622  21.934  0.00  0.00    +0.000 A 
ATOM     19  C   UNL     1       7.960   0.215  22.279  0.00  0.00    +0.000 A 
ATOM     20  C   UNL     1       7.527   2.724  21.944  0.00  0.00    +0.000 C 
BRANCH  19  21
ATOM     21  N   UNL     1       7.526  -0.358  21.060  0.00  0.00    +0.000 N 
ATOM     22  C   UNL     1       8.288  -0.141  19.868  0.00  0.00    +0.000 C 
ATOM     23  C   UNL     1       7.453   0.275  18.695  0.00  0.00    +0.000 C 
ATOM     24  C   UNL     1       6.024  -0.188  18.782  0.00  0.00    +0.000 C 
ATOM     25  C   UNL     1       5.910  -1.444  19.628  0.00  0.00    +0.000 C 
ATOM     26  C   UNL     1       6.330  -1.162  21.044  0.00  0.00    +0.000 C 
ATOM     27  O   UNL     1       5.580  -0.516  17.485  0.00  0.00    +0.000 OA
ENDBRANCH  19  21
ENDBRANCH  13  14
BRANCH  13  28
ATOM     28  C   UNL     1       8.127  -0.088  25.657  0.00  0.00    +0.000 C 
BRANCH  28  29
ATOM     29  C   UNL     1       7.819   1.103  26.414  0.00  0.00    +0.000 A 
ATOM     30  C   UNL     1       8.205   2.453  25.415  0.00  0.00    +0.000 A 
ATOM     31  N   UNL     1       7.097   3.237  25.527  0.00  0.00    +0.000 NA
ATOM     32  C   UNL     1       6.019   3.461  26.196  0.00  0.00    +0.000 A 
ATOM     33  C   UNL     1       5.500   2.266  27.106  0.00  0.00    +0.000 A 
ATOM     34  C   UNL     1       6.770   1.411  27.335  0.00  0.00    +0.000 A 
BRANCH  34  35
ATOM     35  C   UNL     1       7.081   1.671  28.764  0.00  0.00    +0.000 C 
ATOM     36  O   UNL     1       7.454   2.790  29.069  0.00  0.00    +0.000 OA
ATOM     37  O   UNL     1       7.830   0.609  29.185  0.00  0.00    +0.000 OA
ENDBRANCH  34  35
ENDBRANCH  28  29
ENDBRANCH  13  28
TORSDOF 5
ENDMDL
MODEL 3
REMARK VINA RESULT:      -7.6      2.594      3.876
REMARK  Name = 
REMARK  5 active torsions:
REMARK  status: ('A' for Active; 'I' for Inactive)
REMARK    1  A    between atoms: N_13  and  C_14
REMARK    2  A    between atoms: N_13  and  C_28
REMARK    3  A    between atoms: C_19  and  N_20
REMARK    4  A    between atoms: C_28  and  C_29
REMARK    5  A    between atoms: C_34  and  C_35
REMARK                            x       y       z     vdW  Elec       q    Type
REMARK                         _______ _______ _______ _____ _____    ______ ____
ROOT
ATOM      1  C   UNL     1       6.577   4.041  24.854  0.00  0.00    +0.000 C 
ATOM      2  N   UNL     1       6.062   2.700  24.858  0.00  0.00    +0.000 NA
ATOM      3  C   UNL     1       4.861   2.399  25.379  0.00  0.00    +0.000 C 
ATOM      4  O   UNL     1       4.035   1.816  24.703  0.00  0.00    +0.000 OA
ATOM      5  N   UNL     1       5.088   2.010  26.674  0.00  0.00    +0.000 N 
ATOM      6  C   UNL     1       6.211   2.686  27.354  0.00  0.00    +0.000 C 
ATOM      7  C   UNL     1       7.465   1.841  27.128  0.00  0.00    +0.000 C 
ATOM      8  N   UNL     1       7.204   0.444  27.465  0.00  0.00    +0.000 N 
ATOM      9  C   UNL     1       5.870   0.149  28.024  0.00  0.00    +0.000 C 
ATOM     10  C   UNL     1       4.844   0.608  26.993  0.00  0.00    +0.000 C 
ATOM     11  C   UNL     1       7.710  -0.522  26.660  0.00  0.00    +0.000 C 
ATOM     12  O   UNL     1       8.657  -1.189  26.951  0.00  0.00    +0.000 OA
ATOM     13  N   UNL     1       6.644  -1.048  25.959  0.00  0.00    +0.000 N 
ENDROOT
BRANCH  13  14
ATOM     14  C   UNL     1       7.069  -0.848  24.608  0.00  0.00    +0.000 A 
ATOM     15  C   UNL     1       5.802  -1.527  23.745  0.00  0.00    +0.000 A 
ATOM     16  C   UNL     1       6.340  -2.661  22.939  0.00  0.00    +0.000 A 
ATOM     17  C   UNL     1       7.655  -3.363  22.765  0.00  0.00    +0.000 A 
ATOM     18  C   UNL     1       8.776  -2.748  23.553  0.00  0.00    +0.000 A 
ATOM     19  C   UNL     1       8.364  -1.395  24.151  0.00  0.00    +0.000 A 
ATOM     20  C   UNL     1       9.771  -3.541  24.253  0.00  0.00    +0.000 C 
BRANCH  19  21
ATOM     21  N   UNL     1       9.264  -0.438  23.623  0.00  0.00    +0.000 N 
ATOM     22  C   UNL     1      10.463  -0.126  24.339  0.00  0.00    +0.000 C 
ATOM     23  C   UNL     1      10.706   1.347  24.477  0.00  0.00    +0.000 C 
ATOM     24  C   UNL     1      10.062   2.166  23.391  0.00  0.00    +0.000 C 
ATOM     25  C   UNL     1       9.893   1.348  22.121  0.00  0.00    +0.000 C 
ATOM     26  C   UNL     1       8.961   0.193  22.362  0.00  0.00    +0.000 C 
ATOM     27  O   UNL     1      10.914   3.246  23.081  0.00  0.00    +0.000 OA
ENDBRANCH  19  21
ENDBRANCH  13  14
BRANCH  13  28
ATOM     28  C   UNL     1       5.809  -1.984  26.344  0.00  0.00    +0.000 C 
BRANCH  28  29
ATOM     29  C   UNL     1       5.862  -3.384  26.694  0.00  0.00    +0.000 A 
ATOM     30  C   UNL     1       4.280  -3.841  27.202  0.00  0.00    +0.000 A 
ATOM     31  N   UNL     1       4.062  -4.994  26.509  0.00  0.00    +0.000 NA
ATOM     32  C   UNL     1       4.606  -5.935  25.818  0.00  0.00    +0.000 A 
ATOM     33  C   UNL     1       6.044  -5.620  25.218  0.00  0.00    +0.000 A 
ATOM     34  C   UNL     1       6.575  -4.489  26.131  0.00  0.00    +0.000 A 
BRANCH  34  35
ATOM     35  C   UNL     1       7.630  -5.177  26.918  0.00  0.00    +0.000 C 
ATOM     36  O   UNL     1       7.286  -5.801  27.906  0.00  0.00    +0.000 OA
ATOM     37  O   UNL     1       8.648  -4.275  27.053  0.00  0.00    +0.000 OA
ENDBRANCH  34  35
ENDBRANCH  28  29
ENDBRANCH  13  28
TORSDOF 5
ENDMDL
MODEL 4
REMARK VINA RESULT:      -7.4      1.977      2.458
REMARK  Name = 
REMARK  5 active torsions:
REMARK  status: ('A' for Active; 'I' for Inactive)
REMARK    1  A    between atoms: N_13  and  C_14
REMARK    2  A    between atoms: N_13  and  C_28
REMARK    3  A    between atoms: C_19  and  N_20
REMARK    4  A    between atoms: C_28  and  C_29
REMARK    5  A    between atoms: C_34  and  C_35
REMARK                            x       y       z     vdW  Elec       q    Type
REMARK                         _______ _______ _______ _____ _____    ______ ____
ROOT
ATOM      1  C   UNL     1       6.999   2.452  22.855  0.00  0.00    +0.000 C 
ATOM      2  N   UNL     1       6.328   1.462  23.650  0.00  0.00    +0.000 NA
ATOM      3  C   UNL     1       5.813   1.745  24.858  0.00  0.00    +0.000 C 
ATOM      4  O   UNL     1       4.643   1.510  25.091  0.00  0.00    +0.000 OA
ATOM      5  N   UNL     1       6.777   1.414  25.775  0.00  0.00    +0.000 N 
ATOM      6  C   UNL     1       8.172   1.609  25.331  0.00  0.00    +0.000 C 
ATOM      7  C   UNL     1       8.647   0.296  24.708  0.00  0.00    +0.000 C 
ATOM      8  N   UNL     1       8.365  -0.823  25.604  0.00  0.00    +0.000 N 
ATOM      9  C   UNL     1       7.790  -0.474  26.918  0.00  0.00    +0.000 C 
ATOM     10  C   UNL     1       6.493   0.282  26.649  0.00  0.00    +0.000 C 
ATOM     11  C   UNL     1       7.903  -1.979  25.069  0.00  0.00    +0.000 C 
ATOM     12  O   UNL     1       8.578  -2.956  24.935  0.00  0.00    +0.000 OA
ATOM     13  N   UNL     1       6.569  -2.065  25.410  0.00  0.00    +0.000 N 
ENDROOT
BRANCH  13  14
ATOM     14  C   UNL     1       5.956  -2.185  24.123  0.00  0.00    +0.000 A 
ATOM     15  C   UNL     1       4.407  -2.685  24.525  0.00  0.00    +0.000 A 
ATOM     16  C   UNL     1       4.174  -4.025  23.913  0.00  0.00    +0.000 A 
ATOM     17  C   UNL     1       4.963  -5.028  23.123  0.00  0.00    +0.000 A 
ATOM     18  C   UNL     1       6.352  -4.568  22.781  0.00  0.00    +0.000 A 
ATOM     19  C   UNL     1       6.545  -3.079  23.104  0.00  0.00    +0.000 A 
ATOM     20  C   UNL     1       7.507  -5.446  22.842  0.00  0.00    +0.000 C 
BRANCH  19  21
ATOM     21  N   UNL     1       6.886  -2.451  21.883  0.00  0.00    +0.000 N 
ATOM     22  C   UNL     1       8.222  -1.980  21.680  0.00  0.00    +0.000 C 
ATOM     23  C   UNL     1       8.285  -0.581  21.145  0.00  0.00    +0.000 C 
ATOM     24  C   UNL     1       7.058  -0.179  20.372  0.00  0.00    +0.000 C 
ATOM     25  C   UNL     1       6.372  -1.394  19.771  0.00  0.00    +0.000 C 
ATOM     26  C   UNL     1       5.882  -2.310  20.858  0.00  0.00    +0.000 C 
ATOM     27  O   UNL     1       7.455   0.649  19.302  0.00  0.00    +0.000 OA
ENDBRANCH  19  21
ENDBRANCH  13  14
BRANCH  13  28
ATOM     28  C   UNL     1       6.049  -2.521  26.525  0.00  0.00    +0.000 C 
BRANCH  28  29
ATOM     29  C   UNL     1       5.925  -3.789  27.205  0.00  0.00    +0.000 A 
ATOM     30  C   UNL     1       4.520  -3.698  28.198  0.00  0.00    +0.000 A 
ATOM     31  N   UNL     1       3.871  -4.861  27.910  0.00  0.00    +0.000 NA
ATOM     32  C   UNL     1       3.973  -6.028  27.376  0.00  0.00    +0.000 A 
ATOM     33  C   UNL     1       5.187  -6.233  26.371  0.00  0.00    +0.000 A 
ATOM     34  C   UNL     1       6.191  -5.132  26.790  0.00  0.00    +0.000 A 
BRANCH  34  35
ATOM     35  C   UNL     1       7.276  -5.913  27.436  0.00  0.00    +0.000 C 
ATOM     36  O   UNL     1       7.080  -6.334  28.563  0.00  0.00    +0.000 OA
ATOM     37  O   UNL     1       8.430  -5.218  27.205  0.00  0.00    +0.000 OA
ENDBRANCH  34  35
ENDBRANCH  28  29
ENDBRANCH  13  28
TORSDOF 5
ENDMDL
MODEL 5
REMARK VINA RESULT:      -7.1      2.411      6.084
REMARK  Name = 
REMARK  5 active torsions:
REMARK  status: ('A' for Active; 'I' for Inactive)
REMARK    1  A    between atoms: N_13  and  C_14
REMARK    2  A    between atoms: N_13  and  C_28
REMARK    3  A    between atoms: C_19  and  N_20
REMARK    4  A    between atoms: C_28  and  C_29
REMARK    5  A    between atoms: C_34  and  C_35
REMARK                            x       y       z     vdW  Elec       q    Type
REMARK                         _______ _______ _______ _____ _____    ______ ____
ROOT
ATOM      1  C   UNL     1       7.472  -4.978  22.757  0.00  0.00    +0.000 C 
ATOM      2  N   UNL     1       7.898  -3.965  23.681  0.00  0.00    +0.000 NA
ATOM      3  C   UNL     1       8.063  -4.215  24.991  0.00  0.00    +0.000 C 
ATOM      4  O   UNL     1       9.124  -3.965  25.528  0.00  0.00    +0.000 OA
ATOM      5  N   UNL     1       6.885  -3.869  25.600  0.00  0.00    +0.000 N 
ATOM      6  C   UNL     1       5.664  -4.085  24.796  0.00  0.00    +0.000 C 
ATOM      7  C   UNL     1       5.377  -2.791  24.034  0.00  0.00    +0.000 C 
ATOM      8  N   UNL     1       5.402  -1.649  24.945  0.00  0.00    +0.000 N 
ATOM      9  C   UNL     1       5.596  -1.962  26.374  0.00  0.00    +0.000 C 
ATOM     10  C   UNL     1       6.917  -2.715  26.490  0.00  0.00    +0.000 C 
ATOM     11  C   UNL     1       5.992  -0.502  24.528  0.00  0.00    +0.000 C 
ATOM     12  O   UNL     1       5.378   0.465  24.190  0.00  0.00    +0.000 OA
ATOM     13  N   UNL     1       7.182  -0.399  25.219  0.00  0.00    +0.000 N 
ENDROOT
BRANCH  13  14
ATOM     14  C   UNL     1       8.124  -0.304  24.147  0.00  0.00    +0.000 A 
ATOM     15  C   UNL     1       9.541  -0.803  24.889  0.00  0.00    +0.000 A 
ATOM     16  C   UNL     1      10.520   0.321  24.830  0.00  0.00    +0.000 A 
ATOM     17  C   UNL     1      10.536   1.746  24.359  0.00  0.00    +0.000 A 
ATOM     18  C   UNL     1       9.254   2.179  23.706  0.00  0.00    +0.000 A 
ATOM     19  C   UNL     1       8.323   0.984  23.449  0.00  0.00    +0.000 A 
ATOM     20  C   UNL     1       8.659   3.484  23.933  0.00  0.00    +0.000 C 
BRANCH  19  21
ATOM     21  N   UNL     1       8.103   0.948  22.052  0.00  0.00    +0.000 N 
ATOM     22  C   UNL     1       7.236   1.915  21.449  0.00  0.00    +0.000 C 
ATOM     23  C   UNL     1       6.234   1.312  20.512  0.00  0.00    +0.000 C 
ATOM     24  C   UNL     1       6.680   0.004  19.918  0.00  0.00    +0.000 C 
ATOM     25  C   UNL     1       8.196  -0.083  19.868  0.00  0.00    +0.000 C 
ATOM     26  C   UNL     1       8.768  -0.055  21.258  0.00  0.00    +0.000 C 
ATOM     27  O   UNL     1       6.214  -0.066  18.589  0.00  0.00    +0.000 OA
ENDBRANCH  19  21
ENDBRANCH  13  14
BRANCH  13  28
ATOM     28  C   UNL     1       7.376   0.088  26.422  0.00  0.00    +0.000 C 
BRANCH  28  29
ATOM     29  C   UNL     1       6.637   0.860  27.394  0.00  0.00    +0.000 A 
ATOM     30  C   UNL     1       7.447   0.682  28.905  0.00  0.00    +0.000 A 
ATOM     31  N   UNL     1       7.535   1.966  29.352  0.00  0.00    +0.000 NA
ATOM     32  C   UNL     1       7.107   3.172  29.206  0.00  0.00    +0.000 A 
ATOM     33  C   UNL     1       6.404   3.501  27.819  0.00  0.00    +0.000 A 
ATOM     34  C   UNL     1       5.952   2.112  27.307  0.00  0.00    +0.000 A 
BRANCH  34  35
ATOM     35  C   UNL     1       4.477   2.171  27.472  0.00  0.00    +0.000 C 
ATOM     36  O   UNL     1       3.816   1.261  27.003  0.00  0.00    +0.000 OA
ATOM     37  O   UNL     1       4.114   3.451  27.160  0.00  0.00    +0.000 OA
ENDBRANCH  34  35
ENDBRANCH  28  29
ENDBRANCH  13  28
TORSDOF 5
ENDMDL
MODEL 6
REMARK VINA RESULT:      -6.8      2.430      7.325
REMARK  Name = 
REMARK  5 active torsions:
REMARK  status: ('A' for Active; 'I' for Inactive)
REMARK    1  A    between atoms: N_13  and  C_14
REMARK    2  A    between atoms: N_13  and  C_28
REMARK    3  A    between atoms: C_19  and  N_20
REMARK    4  A    between atoms: C_28  and  C_29
REMARK    5  A    between atoms: C_34  and  C_35
REMARK                            x       y       z     vdW  Elec       q    Type
REMARK                         _______ _______ _______ _____ _____    ______ ____
ROOT
ATOM      1  C   UNL     1       4.673  -7.194  24.558  0.00  0.00    +0.000 C 
ATOM      2  N   UNL     1       4.580  -5.800  24.225  0.00  0.00    +0.000 NA
ATOM      3  C   UNL     1       4.058  -5.377  23.061  0.00  0.00    +0.000 C 
ATOM      4  O   UNL     1       3.144  -4.575  23.061  0.00  0.00    +0.000 OA
ATOM      5  N   UNL     1       5.114  -5.218  22.201  0.00  0.00    +0.000 N 
ATOM      6  C   UNL     1       6.234  -6.162  22.386  0.00  0.00    +0.000 C 
ATOM      7  C   UNL     1       7.228  -5.517  23.352  0.00  0.00    +0.000 C 
ATOM      8  N   UNL     1       7.545  -4.157  22.922  0.00  0.00    +0.000 N 
ATOM      9  C   UNL     1       6.945  -3.724  21.645  0.00  0.00    +0.000 C 
ATOM     10  C   UNL     1       5.433  -3.854  21.796  0.00  0.00    +0.000 C 
ATOM     11  C   UNL     1       7.643  -3.187  23.864  0.00  0.00    +0.000 C 
ATOM     12  O   UNL     1       8.684  -2.737  24.236  0.00  0.00    +0.000 OA
ATOM     13  N   UNL     1       6.520  -2.396  23.730  0.00  0.00    +0.000 N 
ENDROOT
BRANCH  13  14
ATOM     14  C   UNL     1       5.964  -2.472  25.046  0.00  0.00    +0.000 A 
ATOM     15  C   UNL     1       4.865  -1.206  25.030  0.00  0.00    +0.000 A 
ATOM     16  C   UNL     1       5.262  -0.229  26.083  0.00  0.00    +0.000 A 
ATOM     17  C   UNL     1       6.385  -0.060  27.064  0.00  0.00    +0.000 A 
ATOM     18  C   UNL     1       7.366  -1.199  27.059  0.00  0.00    +0.000 A 
ATOM     19  C   UNL     1       6.847  -2.382  26.229  0.00  0.00    +0.000 A 
ATOM     20  C   UNL     1       8.801  -0.999  27.159  0.00  0.00    +0.000 C 
BRANCH  19  21
ATOM     21  N   UNL     1       6.776  -3.485  27.113  0.00  0.00    +0.000 N 
ATOM     22  C   UNL     1       7.794  -4.489  27.072  0.00  0.00    +0.000 C 
ATOM     23  C   UNL     1       7.251  -5.886  27.045  0.00  0.00    +0.000 C 
ATOM     24  C   UNL     1       5.884  -6.010  27.660  0.00  0.00    +0.000 C 
ATOM     25  C   UNL     1       5.654  -4.925  28.698  0.00  0.00    +0.000 C 
ATOM     26  C   UNL     1       5.684  -3.567  28.051  0.00  0.00    +0.000 C 
ATOM     27  O   UNL     1       5.805  -7.249  28.328  0.00  0.00    +0.000 OA
ENDBRANCH  19  21
ENDBRANCH  13  14
BRANCH  13  28
ATOM     28  C   UNL     1       6.331  -1.396  22.902  0.00  0.00    +0.000 C 
BRANCH  28  29
ATOM     29  C   UNL     1       7.112  -0.331  22.318  0.00  0.00    +0.000 A 
ATOM     30  C   UNL     1       7.741   0.609  23.618  0.00  0.00    +0.000 A 
ATOM     31  N   UNL     1       9.056   0.740  23.287  0.00  0.00    +0.000 NA
ATOM     32  C   UNL     1       9.930   0.621  22.348  0.00  0.00    +0.000 A 
ATOM     33  C   UNL     1       9.512  -0.288  21.114  0.00  0.00    +0.000 A 
ATOM     34  C   UNL     1       7.965  -0.283  21.171  0.00  0.00    +0.000 A 
BRANCH  34  35
ATOM     35  C   UNL     1       7.602   0.559  20.003  0.00  0.00    +0.000 C 
ATOM     36  O   UNL     1       6.530   1.139  20.032  0.00  0.00    +0.000 OA
ATOM     37  O   UNL     1       7.896  -0.186  18.896  0.00  0.00    +0.000 OA
ENDBRANCH  34  35
ENDBRANCH  28  29
ENDBRANCH  13  28
TORSDOF 5
ENDMDL
MODEL 7
REMARK VINA RESULT:      -6.6      2.437      4.380
REMARK  Name = 
REMARK  5 active torsions:
REMARK  status: ('A' for Active; 'I' for Inactive)
REMARK    1  A    between atoms: N_13  and  C_14
REMARK    2  A    between atoms: N_13  and  C_28
REMARK    3  A    between atoms: C_19  and  N_20
REMARK    4  A    between atoms: C_28  and  C_29
REMARK    5  A    between atoms: C_34  and  C_35
REMARK                            x       y       z     vdW  Elec       q    Type
REMARK                         _______ _______ _______ _____ _____    ______ ____
ROOT
ATOM      1  C   UNL     1      10.080   1.993  22.118  0.00  0.00    +0.000 C 
ATOM      2  N   UNL     1       9.878   1.236  23.321  0.00  0.00    +0.000 NA
ATOM      3  C   UNL     1      10.695   0.231  23.678  0.00  0.00    +0.000 C 
ATOM      4  O   UNL     1      11.227   0.238  24.771  0.00  0.00    +0.000 OA
ATOM      5  N   UNL     1      10.122  -0.919  23.199  0.00  0.00    +0.000 N 
ATOM      6  C   UNL     1       9.378  -0.781  21.931  0.00  0.00    +0.000 C 
ATOM      7  C   UNL     1       7.921  -0.478  22.279  0.00  0.00    +0.000 C 
ATOM      8  N   UNL     1       7.424  -1.440  23.261  0.00  0.00    +0.000 N 
ATOM      9  C   UNL     1       8.353  -2.524  23.636  0.00  0.00    +0.000 C 
ATOM     10  C   UNL     1       9.611  -1.861  24.188  0.00  0.00    +0.000 C 
ATOM     11  C   UNL     1       6.639  -0.989  24.269  0.00  0.00    +0.000 C 
ATOM     12  O   UNL     1       5.457  -1.155  24.305  0.00  0.00    +0.000 OA
ATOM     13  N   UNL     1       7.409  -1.027  25.414  0.00  0.00    +0.000 N 
ENDROOT
BRANCH  13  14
ATOM     14  C   UNL     1       7.336   0.334  25.849  0.00  0.00    +0.000 A 
ATOM     15  C   UNL     1       8.073   0.256  27.352  0.00  0.00    +0.000 A 
ATOM     16  C   UNL     1       7.080   0.675  28.382  0.00  0.00    +0.000 A 
ATOM     17  C   UNL     1       5.631   1.064  28.423  0.00  0.00    +0.000 A 
ATOM     18  C   UNL     1       4.984   1.119  27.069  0.00  0.00    +0.000 A 
ATOM     19  C   UNL     1       6.024   1.010  25.945  0.00  0.00    +0.000 A 
ATOM     20  C   UNL     1       3.641   0.625  26.820  0.00  0.00    +0.000 C 
BRANCH  19  21
ATOM     21  N   UNL     1       5.904   2.194  25.179  0.00  0.00    +0.000 N 
ATOM     22  C   UNL     1       5.205   2.160  23.931  0.00  0.00    +0.000 C 
ATOM     23  C   UNL     1       5.950   2.824  22.813  0.00  0.00    +0.000 C 
ATOM     24  C   UNL     1       6.914   3.881  23.280  0.00  0.00    +0.000 C 
ATOM     25  C   UNL     1       6.471   4.473  24.607  0.00  0.00    +0.000 C 
ATOM     26  C   UNL     1       6.478   3.419  25.679  0.00  0.00    +0.000 C 
ATOM     27  O   UNL     1       6.920   4.929  22.336  0.00  0.00    +0.000 OA
ENDBRANCH  19  21
ENDBRANCH  13  14
BRANCH  13  28
ATOM     28  C   UNL     1       7.623  -2.049  26.208  0.00  0.00    +0.000 C 
BRANCH  28  29
ATOM     29  C   UNL     1       6.904  -3.215  26.666  0.00  0.00    +0.000 A 
ATOM     30  C   UNL     1       5.488  -2.654  27.473  0.00  0.00    +0.000 A 
ATOM     31  N   UNL     1       4.506  -3.427  26.931  0.00  0.00    +0.000 NA
ATOM     32  C   UNL     1       4.247  -4.485  26.243  0.00  0.00    +0.000 A 
ATOM     33  C   UNL     1       5.448  -5.071  25.383  0.00  0.00    +0.000 A 
ATOM     34  C   UNL     1       6.705  -4.508  26.090  0.00  0.00    +0.000 A 
BRANCH  34  35
ATOM     35  C   UNL     1       7.274  -5.714  26.743  0.00  0.00    +0.000 C 
ATOM     36  O   UNL     1       7.180  -5.802  27.955  0.00  0.00    +0.000 OA
ATOM     37  O   UNL     1       8.507  -5.899  26.182  0.00  0.00    +0.000 OA
ENDBRANCH  34  35
ENDBRANCH  28  29
ENDBRANCH  13  28
TORSDOF 5
ENDMDL
MODEL 8
REMARK VINA RESULT:      -6.5      3.356      7.207
REMARK  Name = 
REMARK  5 active torsions:
REMARK  status: ('A' for Active; 'I' for Inactive)
REMARK    1  A    between atoms: N_13  and  C_14
REMARK    2  A    between atoms: N_13  and  C_28
REMARK    3  A    between atoms: C_19  and  N_20
REMARK    4  A    between atoms: C_28  and  C_29
REMARK    5  A    between atoms: C_34  and  C_35
REMARK                            x       y       z     vdW  Elec       q    Type
REMARK                         _______ _______ _______ _____ _____    ______ ____
ROOT
ATOM      1  C   UNL     1       2.654  -6.449  29.436  0.00  0.00    +0.000 C 
ATOM      2  N   UNL     1       3.821  -5.697  29.069  0.00  0.00    +0.000 NA
ATOM      3  C   UNL     1       4.402  -4.824  29.909  0.00  0.00    +0.000 C 
ATOM      4  O   UNL     1       5.584  -4.929  30.173  0.00  0.00    +0.000 OA
ATOM      5  N   UNL     1       3.869  -3.595  29.616  0.00  0.00    +0.000 N 
ATOM      6  C   UNL     1       2.462  -3.600  29.167  0.00  0.00    +0.000 C 
ATOM      7  C   UNL     1       2.463  -3.702  27.642  0.00  0.00    +0.000 C 
ATOM      8  N   UNL     1       3.359  -2.702  27.067  0.00  0.00    +0.000 N 
ATOM      9  C   UNL     1       3.988  -1.767  28.021  0.00  0.00    +0.000 C 
ATOM     10  C   UNL     1       4.768  -2.612  29.023  0.00  0.00    +0.000 C 
ATOM     11  C   UNL     1       4.143  -3.060  26.021  0.00  0.00    +0.000 C 
ATOM     12  O   UNL     1       3.925  -2.731  24.894  0.00  0.00    +0.000 OA
ATOM     13  N   UNL     1       5.431  -3.155  26.510  0.00  0.00    +0.000 N 
ENDROOT
BRANCH  13  14
ATOM     14  C   UNL     1       5.766  -4.502  26.161  0.00  0.00    +0.000 A 
ATOM     15  C   UNL     1       7.255  -4.690  26.907  0.00  0.00    +0.000 A 
ATOM     16  C   UNL     1       8.273  -4.974  25.854  0.00  0.00    +0.000 A 
ATOM     17  C   UNL     1       8.315  -5.061  24.356  0.00  0.00    +0.000 A 
ATOM     18  C   UNL     1       6.974  -4.880  23.704  0.00  0.00    +0.000 A 
ATOM     19  C   UNL     1       5.839  -4.901  24.739  0.00  0.00    +0.000 A 
ATOM     20  C   UNL     1       6.789  -4.105  22.490  0.00  0.00    +0.000 C 
BRANCH  19  21
ATOM     21  N   UNL     1       4.991  -5.974  24.376  0.00  0.00    +0.000 N 
ATOM     22  C   UNL     1       4.612  -6.140  23.006  0.00  0.00    +0.000 C 
ATOM     23  C   UNL     1       3.141  -6.363  22.819  0.00  0.00    +0.000 C 
ATOM     24  C   UNL     1       2.468  -6.965  24.022  0.00  0.00    +0.000 C 
ATOM     25  C   UNL     1       3.452  -7.778  24.847  0.00  0.00    +0.000 C 
ATOM     26  C   UNL     1       4.537  -6.890  25.392  0.00  0.00    +0.000 C 
ATOM     27  O   UNL     1       1.465  -7.851  23.577  0.00  0.00    +0.000 OA
ENDBRANCH  19  21
ENDBRANCH  13  14
BRANCH  13  28
ATOM     28  C   UNL     1       6.305  -2.191  26.671  0.00  0.00    +0.000 C 
BRANCH  28  29
ATOM     29  C   UNL     1       6.981  -1.214  25.850  0.00  0.00    +0.000 A 
ATOM     30  C   UNL     1       8.127  -0.410  26.856  0.00  0.00    +0.000 A 
ATOM     31  N   UNL     1       9.261  -0.437  26.102  0.00  0.00    +0.000 NA
ATOM     32  C   UNL     1       9.749  -0.633  24.925  0.00  0.00    +0.000 A 
ATOM     33  C   UNL     1       8.826  -1.435  23.911  0.00  0.00    +0.000 A 
ATOM     34  C   UNL     1       7.402  -1.234  24.483  0.00  0.00    +0.000 A 
BRANCH  34  35
ATOM     35  C   UNL     1       6.785  -0.310  23.497  0.00  0.00    +0.000 C 
ATOM     36  O   UNL     1       7.104  -0.432  22.328  0.00  0.00    +0.000 OA
ATOM     37  O   UNL     1       6.856   0.936  24.054  0.00  0.00    +0.000 OA
ENDBRANCH  34  35
ENDBRANCH  28  29
ENDBRANCH  13  28
TORSDOF 5
ENDMDL
MODEL 9
REMARK VINA RESULT:      -6.4      2.521      7.132
REMARK  Name = 
REMARK  5 active torsions:
REMARK  status: ('A' for Active; 'I' for Inactive)
REMARK    1  A    between atoms: N_13  and  C_14
REMARK    2  A    between atoms: N_13  and  C_28
REMARK    3  A    between atoms: C_19  and  N_20
REMARK    4  A    between atoms: C_28  and  C_29
REMARK    5  A    between atoms: C_34  and  C_35
REMARK                            x       y       z     vdW  Elec       q    Type
REMARK                         _______ _______ _______ _____ _____    ______ ____
ROOT
ATOM      1  C   UNL     1       7.831  -3.748  22.660  0.00  0.00    +0.000 C 
ATOM      2  N   UNL     1       7.389  -2.387  22.538  0.00  0.00    +0.000 NA
ATOM      3  C   UNL     1       7.411  -1.731  21.365  0.00  0.00    +0.000 C 
ATOM      4  O   UNL     1       6.396  -1.215  20.939  0.00  0.00    +0.000 OA
ATOM      5  N   UNL     1       8.599  -1.048  21.328  0.00  0.00    +0.000 N 
ATOM      6  C   UNL     1       9.735  -1.707  22.003  0.00  0.00    +0.000 C 
ATOM      7  C   UNL     1       9.765  -1.211  23.449  0.00  0.00    +0.000 C 
ATOM      8  N   UNL     1       9.702   0.248  23.486  0.00  0.00    +0.000 N 
ATOM      9  C   UNL     1       9.717   0.933  22.179  0.00  0.00    +0.000 C 
ATOM     10  C   UNL     1       8.524   0.407  21.388  0.00  0.00    +0.000 C 
ATOM     11  C   UNL     1       8.928   0.838  24.429  0.00  0.00    +0.000 C 
ATOM     12  O   UNL     1       9.370   1.368  25.404  0.00  0.00    +0.000 OA
ATOM     13  N   UNL     1       7.823   1.340  23.772  0.00  0.00    +0.000 N 
ENDROOT
BRANCH  13  14
ATOM     14  C   UNL     1       6.758   0.696  24.479  0.00  0.00    +0.000 A 
ATOM     15  C   UNL     1       5.416   1.517  23.901  0.00  0.00    +0.000 A 
ATOM     16  C   UNL     1       4.748   2.189  25.053  0.00  0.00    +0.000 A 
ATOM     17  C   UNL     1       4.999   2.369  26.521  0.00  0.00    +0.000 A 
ATOM     18  C   UNL     1       6.211   1.635  27.020  0.00  0.00    +0.000 A 
ATOM     19  C   UNL     1       6.760   0.671  25.957  0.00  0.00    +0.000 A 
ATOM     20  C   UNL     1       7.139   2.211  27.977  0.00  0.00    +0.000 C 
BRANCH  19  21
ATOM     21  N   UNL     1       6.715  -0.620  26.534  0.00  0.00    +0.000 N 
ATOM     22  C   UNL     1       7.936  -1.292  26.857  0.00  0.00    +0.000 C 
ATOM     23  C   UNL     1       7.980  -2.711  26.377  0.00  0.00    +0.000 C 
ATOM     24  C   UNL     1       6.619  -3.334  26.223  0.00  0.00    +0.000 C 
ATOM     25  C   UNL     1       5.613  -2.680  27.155  0.00  0.00    +0.000 C 
ATOM     26  C   UNL     1       5.435  -1.230  26.798  0.00  0.00    +0.000 C 
ATOM     27  O   UNL     1       6.706  -4.693  26.591  0.00  0.00    +0.000 OA
ENDBRANCH  19  21
ENDBRANCH  13  14
BRANCH  13  28
ATOM     28  C   UNL     1       7.710   2.486  23.144  0.00  0.00    +0.000 C 
BRANCH  28  29
ATOM     29  C   UNL     1       7.713   3.891  23.477  0.00  0.00    +0.000 A 
ATOM     30  C   UNL     1       6.390   4.614  22.643  0.00  0.00    +0.000 A 
ATOM     31  N   UNL     1       5.787   5.353  23.616  0.00  0.00    +0.000 NA
ATOM     32  C   UNL     1       5.912   5.859  24.794  0.00  0.00    +0.000 A 
ATOM     33  C   UNL     1       7.050   5.231  25.708  0.00  0.00    +0.000 A 
ATOM     34  C   UNL     1       8.020   4.591  24.686  0.00  0.00    +0.000 A 
BRANCH  34  35
ATOM     35  C   UNL     1       9.197   5.496  24.748  0.00  0.00    +0.000 C 
ATOM     36  O   UNL     1      10.198   5.168  24.136  0.00  0.00    +0.000 OA
ATOM     37  O   UNL     1       9.336   5.843  26.062  0.00  0.00    +0.000 OA
ENDBRANCH  34  35
ENDBRANCH  28  29
ENDBRANCH  13  28
TORSDOF 5
ENDMDL
