MODEL 1
REMARK VINA RESULT:      -8.8      0.000      0.000
REMARK  Name = 
REMARK  4 active torsions:
REMARK  status: ('A' for Active; 'I' for Inactive)
REMARK    1  A    between atoms: N_8  and  C_11
REMARK    2  A    between atoms: C_15  and  C_17
REMARK    3  A    between atoms: C_22  and  C_23
REMARK    4  A    between atoms: C_23  and  N_24
REMARK                            x       y       z     vdW  Elec       q    Type
REMARK                         _______ _______ _______ _____ _____    ______ ____
ROOT
ATOM      1  C   UNL     1       8.193  -4.538  23.973  0.00  0.00    +0.000 C 
ATOM      2  C   UNL     1       7.456  -5.243  24.896  0.00  0.00    +0.000 C 
ATOM      3  C   UNL     1       6.890  -4.809  26.331  0.00  0.00    +0.000 C 
ATOM      4  C   UNL     1       8.130  -3.701  26.473  0.00  0.00    +0.000 C 
ATOM      5  C   UNL     1       8.186  -2.861  25.212  0.00  0.00    +0.000 C 
ATOM      6  N   UNL     1       8.870  -3.335  24.149  0.00  0.00    +0.000 NA
ATOM      7  O   UNL     1       9.239  -4.559  26.497  0.00  0.00    +0.000 OA
ENDROOT
BRANCH   1  15
ATOM      8  C   UNL     1       1.939  -5.230  23.431  0.00  0.00    +0.000 C 
ATOM      9  N   UNL     1       3.269  -4.663  23.343  0.00  0.00    +0.000 NA
ATOM     10  C   UNL     1       4.337  -5.476  23.201  0.00  0.00    +0.000 C 
ATOM     11  O   UNL     1       4.248  -6.667  23.412  0.00  0.00    +0.000 OA
ATOM     12  N   UNL     1       5.149  -4.986  22.259  0.00  0.00    +0.000 N 
ATOM     13  C   UNL     1       6.062  -5.806  21.527  0.00  0.00    +0.000 C 
ATOM     14  C   UNL     1       7.501  -5.554  21.866  0.00  0.00    +0.000 C 
ATOM     15  N   UNL     1       7.676  -4.432  22.746  0.00  0.00    +0.000 N 
ATOM     16  C   UNL     1       6.817  -3.328  22.533  0.00  0.00    +0.000 C 
ATOM     17  C   UNL     1       5.427  -3.672  22.513  0.00  0.00    +0.000 C 
ENDBRANCH   1  15
BRANCH   5  18
ATOM     18  C   UNL     1       8.439  -1.427  25.394  0.00  0.00    +0.000 C 
ATOM     19  C   UNL     1       8.722  -0.879  26.644  0.00  0.00    +0.000 C 
ATOM     20  C   UNL     1       7.648  -0.127  27.591  0.00  0.00    +0.000 C 
ATOM     21  C   UNL     1       6.744   0.387  26.458  0.00  0.00    +0.000 C 
ATOM     22  C   UNL     1       6.806   0.266  25.044  0.00  0.00    +0.000 C 
ATOM     23  C   UNL     1       7.752  -0.577  24.207  0.00  0.00    +0.000 C 
ATOM     24  F   UNL     1       5.510   0.446  27.034  0.00  0.00    +0.000 F 
BRANCH  23  25
ATOM     25  C   UNL     1       8.817   0.214  23.565  0.00  0.00    +0.000 C 
BRANCH  25  26
ATOM     26  N   UNL     1       8.611   0.685  22.271  0.00  0.00    +0.000 NA
ATOM     27  C   UNL     1       7.276   1.153  22.112  0.00  0.00    +0.000 C 
ATOM     28  C   UNL     1       7.111   1.763  20.715  0.00  0.00    +0.000 C 
ATOM     29  N   UNL     1       7.257   0.651  19.757  0.00  0.00    +0.000 N 
ATOM     30  C   UNL     1       7.939  -0.543  20.253  0.00  0.00    +0.000 C 
ATOM     31  C   UNL     1       9.003  -0.165  21.244  0.00  0.00    +0.000 C 
ATOM     32  C   UNL     1       6.286   0.492  18.829  0.00  0.00    +0.000 C 
ATOM     33  O   UNL     1       6.449  -0.229  17.872  0.00  0.00    +0.000 OA
ATOM     34  C   UNL     1       4.958   1.143  19.131  0.00  0.00    +0.000 C 
ENDBRANCH  25  26
ENDBRANCH  23  25
ENDBRANCH   5  18
TORSDOF 4
ENDMDL
MODEL 2
REMARK VINA RESULT:      -8.7      2.487      6.630
REMARK  Name = 
REMARK  4 active torsions:
REMARK  status: ('A' for Active; 'I' for Inactive)
REMARK    1  A    between atoms: N_8  and  C_11
REMARK    2  A    between atoms: C_15  and  C_17
REMARK    3  A    between atoms: C_22  and  C_23
REMARK    4  A    between atoms: C_23  and  N_24
REMARK                            x       y       z     vdW  Elec       q    Type
REMARK                         _______ _______ _______ _____ _____    ______ ____
ROOT
ATOM      1  C   UNL     1       5.952   1.105  24.787  0.00  0.00    +0.000 C 
ATOM      2  C   UNL     1       5.571   1.074  26.108  0.00  0.00    +0.000 C 
ATOM      3  C   UNL     1       6.292   0.432  27.387  0.00  0.00    +0.000 C 
ATOM      4  C   UNL     1       7.042  -0.679  26.393  0.00  0.00    +0.000 C 
ATOM      5  C   UNL     1       7.695   0.055  25.240  0.00  0.00    +0.000 C 
ATOM      6  N   UNL     1       6.945   0.360  24.159  0.00  0.00    +0.000 NA
ATOM      7  O   UNL     1       5.929  -1.384  25.913  0.00  0.00    +0.000 OA
ENDROOT
BRANCH   1  15
ATOM      8  C   UNL     1       5.704   1.336  18.480  0.00  0.00    +0.000 C 
ATOM      9  N   UNL     1       5.403   1.587  19.875  0.00  0.00    +0.000 NA
ATOM     10  C   UNL     1       6.393   1.547  20.792  0.00  0.00    +0.000 C 
ATOM     11  O   UNL     1       7.467   1.049  20.531  0.00  0.00    +0.000 OA
ATOM     12  N   UNL     1       6.283   2.597  21.613  0.00  0.00    +0.000 N 
ATOM     13  C   UNL     1       7.393   3.124  22.342  0.00  0.00    +0.000 C 
ATOM     14  C   UNL     1       7.311   2.885  23.820  0.00  0.00    +0.000 C 
ATOM     15  N   UNL     1       6.056   2.310  24.220  0.00  0.00    +0.000 N 
ATOM     16  C   UNL     1       4.908   2.769  23.534  0.00  0.00    +0.000 C 
ATOM     17  C   UNL     1       5.011   2.678  22.108  0.00  0.00    +0.000 C 
ENDBRANCH   1  15
BRANCH   5  18
ATOM     18  C   UNL     1       9.022  -0.420  24.831  0.00  0.00    +0.000 C 
ATOM     19  C   UNL     1      10.173   0.338  25.039  0.00  0.00    +0.000 C 
ATOM     20  C   UNL     1      10.894   1.256  23.918  0.00  0.00    +0.000 C 
ATOM     21  C   UNL     1      10.452   0.426  22.701  0.00  0.00    +0.000 C 
ATOM     22  C   UNL     1       9.676  -0.757  22.571  0.00  0.00    +0.000 C 
ATOM     23  C   UNL     1       8.895  -1.500  23.640  0.00  0.00    +0.000 C 
ATOM     24  F   UNL     1      10.378   1.344  21.696  0.00  0.00    +0.000 F 
BRANCH  23  25
ATOM     25  C   UNL     1       9.565  -2.731  24.095  0.00  0.00    +0.000 C 
BRANCH  25  26
ATOM     26  N   UNL     1       8.833  -3.915  24.132  0.00  0.00    +0.000 NA
ATOM     27  C   UNL     1       7.448  -3.657  23.923  0.00  0.00    +0.000 C 
ATOM     28  C   UNL     1       6.684  -4.985  23.862  0.00  0.00    +0.000 C 
ATOM     29  N   UNL     1       6.777  -5.581  25.207  0.00  0.00    +0.000 N 
ATOM     30  C   UNL     1       7.860  -5.088  26.058  0.00  0.00    +0.000 C 
ATOM     31  C   UNL     1       9.062  -4.739  25.227  0.00  0.00    +0.000 C 
ATOM     32  C   UNL     1       5.626  -5.971  25.801  0.00  0.00    +0.000 C 
ATOM     33  O   UNL     1       5.638  -6.679  26.781  0.00  0.00    +0.000 OA
ATOM     34  C   UNL     1       4.356  -5.361  25.263  0.00  0.00    +0.000 C 
ENDBRANCH  25  26
ENDBRANCH  23  25
ENDBRANCH   5  18
TORSDOF 4
ENDMDL
MODEL 3
REMARK VINA RESULT:      -8.5      3.368      7.414
REMARK  Name = 
REMARK  4 active torsions:
REMARK  status: ('A' for Active; 'I' for Inactive)
REMARK    1  A    between atoms: N_8  and  C_11
REMARK    2  A    between atoms: C_15  and  C_17
REMARK    3  A    between atoms: C_22  and  C_23
REMARK    4  A    between atoms: C_23  and  N_24
REMARK                            x       y       z     vdW  Elec       q    Type
REMARK                         _______ _______ _______ _____ _____    ______ ____
ROOT
ATOM      1  C   UNL     1       7.758   2.002  24.017  0.00  0.00    +0.000 C 
ATOM      2  C   UNL     1       8.984   2.220  24.601  0.00  0.00    +0.000 C 
ATOM      3  C   UNL     1      10.362   1.414  24.466  0.00  0.00    +0.000 C 
ATOM      4  C   UNL     1       9.504   0.029  24.107  0.00  0.00    +0.000 C 
ATOM      5  C   UNL     1       8.507   0.339  23.008  0.00  0.00    +0.000 C 
ATOM      6  N   UNL     1       7.311   0.866  23.349  0.00  0.00    +0.000 NA
ATOM      7  O   UNL     1       8.810  -0.162  25.310  0.00  0.00    +0.000 OA
ENDROOT
BRANCH   1  15
ATOM      8  C   UNL     1       2.337   4.502  26.080  0.00  0.00    +0.000 C 
ATOM      9  N   UNL     1       3.714   4.380  25.645  0.00  0.00    +0.000 NA
ATOM     10  C   UNL     1       4.048   3.443  24.733  0.00  0.00    +0.000 C 
ATOM     11  O   UNL     1       3.293   2.532  24.467  0.00  0.00    +0.000 OA
ATOM     12  N   UNL     1       4.853   3.984  23.812  0.00  0.00    +0.000 N 
ATOM     13  C   UNL     1       4.980   3.451  22.493  0.00  0.00    +0.000 C 
ATOM     14  C   UNL     1       6.313   2.815  22.227  0.00  0.00    +0.000 C 
ATOM     15  N   UNL     1       7.244   3.008  23.304  0.00  0.00    +0.000 N 
ATOM     16  C   UNL     1       7.200   4.264  23.954  0.00  0.00    +0.000 C 
ATOM     17  C   UNL     1       5.894   4.630  24.417  0.00  0.00    +0.000 C 
ENDBRANCH   1  15
BRANCH   5  18
ATOM     18  C   UNL     1       8.344  -0.683  21.966  0.00  0.00    +0.000 C 
ATOM     19  C   UNL     1       8.748  -0.465  20.650  0.00  0.00    +0.000 C 
ATOM     20  C   UNL     1       7.767  -0.032  19.439  0.00  0.00    +0.000 C 
ATOM     21  C   UNL     1       6.497  -0.695  19.996  0.00  0.00    +0.000 C 
ATOM     22  C   UNL     1       6.238  -1.448  21.173  0.00  0.00    +0.000 C 
ATOM     23  C   UNL     1       7.157  -1.703  22.355  0.00  0.00    +0.000 C 
ATOM     24  F   UNL     1       5.489   0.082  19.509  0.00  0.00    +0.000 F 
BRANCH  23  25
ATOM     25  C   UNL     1       7.732  -3.059  22.359  0.00  0.00    +0.000 C 
BRANCH  25  26
ATOM     26  N   UNL     1       7.199  -4.008  23.228  0.00  0.00    +0.000 NA
ATOM     27  C   UNL     1       6.382  -3.384  24.214  0.00  0.00    +0.000 C 
ATOM     28  C   UNL     1       5.725  -4.459  25.088  0.00  0.00    +0.000 C 
ATOM     29  N   UNL     1       6.816  -5.113  25.833  0.00  0.00    +0.000 N 
ATOM     30  C   UNL     1       8.160  -4.959  25.278  0.00  0.00    +0.000 C 
ATOM     31  C   UNL     1       8.104  -4.908  23.777  0.00  0.00    +0.000 C 
ATOM     32  C   UNL     1       6.688  -5.208  27.177  0.00  0.00    +0.000 C 
ATOM     33  O   UNL     1       7.408  -5.934  27.823  0.00  0.00    +0.000 OA
ATOM     34  C   UNL     1       5.707  -4.263  27.824  0.00  0.00    +0.000 C 
ENDBRANCH  25  26
ENDBRANCH  23  25
ENDBRANCH   5  18
TORSDOF 4
ENDMDL
MODEL 4
REMARK VINA RESULT:      -8.5      3.308      7.683
REMARK  Name = 
REMARK  4 active torsions:
REMARK  status: ('A' for Active; 'I' for Inactive)
REMARK    1  A    between atoms: N_8  and  C_11
REMARK    2  A    between atoms: C_15  and  C_17
REMARK    3  A    between atoms: C_22  and  C_23
REMARK    4  A    between atoms: C_23  and  N_24
REMARK                            x       y       z     vdW  Elec       q    Type
REMARK                         _______ _______ _______ _____ _____    ______ ____
ROOT
ATOM      1  C   UNL     1       5.769   1.137  24.739  0.00  0.00    +0.000 C 
ATOM      2  C   UNL     1       5.930   1.441  26.071  0.00  0.00    +0.000 C 
ATOM      3  C   UNL     1       7.146   1.141  27.069  0.00  0.00    +0.000 C 
ATOM      4  C   UNL     1       7.563  -0.186  26.147  0.00  0.00    +0.000 C 
ATOM      5  C   UNL     1       7.647   0.233  24.693  0.00  0.00    +0.000 C 
ATOM      6  N   UNL     1       6.513   0.257  23.960  0.00  0.00    +0.000 NA
ATOM      7  O   UNL     1       6.426  -0.988  26.325  0.00  0.00    +0.000 OA
ENDROOT
BRANCH   1  15
ATOM      8  C   UNL     1      10.430   5.322  23.933  0.00  0.00    +0.000 C 
ATOM      9  N   UNL     1       9.401   4.343  23.648  0.00  0.00    +0.000 NA
ATOM     10  C   UNL     1       8.309   4.268  24.438  0.00  0.00    +0.000 C 
ATOM     11  O   UNL     1       8.285   4.807  25.524  0.00  0.00    +0.000 OA
ATOM     12  N   UNL     1       7.214   4.169  23.676  0.00  0.00    +0.000 N 
ATOM     13  C   UNL     1       5.920   4.564  24.133  0.00  0.00    +0.000 C 
ATOM     14  C   UNL     1       4.983   3.414  24.355  0.00  0.00    +0.000 C 
ATOM     15  N   UNL     1       5.529   2.161  23.914  0.00  0.00    +0.000 N 
ATOM     16  C   UNL     1       6.306   2.195  22.733  0.00  0.00    +0.000 C 
ATOM     17  C   UNL     1       7.364   3.161  22.765  0.00  0.00    +0.000 C 
ENDBRANCH   1  15
BRANCH   5  18
ATOM     18  C   UNL     1       8.755  -0.331  23.914  0.00  0.00    +0.000 C 
ATOM     19  C   UNL     1       9.788   0.463  23.419  0.00  0.00    +0.000 C 
ATOM     20  C   UNL     1       9.886   1.016  21.901  0.00  0.00    +0.000 C 
ATOM     21  C   UNL     1       9.111  -0.137  21.243  0.00  0.00    +0.000 C 
ATOM     22  C   UNL     1       8.505  -1.312  21.763  0.00  0.00    +0.000 C 
ATOM     23  C   UNL     1       8.309  -1.714  23.214  0.00  0.00    +0.000 C 
ATOM     24  F   UNL     1       8.531   0.445  20.155  0.00  0.00    +0.000 F 
BRANCH  23  25
ATOM     25  C   UNL     1       9.255  -2.752  23.659  0.00  0.00    +0.000 C 
BRANCH  25  26
ATOM     26  N   UNL     1       8.747  -3.928  24.206  0.00  0.00    +0.000 NA
ATOM     27  C   UNL     1       7.355  -3.796  24.478  0.00  0.00    +0.000 C 
ATOM     28  C   UNL     1       6.803  -5.137  24.977  0.00  0.00    +0.000 C 
ATOM     29  N   UNL     1       7.439  -5.388  26.283  0.00  0.00    +0.000 N 
ATOM     30  C   UNL     1       8.675  -4.653  26.552  0.00  0.00    +0.000 C 
ATOM     31  C   UNL     1       9.453  -4.454  25.281  0.00  0.00    +0.000 C 
ATOM     32  C   UNL     1       6.632  -5.682  27.328  0.00  0.00    +0.000 C 
ATOM     33  O   UNL     1       7.080  -6.133  28.356  0.00  0.00    +0.000 OA
ATOM     34  C   UNL     1       5.184  -5.282  27.187  0.00  0.00    +0.000 C 
ENDBRANCH  25  26
ENDBRANCH  23  25
ENDBRANCH   5  18
TORSDOF 4
ENDMDL
MODEL 5
REMARK VINA RESULT:      -8.1      2.417      6.625
REMARK  Name = 
REMARK  4 active torsions:
REMARK  status: ('A' for Active; 'I' for Inactive)
REMARK    1  A    between atoms: N_8  and  C_11
REMARK    2  A    between atoms: C_15  and  C_17
REMARK    3  A    between atoms: C_22  and  C_23
REMARK    4  A    between atoms: C_23  and  N_24
REMARK                            x       y       z     vdW  Elec       q    Type
REMARK                         _______ _______ _______ _____ _____    ______ ____
ROOT
ATOM      1  C   UNL     1       8.260   0.911  24.184  0.00  0.00    +0.000 C 
ATOM      2  C   UNL     1       8.243   2.257  23.899  0.00  0.00    +0.000 C 
ATOM      3  C   UNL     1       8.124   3.025  22.498  0.00  0.00    +0.000 C 
ATOM      4  C   UNL     1       8.804   1.709  21.731  0.00  0.00    +0.000 C 
ATOM      5  C   UNL     1       8.067   0.456  22.159  0.00  0.00    +0.000 C 
ATOM      6  N   UNL     1       8.438  -0.153  23.306  0.00  0.00    +0.000 NA
ATOM      7  O   UNL     1      10.081   1.706  22.309  0.00  0.00    +0.000 OA
ENDROOT
BRANCH   1  15
ATOM      8  C   UNL     1       9.134  -4.848  26.624  0.00  0.00    +0.000 C 
ATOM      9  N   UNL     1       8.916  -3.419  26.524  0.00  0.00    +0.000 NA
ATOM     10  C   UNL     1       8.222  -2.918  25.480  0.00  0.00    +0.000 C 
ATOM     11  O   UNL     1       8.006  -3.589  24.494  0.00  0.00    +0.000 OA
ATOM     12  N   UNL     1       7.344  -2.012  25.923  0.00  0.00    +0.000 N 
ATOM     13  C   UNL     1       6.158  -1.673  25.202  0.00  0.00    +0.000 C 
ATOM     14  C   UNL     1       6.182  -0.292  24.619  0.00  0.00    +0.000 C 
ATOM     15  N   UNL     1       7.330   0.466  25.034  0.00  0.00    +0.000 N 
ATOM     16  C   UNL     1       7.757   0.277  26.369  0.00  0.00    +0.000 C 
ATOM     17  C   UNL     1       7.973  -1.096  26.719  0.00  0.00    +0.000 C 
ENDBRANCH   1  15
BRANCH   5  18
ATOM     18  C   UNL     1       7.799  -0.536  21.110  0.00  0.00    +0.000 C 
ATOM     19  C   UNL     1       8.291  -0.390  19.814  0.00  0.00    +0.000 C 
ATOM     20  C   UNL     1       7.443   0.179  18.559  0.00  0.00    +0.000 C 
ATOM     21  C   UNL     1       6.063  -0.281  19.056  0.00  0.00    +0.000 C 
ATOM     22  C   UNL     1       5.640  -0.979  20.219  0.00  0.00    +0.000 C 
ATOM     23  C   UNL     1       6.454  -1.362  21.443  0.00  0.00    +0.000 C 
ATOM     24  F   UNL     1       5.208   0.637  18.524  0.00  0.00    +0.000 F 
BRANCH  23  25
ATOM     25  C   UNL     1       6.816  -2.790  21.472  0.00  0.00    +0.000 C 
BRANCH  25  26
ATOM     26  N   UNL     1       5.811  -3.729  21.690  0.00  0.00    +0.000 NA
ATOM     27  C   UNL     1       5.124  -3.457  22.908  0.00  0.00    +0.000 C 
ATOM     28  C   UNL     1       3.958  -4.440  23.066  0.00  0.00    +0.000 C 
ATOM     29  N   UNL     1       4.560  -5.775  23.240  0.00  0.00    +0.000 N 
ATOM     30  C   UNL     1       5.939  -5.926  22.780  0.00  0.00    +0.000 C 
ATOM     31  C   UNL     1       6.188  -5.062  21.576  0.00  0.00    +0.000 C 
ATOM     32  C   UNL     1       4.157  -6.510  24.301  0.00  0.00    +0.000 C 
ATOM     33  O   UNL     1       4.414  -7.690  24.377  0.00  0.00    +0.000 OA
ATOM     34  C   UNL     1       3.507  -5.753  25.432  0.00  0.00    +0.000 C 
ENDBRANCH  25  26
ENDBRANCH  23  25
ENDBRANCH   5  18
TORSDOF 4
ENDMDL
MODEL 6
REMARK VINA RESULT:      -8.0      2.561      7.073
REMARK  Name = 
REMARK  4 active torsions:
REMARK  status: ('A' for Active; 'I' for Inactive)
REMARK    1  A    between atoms: N_8  and  C_11
REMARK    2  A    between atoms: C_15  and  C_17
REMARK    3  A    between atoms: C_22  and  C_23
REMARK    4  A    between atoms: C_23  and  N_24
REMARK                            x       y       z     vdW  Elec       q    Type
REMARK                         _______ _______ _______ _____ _____    ______ ____
ROOT
ATOM      1  C   UNL     1       8.504   2.233  22.895  0.00  0.00    +0.000 C 
ATOM      2  C   UNL     1       7.353   2.615  23.546  0.00  0.00    +0.000 C 
ATOM      3  C   UNL     1       5.844   2.100  23.385  0.00  0.00    +0.000 C 
ATOM      4  C   UNL     1       6.169   1.675  21.804  0.00  0.00    +0.000 C 
ATOM      5  C   UNL     1       7.434   0.842  21.769  0.00  0.00    +0.000 C 
ATOM      6  N   UNL     1       8.626   1.477  21.734  0.00  0.00    +0.000 NA
ATOM      7  O   UNL     1       6.438   2.935  21.251  0.00  0.00    +0.000 OA
ENDROOT
BRANCH   1  15
ATOM      8  C   UNL     1       8.766  -3.968  24.064  0.00  0.00    +0.000 C 
ATOM      9  N   UNL     1       9.142  -2.634  23.639  0.00  0.00    +0.000 NA
ATOM     10  C   UNL     1       8.648  -1.559  24.288  0.00  0.00    +0.000 C 
ATOM     11  O   UNL     1       7.699  -1.663  25.037  0.00  0.00    +0.000 OA
ATOM     12  N   UNL     1       9.633  -0.684  24.515  0.00  0.00    +0.000 N 
ATOM     13  C   UNL     1       9.580   0.279  25.570  0.00  0.00    +0.000 C 
ATOM     14  C   UNL     1       9.423   1.690  25.089  0.00  0.00    +0.000 C 
ATOM     15  N   UNL     1       9.511   1.803  23.659  0.00  0.00    +0.000 N 
ATOM     16  C   UNL     1      10.452   0.961  23.021  0.00  0.00    +0.000 C 
ATOM     17  C   UNL     1      10.309  -0.425  23.356  0.00  0.00    +0.000 C 
ENDBRANCH   1  15
BRANCH   5  18
ATOM     18  C   UNL     1       7.434  -0.309  20.858  0.00  0.00    +0.000 C 
ATOM     19  C   UNL     1       8.160  -0.309  19.669  0.00  0.00    +0.000 C 
ATOM     20  C   UNL     1       7.541  -0.002  18.206  0.00  0.00    +0.000 C 
ATOM     21  C   UNL     1       6.120  -0.502  18.507  0.00  0.00    +0.000 C 
ATOM     22  C   UNL     1       5.519  -1.060  19.667  0.00  0.00    +0.000 C 
ATOM     23  C   UNL     1       6.099  -1.192  21.064  0.00  0.00    +0.000 C 
ATOM     24  F   UNL     1       5.333   0.252  17.688  0.00  0.00    +0.000 F 
BRANCH  23  25
ATOM     25  C   UNL     1       6.531  -2.564  21.384  0.00  0.00    +0.000 C 
BRANCH  25  26
ATOM     26  N   UNL     1       5.563  -3.504  21.730  0.00  0.00    +0.000 NA
ATOM     27  C   UNL     1       5.094  -3.277  23.056  0.00  0.00    +0.000 C 
ATOM     28  C   UNL     1       3.956  -4.257  23.369  0.00  0.00    +0.000 C 
ATOM     29  N   UNL     1       4.560  -5.602  23.387  0.00  0.00    +0.000 N 
ATOM     30  C   UNL     1       5.840  -5.745  22.696  0.00  0.00    +0.000 C 
ATOM     31  C   UNL     1       5.896  -4.833  21.502  0.00  0.00    +0.000 C 
ATOM     32  C   UNL     1       4.330  -6.378  24.471  0.00  0.00    +0.000 C 
ATOM     33  O   UNL     1       4.579  -7.561  24.457  0.00  0.00    +0.000 OA
ATOM     34  C   UNL     1       3.889  -5.662  25.724  0.00  0.00    +0.000 C 
ENDBRANCH  25  26
ENDBRANCH  23  25
ENDBRANCH   5  18
TORSDOF 4
ENDMDL
MODEL 7
REMARK VINA RESULT:      -7.9      3.286      7.704
REMARK  Name = 
REMARK  4 active torsions:
REMARK  status: ('A' for Active; 'I' for Inactive)
REMARK    1  A    between atoms: N_8  and  C_11
REMARK    2  A    between atoms: C_15  and  C_17
REMARK    3  A    between atoms: C_22  and  C_23
REMARK    4  A    between atoms: C_23  and  N_24
REMARK                            x       y       z     vdW  Elec       q    Type
REMARK                         _______ _______ _______ _____ _____    ______ ____
ROOT
ATOM      1  C   UNL     1       7.436  -1.461  23.735  0.00  0.00    +0.000 C 
ATOM      2  C   UNL     1       8.127  -1.123  24.876  0.00  0.00    +0.000 C 
ATOM      3  C   UNL     1       8.550  -2.011  26.141  0.00  0.00    +0.000 C 
ATOM      4  C   UNL     1       7.250  -3.017  25.855  0.00  0.00    +0.000 C 
ATOM      5  C   UNL     1       7.258  -3.430  24.397  0.00  0.00    +0.000 C 
ATOM      6  N   UNL     1       6.689  -2.609  23.489  0.00  0.00    +0.000 NA
ATOM      7  O   UNL     1       6.186  -2.130  26.071  0.00  0.00    +0.000 OA
ENDROOT
BRANCH   1  15
ATOM      8  C   UNL     1      11.097   3.675  23.402  0.00  0.00    +0.000 C 
ATOM      9  N   UNL     1      10.661   2.294  23.342  0.00  0.00    +0.000 NA
ATOM     10  C   UNL     1       9.384   2.007  23.013  0.00  0.00    +0.000 C 
ATOM     11  O   UNL     1       8.527   2.866  23.027  0.00  0.00    +0.000 OA
ATOM     12  N   UNL     1       9.366   1.007  22.126  0.00  0.00    +0.000 N 
ATOM     13  C   UNL     1       8.279   0.799  21.222  0.00  0.00    +0.000 C 
ATOM     14  C   UNL     1       7.471  -0.427  21.526  0.00  0.00    +0.000 C 
ATOM     15  N   UNL     1       8.047  -1.227  22.571  0.00  0.00    +0.000 N 
ATOM     16  C   UNL     1       9.459  -1.313  22.589  0.00  0.00    +0.000 C 
ATOM     17  C   UNL     1      10.117  -0.040  22.581  0.00  0.00    +0.000 C 
ENDBRANCH   1  15
BRANCH   5  18
ATOM     18  C   UNL     1       6.922  -4.830  24.112  0.00  0.00    +0.000 C 
ATOM     19  C   UNL     1       7.771  -5.660  23.383  0.00  0.00    +0.000 C 
ATOM     20  C   UNL     1       7.610  -6.000  21.810  0.00  0.00    +0.000 C 
ATOM     21  C   UNL     1       6.082  -5.837  21.751  0.00  0.00    +0.000 C 
ATOM     22  C   UNL     1       5.109  -5.506  22.731  0.00  0.00    +0.000 C 
ATOM     23  C   UNL     1       5.324  -5.048  24.163  0.00  0.00    +0.000 C 
ATOM     24  F   UNL     1       5.851  -5.433  20.470  0.00  0.00    +0.000 F 
BRANCH  23  25
ATOM     25  C   UNL     1       5.061  -6.107  25.154  0.00  0.00    +0.000 C 
BRANCH  25  26
ATOM     26  N   UNL     1       4.344  -5.782  26.303  0.00  0.00    +0.000 NA
ATOM     27  C   UNL     1       3.753  -4.492  26.180  0.00  0.00    +0.000 C 
ATOM     28  C   UNL     1       2.884  -4.209  27.410  0.00  0.00    +0.000 C 
ATOM     29  N   UNL     1       3.806  -4.114  28.557  0.00  0.00    +0.000 N 
ATOM     30  C   UNL     1       5.121  -4.729  28.381  0.00  0.00    +0.000 C 
ATOM     31  C   UNL     1       5.016  -5.948  27.508  0.00  0.00    +0.000 C 
ATOM     32  C   UNL     1       3.715  -3.019  29.346  0.00  0.00    +0.000 C 
ATOM     33  O   UNL     1       4.256  -2.981  30.427  0.00  0.00    +0.000 OA
ATOM     34  C   UNL     1       3.032  -1.816  28.743  0.00  0.00    +0.000 C 
ENDBRANCH  25  26
ENDBRANCH  23  25
ENDBRANCH   5  18
TORSDOF 4
ENDMDL
MODEL 8
REMARK VINA RESULT:      -7.9      3.387      6.088
REMARK  Name = 
REMARK  4 active torsions:
REMARK  status: ('A' for Active; 'I' for Inactive)
REMARK    1  A    between atoms: N_8  and  C_11
REMARK    2  A    between atoms: C_15  and  C_17
REMARK    3  A    between atoms: C_22  and  C_23
REMARK    4  A    between atoms: C_23  and  N_24
REMARK                            x       y       z     vdW  Elec       q    Type
REMARK                         _______ _______ _______ _____ _____    ______ ____
ROOT
ATOM      1  C   UNL     1       5.277  -0.060  25.317  0.00  0.00    +0.000 C 
ATOM      2  C   UNL     1       4.830   0.035  26.615  0.00  0.00    +0.000 C 
ATOM      3  C   UNL     1       4.859  -1.033  27.809  0.00  0.00    +0.000 C 
ATOM      4  C   UNL     1       4.845  -2.270  26.688  0.00  0.00    +0.000 C 
ATOM      5  C   UNL     1       5.925  -2.012  25.657  0.00  0.00    +0.000 C 
ATOM      6  N   UNL     1       5.644  -1.203  24.613  0.00  0.00    +0.000 NA
ATOM      7  O   UNL     1       3.591  -2.064  26.095  0.00  0.00    +0.000 OA
ENDROOT
BRANCH   1  15
ATOM      8  C   UNL     1       3.031   5.602  23.649  0.00  0.00    +0.000 C 
ATOM      9  N   UNL     1       3.800   4.575  24.323  0.00  0.00    +0.000 NA
ATOM     10  C   UNL     1       4.138   3.448  23.662  0.00  0.00    +0.000 C 
ATOM     11  O   UNL     1       3.598   3.150  22.617  0.00  0.00    +0.000 OA
ATOM     12  N   UNL     1       5.422   3.161  23.899  0.00  0.00    +0.000 N 
ATOM     13  C   UNL     1       6.213   2.373  23.006  0.00  0.00    +0.000 C 
ATOM     14  C   UNL     1       6.567   1.022  23.551  0.00  0.00    +0.000 C 
ATOM     15  N   UNL     1       6.169   0.853  24.921  0.00  0.00    +0.000 N 
ATOM     16  C   UNL     1       6.302   1.986  25.757  0.00  0.00    +0.000 C 
ATOM     17  C   UNL     1       5.665   3.162  25.244  0.00  0.00    +0.000 C 
ENDBRANCH   1  15
BRANCH   5  18
ATOM     18  C   UNL     1       6.698  -3.179  25.214  0.00  0.00    +0.000 C 
ATOM     19  C   UNL     1       6.092  -4.403  24.938  0.00  0.00    +0.000 C 
ATOM     20  C   UNL     1       6.040  -5.662  25.953  0.00  0.00    +0.000 C 
ATOM     21  C   UNL     1       7.346  -5.341  26.698  0.00  0.00    +0.000 C 
ATOM     22  C   UNL     1       8.303  -4.300  26.562  0.00  0.00    +0.000 C 
ATOM     23  C   UNL     1       8.233  -3.056  25.694  0.00  0.00    +0.000 C 
ATOM     24  F   UNL     1       7.136  -5.848  27.946  0.00  0.00    +0.000 F 
BRANCH  23  25
ATOM     25  C   UNL     1       9.074  -3.145  24.487  0.00  0.00    +0.000 C 
BRANCH  25  26
ATOM     26  N   UNL     1       9.918  -2.080  24.182  0.00  0.00    +0.000 NA
ATOM     27  C   UNL     1       9.547  -0.918  24.916  0.00  0.00    +0.000 C 
ATOM     28  C   UNL     1      10.556   0.203  24.642  0.00  0.00    +0.000 C 
ATOM     29  N   UNL     1      10.400   0.565  23.221  0.00  0.00    +0.000 N 
ATOM     30  C   UNL     1       9.758  -0.433  22.367  0.00  0.00    +0.000 C 
ATOM     31  C   UNL     1      10.106  -1.820  22.830  0.00  0.00    +0.000 C 
ATOM     32  C   UNL     1      10.216   1.872  22.924  0.00  0.00    +0.000 C 
ATOM     33  O   UNL     1      10.323   2.275  21.789  0.00  0.00    +0.000 OA
ATOM     34  C   UNL     1       9.735   2.753  24.050  0.00  0.00    +0.000 C 
ENDBRANCH  25  26
ENDBRANCH  23  25
ENDBRANCH   5  18
TORSDOF 4
ENDMDL
MODEL 9
REMARK VINA RESULT:      -7.7      3.554      7.425
REMARK  Name = 
REMARK  4 active torsions:
REMARK  status: ('A' for Active; 'I' for Inactive)
REMARK    1  A    between atoms: N_8  and  C_11
REMARK    2  A    between atoms: C_15  and  C_17
REMARK    3  A    between atoms: C_22  and  C_23
REMARK    4  A    between atoms: C_23  and  N_24
REMARK                            x       y       z     vdW  Elec       q    Type
REMARK                         _______ _______ _______ _____ _____    ______ ____
ROOT
ATOM      1  C   UNL     1       6.067   0.821  25.171  0.00  0.00    +0.000 C 
ATOM      2  C   UNL     1       5.880   0.766  26.533  0.00  0.00    +0.000 C 
ATOM      3  C   UNL     1       6.844   0.237  27.698  0.00  0.00    +0.000 C 
ATOM      4  C   UNL     1       7.579  -0.792  26.608  0.00  0.00    +0.000 C 
ATOM      5  C   UNL     1       7.971  -0.003  25.375  0.00  0.00    +0.000 C 
ATOM      6  N   UNL     1       7.047   0.191  24.410  0.00  0.00    +0.000 NA
ATOM      7  O   UNL     1       6.505  -1.633  26.287  0.00  0.00    +0.000 OA
ENDROOT
BRANCH   1  15
ATOM      8  C   UNL     1       7.369   5.859  28.751  0.00  0.00    +0.000 C 
ATOM      9  N   UNL     1       7.400   4.906  27.659  0.00  0.00    +0.000 NA
ATOM     10  C   UNL     1       6.277   4.241  27.318  0.00  0.00    +0.000 C 
ATOM     11  O   UNL     1       5.317   4.215  28.058  0.00  0.00    +0.000 OA
ATOM     12  N   UNL     1       6.142   4.247  25.988  0.00  0.00    +0.000 N 
ATOM     13  C   UNL     1       4.877   4.091  25.341  0.00  0.00    +0.000 C 
ATOM     14  C   UNL     1       4.728   2.785  24.620  0.00  0.00    +0.000 C 
ATOM     15  N   UNL     1       5.945   2.021  24.596  0.00  0.00    +0.000 N 
ATOM     16  C   UNL     1       7.144   2.756  24.445  0.00  0.00    +0.000 C 
ATOM     17  C   UNL     1       7.296   3.817  25.395  0.00  0.00    +0.000 C 
ENDBRANCH   1  15
BRANCH   5  18
ATOM     18  C   UNL     1       9.277  -0.320  24.785  0.00  0.00    +0.000 C 
ATOM     19  C   UNL     1      10.369   0.538  24.903  0.00  0.00    +0.000 C 
ATOM     20  C   UNL     1      10.857   1.579  23.766  0.00  0.00    +0.000 C 
ATOM     21  C   UNL     1      10.349   0.773  22.560  0.00  0.00    +0.000 C 
ATOM     22  C   UNL     1       9.677  -0.474  22.447  0.00  0.00    +0.000 C 
ATOM     23  C   UNL     1       9.106  -1.345  23.551  0.00  0.00    +0.000 C 
ATOM     24  F   UNL     1      10.067   1.730  21.630  0.00  0.00    +0.000 F 
BRANCH  23  25
ATOM     25  C   UNL     1       9.939  -2.524  23.846  0.00  0.00    +0.000 C 
BRANCH  25  26
ATOM     26  N   UNL     1       9.309  -3.743  24.087  0.00  0.00    +0.000 NA
ATOM     27  C   UNL     1       7.912  -3.648  23.826  0.00  0.00    +0.000 C 
ATOM     28  C   UNL     1       7.266  -5.028  23.996  0.00  0.00    +0.000 C 
ATOM     29  N   UNL     1       7.379  -5.366  25.426  0.00  0.00    +0.000 N 
ATOM     30  C   UNL     1       8.396  -4.638  26.184  0.00  0.00    +0.000 C 
ATOM     31  C   UNL     1       9.583  -4.338  25.313  0.00  0.00    +0.000 C 
ATOM     32  C   UNL     1       6.252  -5.745  26.072  0.00  0.00    +0.000 C 
ATOM     33  O   UNL     1       6.302  -6.266  27.162  0.00  0.00    +0.000 OA
ATOM     34  C   UNL     1       4.947  -5.353  25.424  0.00  0.00    +0.000 C 
ENDBRANCH  25  26
ENDBRANCH  23  25
ENDBRANCH   5  18
TORSDOF 4
ENDMDL
