MODEL 1
REMARK VINA RESULT:      -7.4      0.000      0.000
REMARK  Name = 
REMARK  3 active torsions:
REMARK  status: ('A' for Active; 'I' for Inactive)
REMARK    1  A    between atoms: N_5  and  C_8
REMARK    2  A    between atoms: C_10  and  C_16
REMARK    3  A    between atoms: C_21  and  C_22
REMARK                            x       y       z     vdW  Elec       q    Type
REMARK                         _______ _______ _______ _____ _____    ______ ____
ROOT
ATOM      1  C   UNL     1       7.747  -4.723  23.484  0.00  0.00    +0.000 A 
ATOM      2  C   UNL     1       7.467  -3.478  22.460  0.00  0.00    +0.000 A 
ATOM      3  C   UNL     1       8.123  -2.168  23.213  0.00  0.00    +0.000 A 
ATOM      4  N   UNL     1       8.394  -1.897  24.445  0.00  0.00    +0.000 NA
ATOM      5  C   UNL     1       8.675  -2.905  25.309  0.00  0.00    +0.000 A 
ATOM      6  C   UNL     1       8.499  -4.302  24.675  0.00  0.00    +0.000 A 
ATOM      7  N   UNL     1       9.793  -4.922  24.839  0.00  0.00    +0.000 NA
ATOM      8  O   UNL     1       7.884  -2.710  26.417  0.00  0.00    +0.000 OA
ENDROOT
BRANCH   1  13
ATOM      9  O   UNL     1       2.999  -3.830  24.519  0.00  0.00    +0.000 OA
ATOM     10  C   UNL     1       4.284  -4.233  24.154  0.00  0.00    +0.000 C 
ATOM     11  C   UNL     1       4.146  -5.390  23.158  0.00  0.00    +0.000 C 
ATOM     12  C   UNL     1       5.560  -5.653  22.591  0.00  0.00    +0.000 C 
ATOM     13  N   UNL     1       6.512  -5.350  23.604  0.00  0.00    +0.000 N 
ATOM     14  C   UNL     1       6.145  -5.656  24.993  0.00  0.00    +0.000 C 
ATOM     15  C   UNL     1       5.006  -4.725  25.398  0.00  0.00    +0.000 C 
ENDBRANCH   1  13
BRANCH   3  16
ATOM     16  C   UNL     1       8.297  -1.329  22.170  0.00  0.00    +0.000 A 
ATOM     17  C   UNL     1       9.923  -0.826  22.119  0.00  0.00    +0.000 A 
ATOM     18  C   UNL     1       9.862   0.667  21.893  0.00  0.00    +0.000 A 
ATOM     19  C   UNL     1       8.874   1.686  21.479  0.00  0.00    +0.000 A 
ATOM     20  C   UNL     1       7.398   1.133  21.787  0.00  0.00    +0.000 A 
ATOM     21  C   UNL     1       7.426  -0.355  21.572  0.00  0.00    +0.000 A 
BRANCH  21  22
ATOM     22  C   UNL     1       6.798  -0.655  20.284  0.00  0.00    +0.000 C 
ATOM     23  O   UNL     1       7.264  -0.166  19.277  0.00  0.00    +0.000 OA
ATOM     24  O   UNL     1       5.853  -1.531  20.325  0.00  0.00    +0.000 OA
ENDBRANCH  21  22
ENDBRANCH   3  16
TORSDOF 3
ENDMDL
MODEL 2
REMARK VINA RESULT:      -7.4      1.999      5.887
REMARK  Name = 
REMARK  3 active torsions:
REMARK  status: ('A' for Active; 'I' for Inactive)
REMARK    1  A    between atoms: N_5  and  C_8
REMARK    2  A    between atoms: C_10  and  C_16
REMARK    3  A    between atoms: C_21  and  C_22
REMARK                            x       y       z     vdW  Elec       q    Type
REMARK                         _______ _______ _______ _____ _____    ______ ____
ROOT
ATOM      1  C   UNL     1       8.248   0.433  23.560  0.00  0.00    +0.000 A 
ATOM      2  C   UNL     1       7.045  -0.653  23.787  0.00  0.00    +0.000 A 
ATOM      3  C   UNL     1       7.822  -2.066  24.121  0.00  0.00    +0.000 A 
ATOM      4  N   UNL     1       9.005  -2.510  23.862  0.00  0.00    +0.000 NA
ATOM      5  C   UNL     1      10.033  -1.638  23.713  0.00  0.00    +0.000 A 
ATOM      6  C   UNL     1       9.577  -0.163  23.760  0.00  0.00    +0.000 A 
ATOM      7  N   UNL     1      10.351   0.404  24.839  0.00  0.00    +0.000 NA
ATOM      8  O   UNL     1      10.668  -1.969  22.539  0.00  0.00    +0.000 OA
ENDROOT
BRANCH   1  13
ATOM      9  O   UNL     1       6.296  -0.434  19.104  0.00  0.00    +0.000 OA
ATOM     10  C   UNL     1       6.813  -0.018  20.332  0.00  0.00    +0.000 C 
ATOM     11  C   UNL     1       6.362   1.428  20.565  0.00  0.00    +0.000 C 
ATOM     12  C   UNL     1       6.739   1.777  22.023  0.00  0.00    +0.000 C 
ATOM     13  N   UNL     1       7.920   1.060  22.364  0.00  0.00    +0.000 N 
ATOM     14  C   UNL     1       8.924   0.868  21.308  0.00  0.00    +0.000 C 
ATOM     15  C   UNL     1       8.331  -0.064  20.255  0.00  0.00    +0.000 C 
ENDBRANCH   1  13
BRANCH   3  16
ATOM     16  C   UNL     1       6.847  -2.756  24.751  0.00  0.00    +0.000 A 
ATOM     17  C   UNL     1       7.174  -2.792  26.421  0.00  0.00    +0.000 A 
ATOM     18  C   UNL     1       6.938  -4.227  26.833  0.00  0.00    +0.000 A 
ATOM     19  C   UNL     1       6.306  -5.447  26.289  0.00  0.00    +0.000 A 
ATOM     20  C   UNL     1       6.263  -5.338  24.686  0.00  0.00    +0.000 A 
ATOM     21  C   UNL     1       6.062  -3.888  24.344  0.00  0.00    +0.000 A 
BRANCH  21  22
ATOM     22  C   UNL     1       4.663  -3.686  23.961  0.00  0.00    +0.000 C 
ATOM     23  O   UNL     1       3.952  -3.011  24.673  0.00  0.00    +0.000 OA
ATOM     24  O   UNL     1       4.337  -4.159  22.807  0.00  0.00    +0.000 OA
ENDBRANCH  21  22
ENDBRANCH   3  16
TORSDOF 3
ENDMDL
MODEL 3
REMARK VINA RESULT:      -7.3      2.054      3.508
REMARK  Name = 
REMARK  3 active torsions:
REMARK  status: ('A' for Active; 'I' for Inactive)
REMARK    1  A    between atoms: N_5  and  C_8
REMARK    2  A    between atoms: C_10  and  C_16
REMARK    3  A    between atoms: C_21  and  C_22
REMARK                            x       y       z     vdW  Elec       q    Type
REMARK                         _______ _______ _______ _____ _____    ______ ____
ROOT
ATOM      1  C   UNL     1       5.615  -2.445  23.988  0.00  0.00    +0.000 A 
ATOM      2  C   UNL     1       6.590  -1.318  23.312  0.00  0.00    +0.000 A 
ATOM      3  C   UNL     1       7.487  -2.154  22.212  0.00  0.00    +0.000 A 
ATOM      4  N   UNL     1       7.819  -3.395  22.098  0.00  0.00    +0.000 NA
ATOM      5  C   UNL     1       7.010  -4.357  22.609  0.00  0.00    +0.000 A 
ATOM      6  C   UNL     1       5.814  -3.776  23.395  0.00  0.00    +0.000 A 
ATOM      7  N   UNL     1       4.659  -4.333  22.730  0.00  0.00    +0.000 NA
ATOM      8  O   UNL     1       7.805  -5.183  23.368  0.00  0.00    +0.000 OA
ENDROOT
BRANCH   1  13
ATOM      9  O   UNL     1       8.802  -0.769  27.373  0.00  0.00    +0.000 OA
ATOM     10  C   UNL     1       7.778  -1.222  26.540  0.00  0.00    +0.000 C 
ATOM     11  C   UNL     1       6.443  -0.847  27.195  0.00  0.00    +0.000 C 
ATOM     12  C   UNL     1       5.343  -1.140  26.149  0.00  0.00    +0.000 C 
ATOM     13  N   UNL     1       5.761  -2.245  25.356  0.00  0.00    +0.000 N 
ATOM     14  C   UNL     1       6.523  -3.309  26.025  0.00  0.00    +0.000 C 
ATOM     15  C   UNL     1       7.877  -2.735  26.434  0.00  0.00    +0.000 C 
ENDBRANCH   1  13
BRANCH   3  16
ATOM     16  C   UNL     1       7.884  -1.158  21.391  0.00  0.00    +0.000 A 
ATOM     17  C   UNL     1       9.517  -0.791  21.703  0.00  0.00    +0.000 A 
ATOM     18  C   UNL     1       9.572   0.719  21.759  0.00  0.00    +0.000 A 
ATOM     19  C   UNL     1       8.725   1.874  21.392  0.00  0.00    +0.000 A 
ATOM     20  C   UNL     1       7.191   1.398  21.343  0.00  0.00    +0.000 A 
ATOM     21  C   UNL     1       7.182  -0.025  20.856  0.00  0.00    +0.000 A 
BRANCH  21  22
ATOM     22  C   UNL     1       6.777  -0.035  19.449  0.00  0.00    +0.000 C 
ATOM     23  O   UNL     1       5.595   0.004  19.180  0.00  0.00    +0.000 OA
ATOM     24  O   UNL     1       7.743   0.036  18.599  0.00  0.00    +0.000 OA
ENDBRANCH  21  22
ENDBRANCH   3  16
TORSDOF 3
ENDMDL
MODEL 4
REMARK VINA RESULT:      -7.1      1.763      2.247
REMARK  Name = 
REMARK  3 active torsions:
REMARK  status: ('A' for Active; 'I' for Inactive)
REMARK    1  A    between atoms: N_5  and  C_8
REMARK    2  A    between atoms: C_10  and  C_16
REMARK    3  A    between atoms: C_21  and  C_22
REMARK                            x       y       z     vdW  Elec       q    Type
REMARK                         _______ _______ _______ _____ _____    ______ ____
ROOT
ATOM      1  C   UNL     1       7.848  -3.568  22.994  0.00  0.00    +0.000 A 
ATOM      2  C   UNL     1       7.849  -2.012  22.487  0.00  0.00    +0.000 A 
ATOM      3  C   UNL     1       8.348  -1.149  23.799  0.00  0.00    +0.000 A 
ATOM      4  N   UNL     1       8.332  -1.378  25.068  0.00  0.00    +0.000 NA
ATOM      5  C   UNL     1       8.376  -2.656  25.522  0.00  0.00    +0.000 A 
ATOM      6  C   UNL     1       8.313  -3.697  24.383  0.00  0.00    +0.000 A 
ATOM      7  N   UNL     1       9.515  -4.477  24.560  0.00  0.00    +0.000 NA
ATOM      8  O   UNL     1       7.354  -2.790  26.432  0.00  0.00    +0.000 OA
ENDROOT
BRANCH   1  13
ATOM      9  O   UNL     1       4.599  -7.171  23.930  0.00  0.00    +0.000 OA
ATOM     10  C   UNL     1       5.382  -6.067  23.590  0.00  0.00    +0.000 C 
ATOM     11  C   UNL     1       4.437  -4.925  23.200  0.00  0.00    +0.000 C 
ATOM     12  C   UNL     1       5.312  -3.657  23.065  0.00  0.00    +0.000 C 
ATOM     13  N   UNL     1       6.602  -4.050  22.611  0.00  0.00    +0.000 N 
ATOM     14  C   UNL     1       6.675  -5.170  21.662  0.00  0.00    +0.000 C 
ATOM     15  C   UNL     1       6.242  -6.438  22.393  0.00  0.00    +0.000 C 
ENDBRANCH   1  13
BRANCH   3  16
ATOM     16  C   UNL     1       8.783  -0.014  23.213  0.00  0.00    +0.000 A 
ATOM     17  C   UNL     1      10.454   0.156  23.489  0.00  0.00    +0.000 A 
ATOM     18  C   UNL     1      10.636   1.599  23.899  0.00  0.00    +0.000 A 
ATOM     19  C   UNL     1       9.870   2.863  23.876  0.00  0.00    +0.000 A 
ATOM     20  C   UNL     1       8.302   2.518  23.822  0.00  0.00    +0.000 A 
ATOM     21  C   UNL     1       8.151   1.260  23.012  0.00  0.00    +0.000 A 
BRANCH  21  22
ATOM     22  C   UNL     1       7.675   1.618  21.675  0.00  0.00    +0.000 C 
ATOM     23  O   UNL     1       8.118   1.023  20.716  0.00  0.00    +0.000 OA
ATOM     24  O   UNL     1       6.713   2.476  21.646  0.00  0.00    +0.000 OA
ENDBRANCH  21  22
ENDBRANCH   3  16
TORSDOF 3
ENDMDL
MODEL 5
REMARK VINA RESULT:      -7.0      2.105      3.146
REMARK  Name = 
REMARK  3 active torsions:
REMARK  status: ('A' for Active; 'I' for Inactive)
REMARK    1  A    between atoms: N_5  and  C_8
REMARK    2  A    between atoms: C_10  and  C_16
REMARK    3  A    between atoms: C_21  and  C_22
REMARK                            x       y       z     vdW  Elec       q    Type
REMARK                         _______ _______ _______ _____ _____    ______ ____
ROOT
ATOM      1  C   UNL     1       5.881  -2.746  24.017  0.00  0.00    +0.000 A 
ATOM      2  C   UNL     1       6.876  -1.622  23.366  0.00  0.00    +0.000 A 
ATOM      3  C   UNL     1       7.424  -2.312  21.974  0.00  0.00    +0.000 A 
ATOM      4  N   UNL     1       7.538  -3.533  21.575  0.00  0.00    +0.000 NA
ATOM      5  C   UNL     1       6.698  -4.481  22.062  0.00  0.00    +0.000 A 
ATOM      6  C   UNL     1       5.766  -3.941  23.168  0.00  0.00    +0.000 A 
ATOM      7  N   UNL     1       4.439  -4.216  22.668  0.00  0.00    +0.000 NA
ATOM      8  O   UNL     1       7.483  -5.529  22.481  0.00  0.00    +0.000 OA
ENDROOT
BRANCH   1  13
ATOM      9  O   UNL     1       7.237  -6.038  27.444  0.00  0.00    +0.000 OA
ATOM     10  C   UNL     1       6.933  -4.987  26.577  0.00  0.00    +0.000 C 
ATOM     11  C   UNL     1       7.787  -3.782  26.985  0.00  0.00    +0.000 C 
ATOM     12  C   UNL     1       7.612  -2.722  25.873  0.00  0.00    +0.000 C 
ATOM     13  N   UNL     1       6.300  -2.847  25.338  0.00  0.00    +0.000 N 
ATOM     14  C   UNL     1       5.220  -3.208  26.268  0.00  0.00    +0.000 C 
ATOM     15  C   UNL     1       5.463  -4.638  26.741  0.00  0.00    +0.000 C 
ENDBRANCH   1  13
BRANCH   3  16
ATOM     16  C   UNL     1       7.812  -1.221  21.279  0.00  0.00    +0.000 A 
ATOM     17  C   UNL     1       9.417  -0.835  21.691  0.00  0.00    +0.000 A 
ATOM     18  C   UNL     1       9.414   0.661  21.910  0.00  0.00    +0.000 A 
ATOM     19  C   UNL     1       8.538   1.819  21.635  0.00  0.00    +0.000 A 
ATOM     20  C   UNL     1       7.026   1.301  21.475  0.00  0.00    +0.000 A 
ATOM     21  C   UNL     1       7.088  -0.061  20.840  0.00  0.00    +0.000 A 
BRANCH  21  22
ATOM     22  C   UNL     1       6.732   0.066  19.425  0.00  0.00    +0.000 C 
ATOM     23  O   UNL     1       7.620   0.147  18.603  0.00  0.00    +0.000 OA
ATOM     24  O   UNL     1       5.475  -0.043  19.163  0.00  0.00    +0.000 OA
ENDBRANCH  21  22
ENDBRANCH   3  16
TORSDOF 3
ENDMDL
MODEL 6
REMARK VINA RESULT:      -7.0      2.468      3.564
REMARK  Name = 
REMARK  3 active torsions:
REMARK  status: ('A' for Active; 'I' for Inactive)
REMARK    1  A    between atoms: N_5  and  C_8
REMARK    2  A    between atoms: C_10  and  C_16
REMARK    3  A    between atoms: C_21  and  C_22
REMARK                            x       y       z     vdW  Elec       q    Type
REMARK                         _______ _______ _______ _____ _____    ______ ____
ROOT
ATOM      1  C   UNL     1       5.224  -3.632  24.070  0.00  0.00    +0.000 A 
ATOM      2  C   UNL     1       5.930  -2.157  24.153  0.00  0.00    +0.000 A 
ATOM      3  C   UNL     1       7.264  -2.283  23.195  0.00  0.00    +0.000 A 
ATOM      4  N   UNL     1       7.978  -3.280  22.796  0.00  0.00    +0.000 NA
ATOM      5  C   UNL     1       7.412  -4.507  22.673  0.00  0.00    +0.000 A 
ATOM      6  C   UNL     1       5.951  -4.543  23.173  0.00  0.00    +0.000 A 
ATOM      7  N   UNL     1       5.204  -5.004  22.026  0.00  0.00    +0.000 NA
ATOM      8  O   UNL     1       8.231  -5.391  23.335  0.00  0.00    +0.000 OA
ENDROOT
BRANCH   1  13
ATOM      9  O   UNL     1       7.296  -5.894  27.944  0.00  0.00    +0.000 OA
ATOM     10  C   UNL     1       6.601  -5.180  26.966  0.00  0.00    +0.000 C 
ATOM     11  C   UNL     1       5.756  -4.116  27.675  0.00  0.00    +0.000 C 
ATOM     12  C   UNL     1       5.193  -3.194  26.570  0.00  0.00    +0.000 C 
ATOM     13  N   UNL     1       4.991  -3.973  25.397  0.00  0.00    +0.000 N 
ATOM     14  C   UNL     1       4.546  -5.362  25.574  0.00  0.00    +0.000 C 
ATOM     15  C   UNL     1       5.682  -6.142  26.230  0.00  0.00    +0.000 C 
ENDBRANCH   1  13
BRANCH   3  16
ATOM     16  C   UNL     1       7.509  -0.984  22.919  0.00  0.00    +0.000 A 
ATOM     17  C   UNL     1       7.399  -0.736  21.239  0.00  0.00    +0.000 A 
ATOM     18  C   UNL     1       8.609   0.100  20.889  0.00  0.00    +0.000 A 
ATOM     19  C   UNL     1       9.633   0.912  21.580  0.00  0.00    +0.000 A 
ATOM     20  C   UNL     1       9.754   0.409  23.101  0.00  0.00    +0.000 A 
ATOM     21  C   UNL     1       8.382  -0.025  23.537  0.00  0.00    +0.000 A 
BRANCH  21  22
ATOM     22  C   UNL     1       7.807   1.021  24.386  0.00  0.00    +0.000 C 
ATOM     23  O   UNL     1       8.438   1.410  25.344  0.00  0.00    +0.000 OA
ATOM     24  O   UNL     1       6.703   1.530  23.957  0.00  0.00    +0.000 OA
ENDBRANCH  21  22
ENDBRANCH   3  16
TORSDOF 3
ENDMDL
MODEL 7
REMARK VINA RESULT:      -6.9      2.497      6.398
REMARK  Name = 
REMARK  3 active torsions:
REMARK  status: ('A' for Active; 'I' for Inactive)
REMARK    1  A    between atoms: N_5  and  C_8
REMARK    2  A    between atoms: C_10  and  C_16
REMARK    3  A    between atoms: C_21  and  C_22
REMARK                            x       y       z     vdW  Elec       q    Type
REMARK                         _______ _______ _______ _____ _____    ______ ____
ROOT
ATOM      1  C   UNL     1       7.943  -0.490  24.157  0.00  0.00    +0.000 A 
ATOM      2  C   UNL     1       7.224  -1.956  24.258  0.00  0.00    +0.000 A 
ATOM      3  C   UNL     1       8.437  -3.033  23.967  0.00  0.00    +0.000 A 
ATOM      4  N   UNL     1       9.568  -2.947  23.353  0.00  0.00    +0.000 NA
ATOM      5  C   UNL     1      10.212  -1.755  23.290  0.00  0.00    +0.000 A 
ATOM      6  C   UNL     1       9.385  -0.598  23.893  0.00  0.00    +0.000 A 
ATOM      7  N   UNL     1      10.243  -0.059  24.922  0.00  0.00    +0.000 NA
ATOM      8  O   UNL     1      10.544  -1.552  21.972  0.00  0.00    +0.000 OA
ENDROOT
BRANCH   1  13
ATOM      9  O   UNL     1       7.416   3.968  22.092  0.00  0.00    +0.000 OA
ATOM     10  C   UNL     1       7.454   2.651  22.551  0.00  0.00    +0.000 C 
ATOM     11  C   UNL     1       6.845   1.758  21.463  0.00  0.00    +0.000 C 
ATOM     12  C   UNL     1       7.118   0.298  21.889  0.00  0.00    +0.000 C 
ATOM     13  N   UNL     1       7.115   0.238  23.311  0.00  0.00    +0.000 N 
ATOM     14  C   UNL     1       6.170   1.109  24.023  0.00  0.00    +0.000 C 
ATOM     15  C   UNL     1       6.607   2.555  23.810  0.00  0.00    +0.000 C 
ENDBRANCH   1  13
BRANCH   3  16
ATOM     16  C   UNL     1       7.929  -4.153  24.523  0.00  0.00    +0.000 A 
ATOM     17  C   UNL     1       7.279  -5.142  23.300  0.00  0.00    +0.000 A 
ATOM     18  C   UNL     1       5.936  -5.588  23.833  0.00  0.00    +0.000 A 
ATOM     19  C   UNL     1       5.207  -5.614  25.118  0.00  0.00    +0.000 A 
ATOM     20  C   UNL     1       5.813  -4.481  26.082  0.00  0.00    +0.000 A 
ATOM     21  C   UNL     1       7.284  -4.385  25.786  0.00  0.00    +0.000 A 
BRANCH  21  22
ATOM     22  C   UNL     1       8.022  -5.068  26.849  0.00  0.00    +0.000 C 
ATOM     23  O   UNL     1       7.406  -5.724  27.661  0.00  0.00    +0.000 OA
ATOM     24  O   UNL     1       9.306  -5.006  26.753  0.00  0.00    +0.000 OA
ENDBRANCH  21  22
ENDBRANCH   3  16
TORSDOF 3
ENDMDL
MODEL 8
REMARK VINA RESULT:      -6.9      1.650      1.861
REMARK  Name = 
REMARK  3 active torsions:
REMARK  status: ('A' for Active; 'I' for Inactive)
REMARK    1  A    between atoms: N_5  and  C_8
REMARK    2  A    between atoms: C_10  and  C_16
REMARK    3  A    between atoms: C_21  and  C_22
REMARK                            x       y       z     vdW  Elec       q    Type
REMARK                         _______ _______ _______ _____ _____    ______ ____
ROOT
ATOM      1  C   UNL     1       8.323  -4.218  24.535  0.00  0.00    +0.000 A 
ATOM      2  C   UNL     1       8.472  -2.954  23.506  0.00  0.00    +0.000 A 
ATOM      3  C   UNL     1       8.231  -1.624  24.448  0.00  0.00    +0.000 A 
ATOM      4  N   UNL     1       7.625  -1.431  25.570  0.00  0.00    +0.000 NA
ATOM      5  C   UNL     1       7.523  -2.447  26.464  0.00  0.00    +0.000 A 
ATOM      6  C   UNL     1       8.075  -3.781  25.917  0.00  0.00    +0.000 A 
ATOM      7  N   UNL     1       9.090  -4.154  26.873  0.00  0.00    +0.000 NA
ATOM      8  O   UNL     1       6.201  -2.520  26.833  0.00  0.00    +0.000 OA
ENDROOT
BRANCH   1  13
ATOM      9  O   UNL     1       3.708  -4.502  22.791  0.00  0.00    +0.000 OA
ATOM     10  C   UNL     1       5.047  -4.560  23.180  0.00  0.00    +0.000 C 
ATOM     11  C   UNL     1       5.783  -5.471  22.190  0.00  0.00    +0.000 C 
ATOM     12  C   UNL     1       7.291  -5.326  22.497  0.00  0.00    +0.000 C 
ATOM     13  N   UNL     1       7.443  -5.080  23.890  0.00  0.00    +0.000 N 
ATOM     14  C   UNL     1       6.509  -5.753  24.803  0.00  0.00    +0.000 C 
ATOM     15  C   UNL     1       5.119  -5.170  24.571  0.00  0.00    +0.000 C 
ENDBRANCH   1  13
BRANCH   3  16
ATOM     16  C   UNL     1       8.825  -0.668  23.703  0.00  0.00    +0.000 A 
ATOM     17  C   UNL     1      10.298  -0.223  24.430  0.00  0.00    +0.000 A 
ATOM     18  C   UNL     1      10.309   1.288  24.396  0.00  0.00    +0.000 A 
ATOM     19  C   UNL     1       9.579   2.387  23.729  0.00  0.00    +0.000 A 
ATOM     20  C   UNL     1       8.129   1.854  23.288  0.00  0.00    +0.000 A 
ATOM     21  C   UNL     1       8.281   0.405  22.917  0.00  0.00    +0.000 A 
BRANCH  21  22
ATOM     22  C   UNL     1       8.286   0.293  21.457  0.00  0.00    +0.000 C 
ATOM     23  O   UNL     1       9.045  -0.492  20.932  0.00  0.00    +0.000 OA
ATOM     24  O   UNL     1       7.372   0.972  20.852  0.00  0.00    +0.000 OA
ENDBRANCH  21  22
ENDBRANCH   3  16
TORSDOF 3
ENDMDL
MODEL 9
REMARK VINA RESULT:      -6.8      2.434      6.606
REMARK  Name = 
REMARK  3 active torsions:
REMARK  status: ('A' for Active; 'I' for Inactive)
REMARK    1  A    between atoms: N_5  and  C_8
REMARK    2  A    between atoms: C_10  and  C_16
REMARK    3  A    between atoms: C_21  and  C_22
REMARK                            x       y       z     vdW  Elec       q    Type
REMARK                         _______ _______ _______ _____ _____    ______ ____
ROOT
ATOM      1  C   UNL     1       9.391  -1.290  23.862  0.00  0.00    +0.000 A 
ATOM      2  C   UNL     1       8.494  -2.407  24.654  0.00  0.00    +0.000 A 
ATOM      3  C   UNL     1       7.447  -2.978  23.516  0.00  0.00    +0.000 A 
ATOM      4  N   UNL     1       6.986  -2.493  22.414  0.00  0.00    +0.000 NA
ATOM      5  C   UNL     1       7.724  -1.599  21.711  0.00  0.00    +0.000 A 
ATOM      6  C   UNL     1       9.021  -1.188  22.442  0.00  0.00    +0.000 A 
ATOM      7  N   UNL     1      10.068  -1.525  21.507  0.00  0.00    +0.000 NA
ATOM      8  O   UNL     1       6.900  -0.534  21.434  0.00  0.00    +0.000 OA
ENDROOT
BRANCH   1  13
ATOM      9  O   UNL     1       9.198   3.647  23.760  0.00  0.00    +0.000 OA
ATOM     10  C   UNL     1       9.198   2.265  23.956  0.00  0.00    +0.000 C 
ATOM     11  C   UNL     1       8.424   1.975  25.247  0.00  0.00    +0.000 C 
ATOM     12  C   UNL     1       8.232   0.443  25.311  0.00  0.00    +0.000 C 
ATOM     13  N   UNL     1       9.354  -0.175  24.691  0.00  0.00    +0.000 N 
ATOM     14  C   UNL     1      10.664   0.469  24.863  0.00  0.00    +0.000 C 
ATOM     15  C   UNL     1      10.637   1.802  24.120  0.00  0.00    +0.000 C 
ENDBRANCH   1  13
BRANCH   3  16
ATOM     16  C   UNL     1       7.101  -4.166  24.056  0.00  0.00    +0.000 A 
ATOM     17  C   UNL     1       7.222  -5.379  22.867  0.00  0.00    +0.000 A 
ATOM     18  C   UNL     1       5.954  -6.190  23.008  0.00  0.00    +0.000 A 
ATOM     19  C   UNL     1       4.854  -6.367  23.979  0.00  0.00    +0.000 A 
ATOM     20  C   UNL     1       4.745  -5.046  24.887  0.00  0.00    +0.000 A 
ATOM     21  C   UNL     1       6.140  -4.513  25.066  0.00  0.00    +0.000 A 
BRANCH  21  22
ATOM     22  C   UNL     1       6.610  -4.869  26.406  0.00  0.00    +0.000 C 
ATOM     23  O   UNL     1       7.275  -5.872  26.546  0.00  0.00    +0.000 OA
ATOM     24  O   UNL     1       6.367  -3.995  27.322  0.00  0.00    +0.000 OA
ENDBRANCH  21  22
ENDBRANCH   3  16
TORSDOF 3
ENDMDL
