MODEL 1
REMARK VINA RESULT:      -6.5      0.000      0.000
REMARK  Name = 
REMARK  7 active torsions:
REMARK  status: ('A' for Active; 'I' for Inactive)
REMARK    1  A    between atoms: C_2  and  N_3
REMARK    2  A    between atoms: N_3  and  C_4
REMARK    3  A    between atoms: N_3  and  C_8
REMARK    4  A    between atoms: C_4  and  C_5
REMARK    5  A    between atoms: C_8  and  N_9
REMARK    6  A    between atoms: N_12  and  C_15
REMARK    7  A    between atoms: C_15  and  N_16
REMARK                            x       y       z     vdW  Elec       q    Type
REMARK                         _______ _______ _______ _____ _____    ______ ____
ROOT
ATOM      1  N   UNL     1       7.538  -4.442  26.759  0.00  0.00    +0.000 NA
ATOM      2  C   UNL     1       7.262  -3.149  26.195  0.00  0.00    +0.000 C 
ATOM      3  C   UNL     1       8.573  -2.439  25.881  0.00  0.00    +0.000 C 
ATOM      4  N   UNL     1       9.215  -3.075  24.767  0.00  0.00    +0.000 NA
ATOM      5  C   UNL     1       9.218  -4.492  25.005  0.00  0.00    +0.000 C 
ATOM      6  C   UNL     1       8.900  -4.779  26.461  0.00  0.00    +0.000 C 
ENDROOT
BRANCH   1   7
ATOM      7  C   UNL     1       6.683  -5.405  26.119  0.00  0.00    +0.000 C 
BRANCH   7   8
ATOM      8  N   UNL     1       6.030  -6.239  27.062  0.00  0.00    +0.000 NA
BRANCH   8  10
ATOM      9  C   UNL     1       4.760  -6.476  25.023  0.00  0.00    +0.000 C 
ATOM     10  C   UNL     1       4.842  -6.795  26.517  0.00  0.00    +0.000 C 
ENDBRANCH   8  10
BRANCH   8  11
ATOM     11  C   UNL     1       5.761  -5.552  28.264  0.00  0.00    +0.000 C 
BRANCH  11  12
ATOM     12  C   UNL     1       6.013  -6.379  29.502  0.00  0.00    +0.000 C 
ATOM     13  O   UNL     1       6.236  -5.853  30.580  0.00  0.00    +0.000 OA
ATOM     14  O   UNL     1       6.780  -7.418  29.105  0.00  0.00    +0.000 OA
ENDBRANCH  11  12
ENDBRANCH   8  11
ENDBRANCH   7   8
ENDBRANCH   1   7
BRANCH   4  15
ATOM     15  C   UNL     1       8.448  -2.820  23.581  0.00  0.00    +0.000 C 
BRANCH  15  16
ATOM     16  N   UNL     1       8.472  -1.408  23.251  0.00  0.00    +0.000 NA
ATOM     17  C   UNL     1       9.555  -1.191  22.364  0.00  0.00    +0.000 C 
ATOM     18  C   UNL     1       9.133  -0.414  21.127  0.00  0.00    +0.000 C 
ATOM     19  N   UNL     1       8.370   0.771  21.629  0.00  0.00    +0.000 N 
ATOM     20  C   UNL     1       7.115   0.387  22.318  0.00  0.00    +0.000 C 
ATOM     21  C   UNL     1       7.222  -1.090  22.655  0.00  0.00    +0.000 C 
ATOM     22  C   UNL     1       9.107   1.758  22.175  0.00  0.00    +0.000 C 
ATOM     23  O   UNL     1      10.264   1.937  21.875  0.00  0.00    +0.000 OA
ATOM     24  N   UNL     1       8.614   2.111  23.368  0.00  0.00    +0.000 NA
ATOM     25  C   UNL     1       8.321   1.116  24.379  0.00  0.00    +0.000 C 
ENDBRANCH  15  16
ENDBRANCH   4  15
TORSDOF 7
ENDMDL
MODEL 2
REMARK VINA RESULT:      -6.5      3.201      7.976
REMARK  Name = 
REMARK  7 active torsions:
REMARK  status: ('A' for Active; 'I' for Inactive)
REMARK    1  A    between atoms: C_2  and  N_3
REMARK    2  A    between atoms: N_3  and  C_4
REMARK    3  A    between atoms: N_3  and  C_8
REMARK    4  A    between atoms: C_4  and  C_5
REMARK    5  A    between atoms: C_8  and  N_9
REMARK    6  A    between atoms: N_12  and  C_15
REMARK    7  A    between atoms: C_15  and  N_16
REMARK                            x       y       z     vdW  Elec       q    Type
REMARK                         _______ _______ _______ _____ _____    ______ ____
ROOT
ATOM      1  N   UNL     1       8.736  -0.028  22.262  0.00  0.00    +0.000 NA
ATOM      2  C   UNL     1       9.668  -1.121  22.255  0.00  0.00    +0.000 C 
ATOM      3  C   UNL     1      10.030  -1.491  23.688  0.00  0.00    +0.000 C 
ATOM      4  N   UNL     1       8.908  -2.113  24.329  0.00  0.00    +0.000 NA
ATOM      5  C   UNL     1       7.748  -1.302  24.079  0.00  0.00    +0.000 C 
ATOM      6  C   UNL     1       8.166   0.067  23.575  0.00  0.00    +0.000 C 
ENDROOT
BRANCH   1   7
ATOM      7  C   UNL     1       7.681  -0.329  21.331  0.00  0.00    +0.000 C 
BRANCH   7   8
ATOM      8  N   UNL     1       7.511   0.704  20.375  0.00  0.00    +0.000 NA
BRANCH   8  10
ATOM      9  C   UNL     1       6.347   2.490  21.508  0.00  0.00    +0.000 C 
ATOM     10  C   UNL     1       6.244   1.329  20.517  0.00  0.00    +0.000 C 
ENDBRANCH   8  10
BRANCH   8  11
ATOM     11  C   UNL     1       7.696   0.229  19.060  0.00  0.00    +0.000 C 
BRANCH  11  12
ATOM     12  C   UNL     1       6.410   0.093  18.280  0.00  0.00    +0.000 C 
ATOM     13  O   UNL     1       5.990  -0.999  17.937  0.00  0.00    +0.000 OA
ATOM     14  O   UNL     1       6.408   1.109  17.388  0.00  0.00    +0.000 OA
ENDBRANCH  11  12
ENDBRANCH   8  11
ENDBRANCH   7   8
ENDBRANCH   1   7
BRANCH   4  15
ATOM     15  C   UNL     1       8.690  -3.402  23.735  0.00  0.00    +0.000 C 
BRANCH  15  16
ATOM     16  N   UNL     1       7.330  -3.848  23.969  0.00  0.00    +0.000 NA
ATOM     17  C   UNL     1       6.829  -4.361  22.748  0.00  0.00    +0.000 C 
ATOM     18  C   UNL     1       6.211  -5.740  22.918  0.00  0.00    +0.000 C 
ATOM     19  N   UNL     1       5.279  -5.629  24.084  0.00  0.00    +0.000 N 
ATOM     20  C   UNL     1       5.991  -5.341  25.352  0.00  0.00    +0.000 C 
ATOM     21  C   UNL     1       7.377  -4.840  24.985  0.00  0.00    +0.000 C 
ATOM     22  C   UNL     1       4.122  -4.979  23.855  0.00  0.00    +0.000 C 
ATOM     23  O   UNL     1       3.631  -4.912  22.752  0.00  0.00    +0.000 OA
ATOM     24  N   UNL     1       3.910  -4.048  24.792  0.00  0.00    +0.000 NA
ATOM     25  C   UNL     1       4.937  -3.088  25.137  0.00  0.00    +0.000 C 
ENDBRANCH  15  16
ENDBRANCH   4  15
TORSDOF 7
ENDMDL
MODEL 3
REMARK VINA RESULT:      -6.5      2.105      8.444
REMARK  Name = 
REMARK  7 active torsions:
REMARK  status: ('A' for Active; 'I' for Inactive)
REMARK    1  A    between atoms: C_2  and  N_3
REMARK    2  A    between atoms: N_3  and  C_4
REMARK    3  A    between atoms: N_3  and  C_8
REMARK    4  A    between atoms: C_4  and  C_5
REMARK    5  A    between atoms: C_8  and  N_9
REMARK    6  A    between atoms: N_12  and  C_15
REMARK    7  A    between atoms: C_15  and  N_16
REMARK                            x       y       z     vdW  Elec       q    Type
REMARK                         _______ _______ _______ _____ _____    ______ ____
ROOT
ATOM      1  N   UNL     1       7.763  -1.579  21.827  0.00  0.00    +0.000 NA
ATOM      2  C   UNL     1       6.739  -2.391  22.426  0.00  0.00    +0.000 C 
ATOM      3  C   UNL     1       7.372  -3.618  23.069  0.00  0.00    +0.000 C 
ATOM      4  N   UNL     1       8.109  -3.230  24.237  0.00  0.00    +0.000 NA
ATOM      5  C   UNL     1       8.936  -2.108  23.888  0.00  0.00    +0.000 C 
ATOM      6  C   UNL     1       9.026  -1.974  22.379  0.00  0.00    +0.000 C 
ENDROOT
BRANCH   1   7
ATOM      7  C   UNL     1       7.519  -0.209  22.189  0.00  0.00    +0.000 C 
BRANCH   7   8
ATOM      8  N   UNL     1       7.817   0.678  21.122  0.00  0.00    +0.000 NA
BRANCH   8  10
ATOM      9  C   UNL     1       9.871   1.630  21.960  0.00  0.00    +0.000 C 
ATOM     10  C   UNL     1       8.404   1.878  21.604  0.00  0.00    +0.000 C 
ENDBRANCH   8  10
BRANCH   8  11
ATOM     11  C   UNL     1       6.675   0.952  20.342  0.00  0.00    +0.000 C 
BRANCH  11  12
ATOM     12  C   UNL     1       6.746   0.379  18.946  0.00  0.00    +0.000 C 
ATOM     13  O   UNL     1       7.803   0.002  18.469  0.00  0.00    +0.000 OA
ATOM     14  O   UNL     1       5.914   1.133  18.193  0.00  0.00    +0.000 OA
ENDBRANCH  11  12
ENDBRANCH   8  11
ENDBRANCH   7   8
ENDBRANCH   1   7
BRANCH   4  15
ATOM     15  C   UNL     1       7.184  -2.807  25.250  0.00  0.00    +0.000 C 
BRANCH  15  16
ATOM     16  N   UNL     1       6.347  -3.914  25.672  0.00  0.00    +0.000 NA
ATOM     17  C   UNL     1       6.864  -4.403  26.897  0.00  0.00    +0.000 C 
ATOM     18  C   UNL     1       5.785  -4.533  27.961  0.00  0.00    +0.000 C 
ATOM     19  N   UNL     1       4.659  -5.276  27.311  0.00  0.00    +0.000 N 
ATOM     20  C   UNL     1       4.046  -4.513  26.198  0.00  0.00    +0.000 C 
ATOM     21  C   UNL     1       5.024  -3.418  25.811  0.00  0.00    +0.000 C 
ATOM     22  C   UNL     1       4.849  -6.597  27.135  0.00  0.00    +0.000 C 
ATOM     23  O   UNL     1       5.597  -7.238  27.836  0.00  0.00    +0.000 OA
ATOM     24  N   UNL     1       4.571  -6.950  25.875  0.00  0.00    +0.000 NA
ATOM     25  C   UNL     1       5.140  -6.231  24.754  0.00  0.00    +0.000 C 
ENDBRANCH  15  16
ENDBRANCH   4  15
TORSDOF 7
ENDMDL
MODEL 4
REMARK VINA RESULT:      -6.4      1.496      1.983
REMARK  Name = 
REMARK  7 active torsions:
REMARK  status: ('A' for Active; 'I' for Inactive)
REMARK    1  A    between atoms: C_2  and  N_3
REMARK    2  A    between atoms: N_3  and  C_4
REMARK    3  A    between atoms: N_3  and  C_8
REMARK    4  A    between atoms: C_4  and  C_5
REMARK    5  A    between atoms: C_8  and  N_9
REMARK    6  A    between atoms: N_12  and  C_15
REMARK    7  A    between atoms: C_15  and  N_16
REMARK                            x       y       z     vdW  Elec       q    Type
REMARK                         _______ _______ _______ _____ _____    ______ ____
ROOT
ATOM      1  N   UNL     1       7.257  -5.055  24.638  0.00  0.00    +0.000 NA
ATOM      2  C   UNL     1       7.708  -3.720  24.923  0.00  0.00    +0.000 C 
ATOM      3  C   UNL     1       8.643  -3.250  23.815  0.00  0.00    +0.000 C 
ATOM      4  N   UNL     1       7.895  -3.019  22.613  0.00  0.00    +0.000 NA
ATOM      5  C   UNL     1       7.050  -4.160  22.389  0.00  0.00    +0.000 C 
ATOM      6  C   UNL     1       7.503  -5.324  23.251  0.00  0.00    +0.000 C 
ENDROOT
BRANCH   1   7
ATOM      7  C   UNL     1       5.838  -5.109  24.865  0.00  0.00    +0.000 C 
BRANCH   7   8
ATOM      8  N   UNL     1       5.479  -6.199  25.698  0.00  0.00    +0.000 NA
BRANCH   8  10
ATOM      9  C   UNL     1       3.927  -6.277  23.851  0.00  0.00    +0.000 C 
ATOM     10  C   UNL     1       4.452  -6.979  25.105  0.00  0.00    +0.000 C 
ENDBRANCH   8  10
BRANCH   8  11
ATOM     11  C   UNL     1       5.105  -5.766  26.987  0.00  0.00    +0.000 C 
BRANCH  11  12
ATOM     12  C   UNL     1       6.063  -6.197  28.072  0.00  0.00    +0.000 C 
ATOM     13  O   UNL     1       7.257  -5.959  27.993  0.00  0.00    +0.000 OA
ATOM     14  O   UNL     1       5.660  -7.429  28.455  0.00  0.00    +0.000 OA
ENDBRANCH  11  12
ENDBRANCH   8  11
ENDBRANCH   7   8
ENDBRANCH   1   7
BRANCH   4  15
ATOM     15  C   UNL     1       7.056  -1.870  22.801  0.00  0.00    +0.000 C 
BRANCH  15  16
ATOM     16  N   UNL     1       7.859  -0.690  23.061  0.00  0.00    +0.000 NA
ATOM     17  C   UNL     1       8.215  -0.127  21.811  0.00  0.00    +0.000 C 
ATOM     18  C   UNL     1       7.910   1.362  21.747  0.00  0.00    +0.000 C 
ATOM     19  N   UNL     1       8.497   1.952  22.992  0.00  0.00    +0.000 N 
ATOM     20  C   UNL     1       7.836   1.452  24.221  0.00  0.00    +0.000 C 
ATOM     21  C   UNL     1       7.069   0.197  23.840  0.00  0.00    +0.000 C 
ATOM     22  C   UNL     1       9.837   2.079  23.009  0.00  0.00    +0.000 C 
ATOM     23  O   UNL     1      10.486   2.184  21.994  0.00  0.00    +0.000 OA
ATOM     24  N   UNL     1      10.346   1.564  24.134  0.00  0.00    +0.000 NA
ATOM     25  C   UNL     1       9.986   0.232  24.575  0.00  0.00    +0.000 C 
ENDBRANCH  15  16
ENDBRANCH   4  15
TORSDOF 7
ENDMDL
MODEL 5
REMARK VINA RESULT:      -6.3      1.865      2.591
REMARK  Name = 
REMARK  7 active torsions:
REMARK  status: ('A' for Active; 'I' for Inactive)
REMARK    1  A    between atoms: C_2  and  N_3
REMARK    2  A    between atoms: N_3  and  C_4
REMARK    3  A    between atoms: N_3  and  C_8
REMARK    4  A    between atoms: C_4  and  C_5
REMARK    5  A    between atoms: C_8  and  N_9
REMARK    6  A    between atoms: N_12  and  C_15
REMARK    7  A    between atoms: C_15  and  N_16
REMARK                            x       y       z     vdW  Elec       q    Type
REMARK                         _______ _______ _______ _____ _____    ______ ____
ROOT
ATOM      1  N   UNL     1       5.481  -5.182  23.753  0.00  0.00    +0.000 NA
ATOM      2  C   UNL     1       6.857  -5.325  23.365  0.00  0.00    +0.000 C 
ATOM      3  C   UNL     1       7.106  -4.553  22.075  0.00  0.00    +0.000 C 
ATOM      4  N   UNL     1       7.056  -3.143  22.334  0.00  0.00    +0.000 NA
ATOM      5  C   UNL     1       5.872  -2.874  23.103  0.00  0.00    +0.000 C 
ATOM      6  C   UNL     1       4.930  -4.063  23.045  0.00  0.00    +0.000 C 
ENDROOT
BRANCH   1   7
ATOM      7  C   UNL     1       5.439  -4.893  25.161  0.00  0.00    +0.000 C 
BRANCH   7   8
ATOM      8  N   UNL     1       5.321  -6.074  25.938  0.00  0.00    +0.000 NA
BRANCH   8  10
ATOM      9  C   UNL     1       3.031  -6.817  26.114  0.00  0.00    +0.000 C 
ATOM     10  C   UNL     1       4.364  -6.961  25.378  0.00  0.00    +0.000 C 
ENDBRANCH   8  10
BRANCH   8  11
ATOM     11  C   UNL     1       5.014  -5.782  27.283  0.00  0.00    +0.000 C 
BRANCH  11  12
ATOM     12  C   UNL     1       6.077  -6.231  28.257  0.00  0.00    +0.000 C 
ATOM     13  O   UNL     1       7.254  -5.974  28.072  0.00  0.00    +0.000 OA
ATOM     14  O   UNL     1       5.726  -7.479  28.639  0.00  0.00    +0.000 OA
ENDBRANCH  11  12
ENDBRANCH   8  11
ENDBRANCH   7   8
ENDBRANCH   1   7
BRANCH   4  15
ATOM     15  C   UNL     1       8.197  -2.776  23.125  0.00  0.00    +0.000 C 
BRANCH  15  16
ATOM     16  N   UNL     1       8.469  -1.357  23.001  0.00  0.00    +0.000 NA
ATOM     17  C   UNL     1       9.215  -0.960  24.137  0.00  0.00    +0.000 C 
ATOM     18  C   UNL     1      10.463  -0.179  23.756  0.00  0.00    +0.000 C 
ATOM     19  N   UNL     1      10.008   0.874  22.795  0.00  0.00    +0.000 N 
ATOM     20  C   UNL     1       9.484   0.300  21.533  0.00  0.00    +0.000 C 
ATOM     21  C   UNL     1       9.193  -1.167  21.794  0.00  0.00    +0.000 C 
ATOM     22  C   UNL     1       9.343   1.915  23.332  0.00  0.00    +0.000 C 
ATOM     23  O   UNL     1       9.501   2.254  24.482  0.00  0.00    +0.000 OA
ATOM     24  N   UNL     1       8.204   2.141  22.669  0.00  0.00    +0.000 NA
ATOM     25  C   UNL     1       7.271   1.066  22.399  0.00  0.00    +0.000 C 
ENDBRANCH  15  16
ENDBRANCH   4  15
TORSDOF 7
ENDMDL
MODEL 6
REMARK VINA RESULT:      -6.3      1.814      2.514
REMARK  Name = 
REMARK  7 active torsions:
REMARK  status: ('A' for Active; 'I' for Inactive)
REMARK    1  A    between atoms: C_2  and  N_3
REMARK    2  A    between atoms: N_3  and  C_4
REMARK    3  A    between atoms: N_3  and  C_8
REMARK    4  A    between atoms: C_4  and  C_5
REMARK    5  A    between atoms: C_8  and  N_9
REMARK    6  A    between atoms: N_12  and  C_15
REMARK    7  A    between atoms: C_15  and  N_16
REMARK                            x       y       z     vdW  Elec       q    Type
REMARK                         _______ _______ _______ _____ _____    ______ ____
ROOT
ATOM      1  N   UNL     1       7.919  -4.927  25.401  0.00  0.00    +0.000 NA
ATOM      2  C   UNL     1       8.574  -3.668  25.630  0.00  0.00    +0.000 C 
ATOM      3  C   UNL     1       9.395  -3.290  24.403  0.00  0.00    +0.000 C 
ATOM      4  N   UNL     1       8.520  -2.934  23.323  0.00  0.00    +0.000 NA
ATOM      5  C   UNL     1       7.512  -3.952  23.213  0.00  0.00    +0.000 C 
ATOM      6  C   UNL     1       7.929  -5.187  23.991  0.00  0.00    +0.000 C 
ENDROOT
BRANCH   1   7
ATOM      7  C   UNL     1       6.551  -4.807  25.830  0.00  0.00    +0.000 C 
BRANCH   7   8
ATOM      8  N   UNL     1       6.082  -6.002  26.434  0.00  0.00    +0.000 NA
BRANCH   8  10
ATOM      9  C   UNL     1       4.255  -5.498  24.939  0.00  0.00    +0.000 C 
ATOM     10  C   UNL     1       5.044  -6.590  25.664  0.00  0.00    +0.000 C 
ENDBRANCH   8  10
BRANCH   8  11
ATOM     11  C   UNL     1       5.664  -5.782  27.763  0.00  0.00    +0.000 C 
BRANCH  11  12
ATOM     12  C   UNL     1       5.426  -7.054  28.540  0.00  0.00    +0.000 C 
ATOM     13  O   UNL     1       4.430  -7.197  29.230  0.00  0.00    +0.000 OA
ATOM     14  O   UNL     1       6.629  -7.416  29.037  0.00  0.00    +0.000 OA
ENDBRANCH  11  12
ENDBRANCH   8  11
ENDBRANCH   7   8
ENDBRANCH   1   7
BRANCH   4  15
ATOM     15  C   UNL     1       7.872  -1.693  23.641  0.00  0.00    +0.000 C 
BRANCH  15  16
ATOM     16  N   UNL     1       7.493  -0.991  22.430  0.00  0.00    +0.000 NA
ATOM     17  C   UNL     1       7.070   0.309  22.800  0.00  0.00    +0.000 C 
ATOM     18  C   UNL     1       7.755   1.389  21.976  0.00  0.00    +0.000 C 
ATOM     19  N   UNL     1       7.607   0.967  20.548  0.00  0.00    +0.000 N 
ATOM     20  C   UNL     1       8.329  -0.293  20.251  0.00  0.00    +0.000 C 
ATOM     21  C   UNL     1       8.631  -0.960  21.582  0.00  0.00    +0.000 C 
ATOM     22  C   UNL     1       6.383   1.129  20.009  0.00  0.00    +0.000 C 
ATOM     23  O   UNL     1       5.605   1.957  20.420  0.00  0.00    +0.000 OA
ATOM     24  N   UNL     1       5.980   0.004  19.407  0.00  0.00    +0.000 NA
ATOM     25  C   UNL     1       6.038  -1.271  20.091  0.00  0.00    +0.000 C 
ENDBRANCH  15  16
ENDBRANCH   4  15
TORSDOF 7
ENDMDL
MODEL 7
REMARK VINA RESULT:      -6.3      1.424      2.148
REMARK  Name = 
REMARK  7 active torsions:
REMARK  status: ('A' for Active; 'I' for Inactive)
REMARK    1  A    between atoms: C_2  and  N_3
REMARK    2  A    between atoms: N_3  and  C_4
REMARK    3  A    between atoms: N_3  and  C_8
REMARK    4  A    between atoms: C_4  and  C_5
REMARK    5  A    between atoms: C_8  and  N_9
REMARK    6  A    between atoms: N_12  and  C_15
REMARK    7  A    between atoms: C_15  and  N_16
REMARK                            x       y       z     vdW  Elec       q    Type
REMARK                         _______ _______ _______ _____ _____    ______ ____
ROOT
ATOM      1  N   UNL     1       7.675  -5.033  26.375  0.00  0.00    +0.000 NA
ATOM      2  C   UNL     1       9.029  -4.558  26.441  0.00  0.00    +0.000 C 
ATOM      3  C   UNL     1       9.679  -4.678  25.068  0.00  0.00    +0.000 C 
ATOM      4  N   UNL     1       9.109  -3.712  24.173  0.00  0.00    +0.000 NA
ATOM      5  C   UNL     1       7.679  -3.789  24.288  0.00  0.00    +0.000 C 
ATOM      6  C   UNL     1       7.279  -5.070  24.997  0.00  0.00    +0.000 C 
ENDROOT
BRANCH   1   7
ATOM      7  C   UNL     1       6.833  -4.090  27.063  0.00  0.00    +0.000 C 
BRANCH   7   8
ATOM      8  N   UNL     1       5.584  -4.661  27.418  0.00  0.00    +0.000 NA
BRANCH   8  10
ATOM      9  C   UNL     1       3.990  -3.710  25.874  0.00  0.00    +0.000 C 
ATOM     10  C   UNL     1       4.537  -3.709  27.303  0.00  0.00    +0.000 C 
ENDBRANCH   8  10
BRANCH   8  11
ATOM     11  C   UNL     1       5.619  -5.221  28.712  0.00  0.00    +0.000 C 
BRANCH  11  12
ATOM     12  C   UNL     1       5.670  -6.730  28.716  0.00  0.00    +0.000 C 
ATOM     13  O   UNL     1       6.596  -7.331  29.234  0.00  0.00    +0.000 OA
ATOM     14  O   UNL     1       5.230  -7.120  27.498  0.00  0.00    +0.000 OA
ENDBRANCH  11  12
ENDBRANCH   8  11
ENDBRANCH   7   8
ENDBRANCH   1   7
BRANCH   4  15
ATOM     15  C   UNL     1       9.522  -2.400  24.583  0.00  0.00    +0.000 C 
BRANCH  15  16
ATOM     16  N   UNL     1       9.153  -1.414  23.585  0.00  0.00    +0.000 NA
ATOM     17  C   UNL     1       9.345  -0.132  24.155  0.00  0.00    +0.000 C 
ATOM     18  C   UNL     1      10.164   0.778  23.252  0.00  0.00    +0.000 C 
ATOM     19  N   UNL     1       9.533   0.683  21.898  0.00  0.00    +0.000 N 
ATOM     20  C   UNL     1       9.642  -0.676  21.316  0.00  0.00    +0.000 C 
ATOM     21  C   UNL     1       9.983  -1.624  22.453  0.00  0.00    +0.000 C 
ATOM     22  C   UNL     1       8.366   1.338  21.744  0.00  0.00    +0.000 C 
ATOM     23  O   UNL     1       8.074   2.297  22.419  0.00  0.00    +0.000 OA
ATOM     24  N   UNL     1       7.443   0.536  21.200  0.00  0.00    +0.000 NA
ATOM     25  C   UNL     1       7.185  -0.781  21.744  0.00  0.00    +0.000 C 
ENDBRANCH  15  16
ENDBRANCH   4  15
TORSDOF 7
ENDMDL
MODEL 8
REMARK VINA RESULT:      -6.2      2.371      8.452
REMARK  Name = 
REMARK  7 active torsions:
REMARK  status: ('A' for Active; 'I' for Inactive)
REMARK    1  A    between atoms: C_2  and  N_3
REMARK    2  A    between atoms: N_3  and  C_4
REMARK    3  A    between atoms: N_3  and  C_8
REMARK    4  A    between atoms: C_4  and  C_5
REMARK    5  A    between atoms: C_8  and  N_9
REMARK    6  A    between atoms: N_12  and  C_15
REMARK    7  A    between atoms: C_15  and  N_16
REMARK                            x       y       z     vdW  Elec       q    Type
REMARK                         _______ _______ _______ _____ _____    ______ ____
ROOT
ATOM      1  N   UNL     1       7.287  -1.725  21.362  0.00  0.00    +0.000 NA
ATOM      2  C   UNL     1       6.078  -2.476  21.558  0.00  0.00    +0.000 C 
ATOM      3  C   UNL     1       6.421  -3.870  22.070  0.00  0.00    +0.000 C 
ATOM      4  N   UNL     1       6.897  -3.789  23.420  0.00  0.00    +0.000 NA
ATOM      5  C   UNL     1       7.888  -2.750  23.481  0.00  0.00    +0.000 C 
ATOM      6  C   UNL     1       8.342  -2.378  22.081  0.00  0.00    +0.000 C 
ENDROOT
BRANCH   1   7
ATOM      7  C   UNL     1       7.099  -0.414  21.924  0.00  0.00    +0.000 C 
BRANCH   7   8
ATOM      8  N   UNL     1       7.557   0.605  21.050  0.00  0.00    +0.000 NA
BRANCH   8  10
ATOM      9  C   UNL     1       9.758   1.227  21.823  0.00  0.00    +0.000 C 
ATOM     10  C   UNL     1       8.276   1.602  21.760  0.00  0.00    +0.000 C 
ENDBRANCH   8  10
BRANCH   8  11
ATOM     11  C   UNL     1       6.497   1.172  20.314  0.00  0.00    +0.000 C 
BRANCH  11  12
ATOM     12  C   UNL     1       6.400   0.657  18.898  0.00  0.00    +0.000 C 
ATOM     13  O   UNL     1       5.438   0.006  18.526  0.00  0.00    +0.000 OA
ATOM     14  O   UNL     1       7.644   0.244  18.567  0.00  0.00    +0.000 OA
ENDBRANCH  11  12
ENDBRANCH   8  11
ENDBRANCH   7   8
ENDBRANCH   1   7
BRANCH   4  15
ATOM     15  C   UNL     1       5.806  -3.420  24.276  0.00  0.00    +0.000 C 
BRANCH  15  16
ATOM     16  N   UNL     1       5.822  -4.209  25.493  0.00  0.00    +0.000 NA
ATOM     17  C   UNL     1       5.003  -3.551  26.443  0.00  0.00    +0.000 C 
ATOM     18  C   UNL     1       3.990  -4.494  27.073  0.00  0.00    +0.000 C 
ATOM     19  N   UNL     1       4.767  -5.697  27.508  0.00  0.00    +0.000 N 
ATOM     20  C   UNL     1       5.355  -6.435  26.365  0.00  0.00    +0.000 C 
ATOM     21  C   UNL     1       5.330  -5.501  25.167  0.00  0.00    +0.000 C 
ATOM     22  C   UNL     1       5.526  -5.542  28.610  0.00  0.00    +0.000 C 
ATOM     23  O   UNL     1       5.267  -4.721  29.458  0.00  0.00    +0.000 OA
ATOM     24  N   UNL     1       6.773  -5.974  28.390  0.00  0.00    +0.000 NA
ATOM     25  C   UNL     1       7.520  -5.539  27.228  0.00  0.00    +0.000 C 
ENDBRANCH  15  16
ENDBRANCH   4  15
TORSDOF 7
ENDMDL
MODEL 9
REMARK VINA RESULT:      -6.1      2.471      2.825
REMARK  Name = 
REMARK  7 active torsions:
REMARK  status: ('A' for Active; 'I' for Inactive)
REMARK    1  A    between atoms: C_2  and  N_3
REMARK    2  A    between atoms: N_3  and  C_4
REMARK    3  A    between atoms: N_3  and  C_8
REMARK    4  A    between atoms: C_4  and  C_5
REMARK    5  A    between atoms: C_8  and  N_9
REMARK    6  A    between atoms: N_12  and  C_15
REMARK    7  A    between atoms: C_15  and  N_16
REMARK                            x       y       z     vdW  Elec       q    Type
REMARK                         _______ _______ _______ _____ _____    ______ ____
ROOT
ATOM      1  N   UNL     1       7.352  -4.536  26.536  0.00  0.00    +0.000 NA
ATOM      2  C   UNL     1       7.041  -3.257  25.958  0.00  0.00    +0.000 C 
ATOM      3  C   UNL     1       8.310  -2.419  25.862  0.00  0.00    +0.000 C 
ATOM      4  N   UNL     1       9.173  -2.956  24.850  0.00  0.00    +0.000 NA
ATOM      5  C   UNL     1       9.276  -4.374  25.062  0.00  0.00    +0.000 C 
ATOM      6  C   UNL     1       8.770  -4.735  26.446  0.00  0.00    +0.000 C 
ENDROOT
BRANCH   1   7
ATOM      7  C   UNL     1       6.701  -5.553  25.755  0.00  0.00    +0.000 C 
BRANCH   7   8
ATOM      8  N   UNL     1       5.394  -5.163  25.367  0.00  0.00    +0.000 NA
BRANCH   8  10
ATOM      9  C   UNL     1       4.073  -7.096  25.958  0.00  0.00    +0.000 C 
ATOM     10  C   UNL     1       4.424  -5.643  26.286  0.00  0.00    +0.000 C 
ENDBRANCH   8  10
BRANCH   8  11
ATOM     11  C   UNL     1       5.097  -5.581  24.054  0.00  0.00    +0.000 C 
BRANCH  11  12
ATOM     12  C   UNL     1       4.182  -4.636  23.311  0.00  0.00    +0.000 C 
ATOM     13  O   UNL     1       3.051  -4.967  22.995  0.00  0.00    +0.000 OA
ATOM     14  O   UNL     1       4.960  -4.001  22.406  0.00  0.00    +0.000 OA
ENDBRANCH  11  12
ENDBRANCH   8  11
ENDBRANCH   7   8
ENDBRANCH   1   7
BRANCH   4  15
ATOM     15  C   UNL     1       8.574  -2.736  23.565  0.00  0.00    +0.000 C 
BRANCH  15  16
ATOM     16  N   UNL     1       8.565  -1.322  23.240  0.00  0.00    +0.000 NA
ATOM     17  C   UNL     1       9.642  -1.077  22.355  0.00  0.00    +0.000 C 
ATOM     18  C   UNL     1       9.202  -0.305  21.120  0.00  0.00    +0.000 C 
ATOM     19  N   UNL     1       8.413   0.861  21.628  0.00  0.00    +0.000 N 
ATOM     20  C   UNL     1       7.167   0.445  22.315  0.00  0.00    +0.000 C 
ATOM     21  C   UNL     1       7.309  -1.031  22.646  0.00  0.00    +0.000 C 
ATOM     22  C   UNL     1       9.127   1.862  22.178  0.00  0.00    +0.000 C 
ATOM     23  O   UNL     1      10.279   2.069  21.878  0.00  0.00    +0.000 OA
ATOM     24  N   UNL     1       8.626   2.198  23.372  0.00  0.00    +0.000 NA
ATOM     25  C   UNL     1       8.357   1.193  24.379  0.00  0.00    +0.000 C 
ENDBRANCH  15  16
ENDBRANCH   4  15
TORSDOF 7
ENDMDL
