MODEL 1
REMARK VINA RESULT:      -8.2      0.000      0.000
REMARK  Name = 
REMARK  4 active torsions:
REMARK  status: ('A' for Active; 'I' for Inactive)
REMARK    1  A    between atoms: N_8  and  C_11
REMARK    2  A    between atoms: C_11  and  N_12
REMARK    3  A    between atoms: N_20  and  C_21
REMARK    4  A    between atoms: C_29  and  C_33
REMARK                            x       y       z     vdW  Elec       q    Type
REMARK                         _______ _______ _______ _____ _____    ______ ____
ROOT
ATOM      1  N   UNL     1       8.693   1.084  22.491  0.00  0.00    +0.000 NA
ATOM      2  C   UNL     1       7.859   0.511  23.458  0.00  0.00    +0.000 C 
ATOM      3  C   UNL     1       7.274  -0.822  23.014  0.00  0.00    +0.000 C 
ATOM      4  N   UNL     1       8.409  -1.743  22.790  0.00  0.00    +0.000 N 
ATOM      5  C   UNL     1       9.582  -1.152  22.139  0.00  0.00    +0.000 C 
ATOM      6  C   UNL     1       9.154   0.173  21.521  0.00  0.00    +0.000 C 
ATOM      7  C   UNL     1       8.588  -2.726  23.683  0.00  0.00    +0.000 C 
ATOM      8  O   UNL     1       9.646  -3.219  23.941  0.00  0.00    +0.000 OA
ATOM      9  N   UNL     1       7.415  -3.145  24.151  0.00  0.00    +0.000 NA
ENDROOT
BRANCH   9  10
ATOM     10  C   UNL     1       7.152  -4.493  24.398  0.00  0.00    +0.000 C 
ATOM     11  C   UNL     1       8.428  -5.316  24.514  0.00  0.00    +0.000 C 
ATOM     12  C   UNL     1       6.305  -5.118  23.248  0.00  0.00    +0.000 C 
ATOM     13  C   UNL     1       7.108  -5.768  22.220  0.00  0.00    +0.000 C 
ATOM     14  O   UNL     1       5.277  -4.334  22.771  0.00  0.00    +0.000 OA
ATOM     15  C   UNL     1       4.034  -4.958  22.911  0.00  0.00    +0.000 C 
ATOM     16  C   UNL     1       3.634  -5.283  24.425  0.00  0.00    +0.000 C 
ATOM     17  C   UNL     1       4.879  -5.187  25.182  0.00  0.00    +0.000 C 
ATOM     18  C   UNL     1       6.301  -4.736  25.687  0.00  0.00    +0.000 C 
ATOM     19  C   UNL     1       5.916  -3.290  26.138  0.00  0.00    +0.000 C 
ATOM     20  C   UNL     1       4.787  -3.524  24.991  0.00  0.00    +0.000 C 
ATOM     21  C   UNL     1       3.482  -3.263  25.812  0.00  0.00    +0.000 C 
ATOM     22  C   UNL     1       5.536  -6.124  24.128  0.00  0.00    +0.000 C 
BRANCH  18  23
ATOM     23  C   UNL     1       6.816  -5.525  26.709  0.00  0.00    +0.000 C 
ATOM     24  O   UNL     1       6.192  -6.521  26.961  0.00  0.00    +0.000 OA
ATOM     25  O   UNL     1       7.820  -5.062  27.418  0.00  0.00    +0.000 OA
ENDBRANCH  18  23
ENDBRANCH   9  10
BRANCH   1  26
ATOM     26  C   UNL     1       8.157   2.243  21.915  0.00  0.00    +0.000 C 
BRANCH  26  34
ATOM     27  C   UNL     1       7.024   4.329  27.240  0.00  0.00    +0.000 C 
ATOM     28  N   UNL     1       5.883   4.391  26.344  0.00  0.00    +0.000 NA
ATOM     29  C   UNL     1       5.721   3.435  25.408  0.00  0.00    +0.000 C 
ATOM     30  O   UNL     1       5.310   2.334  25.691  0.00  0.00    +0.000 OA
ATOM     31  N   UNL     1       6.671   3.605  24.454  0.00  0.00    +0.000 N 
ATOM     32  C   UNL     1       8.048   3.789  24.863  0.00  0.00    +0.000 C 
ATOM     33  C   UNL     1       9.005   3.403  23.775  0.00  0.00    +0.000 C 
ATOM     34  N   UNL     1       8.506   3.473  22.482  0.00  0.00    +0.000 NA
ATOM     35  C   UNL     1       7.480   4.438  22.325  0.00  0.00    +0.000 C 
ATOM     36  C   UNL     1       6.249   4.045  23.131  0.00  0.00    +0.000 C 
ENDBRANCH  26  34
ENDBRANCH   1  26
TORSDOF 4
ENDMDL
MODEL 2
REMARK VINA RESULT:      -7.7      2.435      4.001
REMARK  Name = 
REMARK  4 active torsions:
REMARK  status: ('A' for Active; 'I' for Inactive)
REMARK    1  A    between atoms: N_8  and  C_11
REMARK    2  A    between atoms: C_11  and  N_12
REMARK    3  A    between atoms: N_20  and  C_21
REMARK    4  A    between atoms: C_29  and  C_33
REMARK                            x       y       z     vdW  Elec       q    Type
REMARK                         _______ _______ _______ _____ _____    ______ ____
ROOT
ATOM      1  N   UNL     1       7.073  -2.231  22.211  0.00  0.00    +0.000 NA
ATOM      2  C   UNL     1       6.327  -2.037  23.379  0.00  0.00    +0.000 C 
ATOM      3  C   UNL     1       5.302  -3.136  23.612  0.00  0.00    +0.000 C 
ATOM      4  N   UNL     1       6.047  -4.405  23.755  0.00  0.00    +0.000 N 
ATOM      5  C   UNL     1       7.180  -4.578  22.841  0.00  0.00    +0.000 C 
ATOM      6  C   UNL     1       7.037  -3.552  21.724  0.00  0.00    +0.000 C 
ATOM      7  C   UNL     1       6.113  -4.944  24.980  0.00  0.00    +0.000 C 
ATOM      8  O   UNL     1       7.011  -5.631  25.368  0.00  0.00    +0.000 OA
ATOM      9  N   UNL     1       4.993  -4.698  25.654  0.00  0.00    +0.000 NA
ENDROOT
BRANCH   9  10
ATOM     10  C   UNL     1       4.406  -5.649  26.491  0.00  0.00    +0.000 C 
ATOM     11  C   UNL     1       4.802  -7.070  26.115  0.00  0.00    +0.000 C 
ATOM     12  C   UNL     1       2.850  -5.571  26.423  0.00  0.00    +0.000 C 
ATOM     13  C   UNL     1       2.263  -6.492  25.458  0.00  0.00    +0.000 C 
ATOM     14  O   UNL     1       2.316  -4.300  26.410  0.00  0.00    +0.000 OA
ATOM     15  C   UNL     1       1.455  -4.084  27.490  0.00  0.00    +0.000 C 
ATOM     16  C   UNL     1       2.155  -4.220  28.920  0.00  0.00    +0.000 C 
ATOM     17  C   UNL     1       3.407  -4.929  28.671  0.00  0.00    +0.000 C 
ATOM     18  C   UNL     1       4.741  -5.438  28.004  0.00  0.00    +0.000 C 
ATOM     19  C   UNL     1       5.513  -4.079  28.013  0.00  0.00    +0.000 C 
ATOM     20  C   UNL     1       3.985  -3.521  27.969  0.00  0.00    +0.000 C 
ATOM     21  C   UNL     1       3.976  -2.604  29.235  0.00  0.00    +0.000 C 
ATOM     22  C   UNL     1       2.592  -5.994  27.882  0.00  0.00    +0.000 C 
BRANCH  18  23
ATOM     23  C   UNL     1       5.378  -6.450  28.712  0.00  0.00    +0.000 C 
ATOM     24  O   UNL     1       4.671  -7.103  29.433  0.00  0.00    +0.000 OA
ATOM     25  O   UNL     1       6.689  -6.517  28.675  0.00  0.00    +0.000 OA
ENDBRANCH  18  23
ENDBRANCH   9  10
BRANCH   1  26
ATOM     26  C   UNL     1       6.790  -1.291  21.212  0.00  0.00    +0.000 C 
BRANCH  26  34
ATOM     27  C   UNL     1      11.039   1.350  24.205  0.00  0.00    +0.000 C 
ATOM     28  N   UNL     1       9.765   2.041  24.285  0.00  0.00    +0.000 NA
ATOM     29  C   UNL     1       8.620   1.329  24.268  0.00  0.00    +0.000 C 
ATOM     30  O   UNL     1       8.237   0.723  25.240  0.00  0.00    +0.000 OA
ATOM     31  N   UNL     1       8.445   0.834  23.017  0.00  0.00    +0.000 N 
ATOM     32  C   UNL     1       9.554   0.166  22.367  0.00  0.00    +0.000 C 
ATOM     33  C   UNL     1       9.082  -0.783  21.305  0.00  0.00    +0.000 C 
ATOM     34  N   UNL     1       7.844  -0.497  20.749  0.00  0.00    +0.000 NA
ATOM     35  C   UNL     1       7.518   0.882  20.776  0.00  0.00    +0.000 C 
ATOM     36  C   UNL     1       7.353   1.364  22.211  0.00  0.00    +0.000 C 
ENDBRANCH  26  34
ENDBRANCH   1  26
TORSDOF 4
ENDMDL
MODEL 3
REMARK VINA RESULT:      -7.7      2.710      8.074
REMARK  Name = 
REMARK  4 active torsions:
REMARK  status: ('A' for Active; 'I' for Inactive)
REMARK    1  A    between atoms: N_8  and  C_11
REMARK    2  A    between atoms: C_11  and  N_12
REMARK    3  A    between atoms: N_20  and  C_21
REMARK    4  A    between atoms: C_29  and  C_33
REMARK                            x       y       z     vdW  Elec       q    Type
REMARK                         _______ _______ _______ _____ _____    ______ ____
ROOT
ATOM      1  N   UNL     1       7.051  -4.531  25.783  0.00  0.00    +0.000 NA
ATOM      2  C   UNL     1       6.494  -3.247  25.788  0.00  0.00    +0.000 C 
ATOM      3  C   UNL     1       7.470  -2.181  25.311  0.00  0.00    +0.000 C 
ATOM      4  N   UNL     1       7.832  -2.514  23.916  0.00  0.00    +0.000 N 
ATOM      5  C   UNL     1       8.039  -3.939  23.641  0.00  0.00    +0.000 C 
ATOM      6  C   UNL     1       8.199  -4.653  24.978  0.00  0.00    +0.000 C 
ATOM      7  C   UNL     1       7.335  -1.732  22.949  0.00  0.00    +0.000 C 
ATOM      8  O   UNL     1       7.110  -2.098  21.833  0.00  0.00    +0.000 OA
ATOM      9  N   UNL     1       7.234  -0.476  23.376  0.00  0.00    +0.000 NA
ENDROOT
BRANCH   9  10
ATOM     10  C   UNL     1       7.530   0.614  22.556  0.00  0.00    +0.000 C 
ATOM     11  C   UNL     1       7.029   0.415  21.132  0.00  0.00    +0.000 C 
ATOM     12  C   UNL     1       9.068   0.850  22.473  0.00  0.00    +0.000 C 
ATOM     13  C   UNL     1       9.697   0.198  21.331  0.00  0.00    +0.000 C 
ATOM     14  O   UNL     1       9.756   0.728  23.661  0.00  0.00    +0.000 OA
ATOM     15  C   UNL     1      10.426   1.907  24.001  0.00  0.00    +0.000 C 
ATOM     16  C   UNL     1       9.465   3.167  24.211  0.00  0.00    +0.000 C 
ATOM     17  C   UNL     1       8.198   2.794  23.588  0.00  0.00    +0.000 C 
ATOM     18  C   UNL     1       6.954   1.967  23.086  0.00  0.00    +0.000 C 
ATOM     19  C   UNL     1       6.377   1.585  24.487  0.00  0.00    +0.000 C 
ATOM     20  C   UNL     1       7.946   1.757  24.881  0.00  0.00    +0.000 C 
ATOM     21  C   UNL     1       7.842   2.822  26.021  0.00  0.00    +0.000 C 
ATOM     22  C   UNL     1       8.999   2.383  22.318  0.00  0.00    +0.000 C 
BRANCH  18  23
ATOM     23  C   UNL     1       6.073   2.694  22.294  0.00  0.00    +0.000 C 
ATOM     24  O   UNL     1       6.577   3.522  21.582  0.00  0.00    +0.000 OA
ATOM     25  O   UNL     1       4.783   2.550  22.491  0.00  0.00    +0.000 OA
ENDBRANCH  18  23
ENDBRANCH   9  10
BRANCH   1  26
ATOM     26  C   UNL     1       7.248  -5.052  27.069  0.00  0.00    +0.000 C 
BRANCH  26  34
ATOM     27  C   UNL     1       1.455  -5.688  27.209  0.00  0.00    +0.000 C 
ATOM     28  N   UNL     1       1.975  -4.919  28.325  0.00  0.00    +0.000 NA
ATOM     29  C   UNL     1       3.058  -4.136  28.144  0.00  0.00    +0.000 C 
ATOM     30  O   UNL     1       2.983  -3.072  27.576  0.00  0.00    +0.000 OA
ATOM     31  N   UNL     1       4.143  -4.936  27.994  0.00  0.00    +0.000 N 
ATOM     32  C   UNL     1       4.070  -6.048  27.068  0.00  0.00    +0.000 C 
ATOM     33  C   UNL     1       5.431  -6.464  26.595  0.00  0.00    +0.000 C 
ATOM     34  N   UNL     1       6.484  -6.160  27.446  0.00  0.00    +0.000 NA
ATOM     35  C   UNL     1       6.107  -6.103  28.811  0.00  0.00    +0.000 C 
ATOM     36  C   UNL     1       5.145  -4.946  29.051  0.00  0.00    +0.000 C 
ENDBRANCH  26  34
ENDBRANCH   1  26
TORSDOF 4
ENDMDL
MODEL 4
REMARK VINA RESULT:      -7.6      2.870      8.048
REMARK  Name = 
REMARK  4 active torsions:
REMARK  status: ('A' for Active; 'I' for Inactive)
REMARK    1  A    between atoms: N_8  and  C_11
REMARK    2  A    between atoms: C_11  and  N_12
REMARK    3  A    between atoms: N_20  and  C_21
REMARK    4  A    between atoms: C_29  and  C_33
REMARK                            x       y       z     vdW  Elec       q    Type
REMARK                         _______ _______ _______ _____ _____    ______ ____
ROOT
ATOM      1  N   UNL     1       6.976  -4.915  26.232  0.00  0.00    +0.000 NA
ATOM      2  C   UNL     1       6.427  -3.683  25.857  0.00  0.00    +0.000 C 
ATOM      3  C   UNL     1       7.488  -2.646  25.518  0.00  0.00    +0.000 C 
ATOM      4  N   UNL     1       8.258  -3.168  24.369  0.00  0.00    +0.000 N 
ATOM      5  C   UNL     1       8.557  -4.603  24.410  0.00  0.00    +0.000 C 
ATOM      6  C   UNL     1       8.316  -5.088  25.834  0.00  0.00    +0.000 C 
ATOM      7  C   UNL     1       8.066  -2.579  23.182  0.00  0.00    +0.000 C 
ATOM      8  O   UNL     1       8.194  -3.128  22.127  0.00  0.00    +0.000 OA
ATOM      9  N   UNL     1       7.824  -1.281  23.343  0.00  0.00    +0.000 NA
ENDROOT
BRANCH   9  10
ATOM     10  C   UNL     1       8.340  -0.316  22.476  0.00  0.00    +0.000 C 
ATOM     11  C   UNL     1       8.198  -0.720  21.015  0.00  0.00    +0.000 C 
ATOM     12  C   UNL     1       9.857  -0.078  22.742  0.00  0.00    +0.000 C 
ATOM     13  C   UNL     1      10.730  -0.879  21.894  0.00  0.00    +0.000 C 
ATOM     14  O   UNL     1      10.230  -0.024  24.069  0.00  0.00    +0.000 OA
ATOM     15  C   UNL     1      10.826   1.198  24.395  0.00  0.00    +0.000 C 
ATOM     16  C   UNL     1       9.875   2.466  24.183  0.00  0.00    +0.000 C 
ATOM     17  C   UNL     1       8.791   1.995  23.326  0.00  0.00    +0.000 C 
ATOM     18  C   UNL     1       7.687   1.094  22.654  0.00  0.00    +0.000 C 
ATOM     19  C   UNL     1       6.774   0.909  23.909  0.00  0.00    +0.000 C 
ATOM     20  C   UNL     1       8.202   1.151  24.649  0.00  0.00    +0.000 C 
ATOM     21  C   UNL     1       7.850   2.365  25.567  0.00  0.00    +0.000 C 
ATOM     22  C   UNL     1       9.867   1.416  22.363  0.00  0.00    +0.000 C 
BRANCH  18  23
ATOM     23  C   UNL     1       7.045   1.692  21.576  0.00  0.00    +0.000 C 
ATOM     24  O   UNL     1       7.109   2.892  21.534  0.00  0.00    +0.000 OA
ATOM     25  O   UNL     1       6.297   0.947  20.795  0.00  0.00    +0.000 OA
ENDBRANCH  18  23
ENDBRANCH   9  10
BRANCH   1  26
ATOM     26  C   UNL     1       6.783  -5.216  27.587  0.00  0.00    +0.000 C 
BRANCH  26  34
ATOM     27  C   UNL     1       1.455  -6.413  25.547  0.00  0.00    +0.000 C 
ATOM     28  N   UNL     1       1.467  -5.346  26.531  0.00  0.00    +0.000 NA
ATOM     29  C   UNL     1       2.529  -4.519  26.602  0.00  0.00    +0.000 C 
ATOM     30  O   UNL     1       2.701  -3.637  25.794  0.00  0.00    +0.000 OA
ATOM     31  N   UNL     1       3.576  -5.212  27.118  0.00  0.00    +0.000 N 
ATOM     32  C   UNL     1       3.890  -6.515  26.571  0.00  0.00    +0.000 C 
ATOM     33  C   UNL     1       5.323  -6.886  26.813  0.00  0.00    +0.000 C 
ATOM     34  N   UNL     1       5.927  -6.275  27.902  0.00  0.00    +0.000 NA
ATOM     35  C   UNL     1       5.016  -5.930  28.932  0.00  0.00    +0.000 C 
ATOM     36  C   UNL     1       4.047  -4.859  28.451  0.00  0.00    +0.000 C 
ENDBRANCH  26  34
ENDBRANCH   1  26
TORSDOF 4
ENDMDL
MODEL 5
REMARK VINA RESULT:      -7.6      2.901      8.196
REMARK  Name = 
REMARK  4 active torsions:
REMARK  status: ('A' for Active; 'I' for Inactive)
REMARK    1  A    between atoms: N_8  and  C_11
REMARK    2  A    between atoms: C_11  and  N_12
REMARK    3  A    between atoms: N_20  and  C_21
REMARK    4  A    between atoms: C_29  and  C_33
REMARK                            x       y       z     vdW  Elec       q    Type
REMARK                         _______ _______ _______ _____ _____    ______ ____
ROOT
ATOM      1  N   UNL     1       4.487  -4.861  23.678  0.00  0.00    +0.000 NA
ATOM      2  C   UNL     1       4.456  -3.490  23.957  0.00  0.00    +0.000 C 
ATOM      3  C   UNL     1       5.836  -2.851  23.922  0.00  0.00    +0.000 C 
ATOM      4  N   UNL     1       6.362  -3.024  22.550  0.00  0.00    +0.000 N 
ATOM      5  C   UNL     1       6.090  -4.324  21.929  0.00  0.00    +0.000 C 
ATOM      6  C   UNL     1       5.664  -5.286  23.031  0.00  0.00    +0.000 C 
ATOM      7  C   UNL     1       6.425  -1.934  21.774  0.00  0.00    +0.000 C 
ATOM      8  O   UNL     1       6.346  -1.950  20.582  0.00  0.00    +0.000 OA
ATOM      9  N   UNL     1       6.696  -0.859  22.508  0.00  0.00    +0.000 NA
ENDROOT
BRANCH   9  10
ATOM     10  C   UNL     1       7.552   0.149  22.062  0.00  0.00    +0.000 C 
ATOM     11  C   UNL     1       7.444   0.372  20.559  0.00  0.00    +0.000 C 
ATOM     12  C   UNL     1       9.040  -0.203  22.368  0.00  0.00    +0.000 C 
ATOM     13  C   UNL     1       9.721  -0.864  21.262  0.00  0.00    +0.000 C 
ATOM     14  O   UNL     1       9.279  -0.755  23.609  0.00  0.00    +0.000 OA
ATOM     15  C   UNL     1      10.169   0.017  24.361  0.00  0.00    +0.000 C 
ATOM     16  C   UNL     1       9.653   1.499  24.664  0.00  0.00    +0.000 C 
ATOM     17  C   UNL     1       8.568   1.732  23.714  0.00  0.00    +0.000 C 
ATOM     18  C   UNL     1       7.322   1.523  22.773  0.00  0.00    +0.000 C 
ATOM     19  C   UNL     1       6.276   1.180  23.882  0.00  0.00    +0.000 C 
ATOM     20  C   UNL     1       7.633   0.685  24.630  0.00  0.00    +0.000 C 
ATOM     21  C   UNL     1       7.559   1.524  25.947  0.00  0.00    +0.000 C 
ATOM     22  C   UNL     1       9.520   1.246  22.582  0.00  0.00    +0.000 C 
BRANCH  18  23
ATOM     23  C   UNL     1       6.991   2.640  22.014  0.00  0.00    +0.000 C 
ATOM     24  O   UNL     1       7.791   3.537  22.036  0.00  0.00    +0.000 OA
ATOM     25  O   UNL     1       5.794   2.705  21.478  0.00  0.00    +0.000 OA
ENDBRANCH  18  23
ENDBRANCH   9  10
BRANCH   1  26
ATOM     26  C   UNL     1       4.177  -5.658  24.788  0.00  0.00    +0.000 C 
BRANCH  26  34
ATOM     27  C   UNL     1       4.825  -5.507  30.580  0.00  0.00    +0.000 C 
ATOM     28  N   UNL     1       4.399  -6.803  30.083  0.00  0.00    +0.000 NA
ATOM     29  C   UNL     1       4.821  -7.223  28.873  0.00  0.00    +0.000 C 
ATOM     30  O   UNL     1       5.943  -7.639  28.703  0.00  0.00    +0.000 OA
ATOM     31  N   UNL     1       4.195  -6.484  27.923  0.00  0.00    +0.000 N 
ATOM     32  C   UNL     1       4.170  -5.042  28.061  0.00  0.00    +0.000 C 
ATOM     33  C   UNL     1       3.975  -4.363  26.738  0.00  0.00    +0.000 C 
ATOM     34  N   UNL     1       3.335  -5.114  25.764  0.00  0.00    +0.000 NA
ATOM     35  C   UNL     1       2.445  -6.083  26.293  0.00  0.00    +0.000 C 
ATOM     36  C   UNL     1       3.211  -7.142  27.075  0.00  0.00    +0.000 C 
ENDBRANCH  26  34
ENDBRANCH   1  26
TORSDOF 4
ENDMDL
MODEL 6
REMARK VINA RESULT:      -7.5      2.198      8.481
REMARK  Name = 
REMARK  4 active torsions:
REMARK  status: ('A' for Active; 'I' for Inactive)
REMARK    1  A    between atoms: N_8  and  C_11
REMARK    2  A    between atoms: C_11  and  N_12
REMARK    3  A    between atoms: N_20  and  C_21
REMARK    4  A    between atoms: C_29  and  C_33
REMARK                            x       y       z     vdW  Elec       q    Type
REMARK                         _______ _______ _______ _____ _____    ______ ____
ROOT
ATOM      1  N   UNL     1       8.667  -2.254  23.649  0.00  0.00    +0.000 NA
ATOM      2  C   UNL     1       7.958  -1.350  24.449  0.00  0.00    +0.000 C 
ATOM      3  C   UNL     1       8.463   0.079  24.311  0.00  0.00    +0.000 C 
ATOM      4  N   UNL     1       8.271   0.474  22.899  0.00  0.00    +0.000 N 
ATOM      5  C   UNL     1       8.579  -0.560  21.906  0.00  0.00    +0.000 C 
ATOM      6  C   UNL     1       9.388  -1.647  22.603  0.00  0.00    +0.000 C 
ATOM      7  C   UNL     1       7.300   1.359  22.636  0.00  0.00    +0.000 C 
ATOM      8  O   UNL     1       6.702   1.417  21.602  0.00  0.00    +0.000 OA
ATOM      9  N   UNL     1       7.178   2.224  23.638  0.00  0.00    +0.000 NA
ENDROOT
BRANCH   9  10
ATOM     10  C   UNL     1       6.928   3.580  23.423  0.00  0.00    +0.000 C 
ATOM     11  C   UNL     1       7.232   4.001  21.992  0.00  0.00    +0.000 C 
ATOM     12  C   UNL     1       7.806   4.467  24.358  0.00  0.00    +0.000 C 
ATOM     13  C   UNL     1       9.054   4.903  23.745  0.00  0.00    +0.000 C 
ATOM     14  O   UNL     1       7.922   4.027  25.660  0.00  0.00    +0.000 OA
ATOM     15  C   UNL     1       7.452   4.973  26.575  0.00  0.00    +0.000 C 
ATOM     16  C   UNL     1       5.905   5.337  26.402  0.00  0.00    +0.000 C 
ATOM     17  C   UNL     1       5.544   4.860  25.070  0.00  0.00    +0.000 C 
ATOM     18  C   UNL     1       5.459   4.003  23.751  0.00  0.00    +0.000 C 
ATOM     19  C   UNL     1       4.847   2.709  24.379  0.00  0.00    +0.000 C 
ATOM     20  C   UNL     1       5.621   3.301  25.682  0.00  0.00    +0.000 C 
ATOM     21  C   UNL     1       4.441   3.389  26.703  0.00  0.00    +0.000 C 
ATOM     22  C   UNL     1       6.787   5.613  24.515  0.00  0.00    +0.000 C 
BRANCH  18  23
ATOM     23  C   UNL     1       4.671   4.571  22.755  0.00  0.00    +0.000 C 
ATOM     24  O   UNL     1       4.554   5.766  22.805  0.00  0.00    +0.000 OA
ATOM     25  O   UNL     1       3.997   3.777  21.955  0.00  0.00    +0.000 OA
ENDBRANCH  18  23
ENDBRANCH   9  10
BRANCH   1  26
ATOM     26  C   UNL     1       9.456  -3.145  24.389  0.00  0.00    +0.000 C 
BRANCH  26  34
ATOM     27  C   UNL     1       4.991  -6.454  26.149  0.00  0.00    +0.000 C 
ATOM     28  N   UNL     1       5.927  -6.139  27.213  0.00  0.00    +0.000 NA
ATOM     29  C   UNL     1       6.567  -4.952  27.206  0.00  0.00    +0.000 C 
ATOM     30  O   UNL     1       6.010  -3.930  27.531  0.00  0.00    +0.000 OA
ATOM     31  N   UNL     1       7.479  -4.965  26.201  0.00  0.00    +0.000 N 
ATOM     32  C   UNL     1       7.066  -5.410  24.886  0.00  0.00    +0.000 C 
ATOM     33  C   UNL     1       7.952  -4.855  23.811  0.00  0.00    +0.000 C 
ATOM     34  N   UNL     1       9.237  -4.513  24.206  0.00  0.00    +0.000 NA
ATOM     35  C   UNL     1       9.711  -5.275  25.304  0.00  0.00    +0.000 C 
ATOM     36  C   UNL     1       8.893  -4.977  26.553  0.00  0.00    +0.000 C 
ENDBRANCH  26  34
ENDBRANCH   1  26
TORSDOF 4
ENDMDL
MODEL 7
REMARK VINA RESULT:      -7.3      2.128      3.478
REMARK  Name = 
REMARK  4 active torsions:
REMARK  status: ('A' for Active; 'I' for Inactive)
REMARK    1  A    between atoms: N_8  and  C_11
REMARK    2  A    between atoms: C_11  and  N_12
REMARK    3  A    between atoms: N_20  and  C_21
REMARK    4  A    between atoms: C_29  and  C_33
REMARK                            x       y       z     vdW  Elec       q    Type
REMARK                         _______ _______ _______ _____ _____    ______ ____
ROOT
ATOM      1  N   UNL     1       9.080  -2.077  23.278  0.00  0.00    +0.000 NA
ATOM      2  C   UNL     1       8.764  -2.617  24.530  0.00  0.00    +0.000 C 
ATOM      3  C   UNL     1       7.265  -2.701  24.773  0.00  0.00    +0.000 C 
ATOM      4  N   UNL     1       6.704  -3.596  23.738  0.00  0.00    +0.000 N 
ATOM      5  C   UNL     1       7.267  -3.436  22.393  0.00  0.00    +0.000 C 
ATOM      6  C   UNL     1       8.014  -2.109  22.357  0.00  0.00    +0.000 C 
ATOM      7  C   UNL     1       6.295  -4.810  24.131  0.00  0.00    +0.000 C 
ATOM      8  O   UNL     1       6.287  -5.778  23.430  0.00  0.00    +0.000 OA
ATOM      9  N   UNL     1       5.802  -4.755  25.365  0.00  0.00    +0.000 NA
ENDROOT
BRANCH   9  10
ATOM     10  C   UNL     1       4.677  -5.487  25.748  0.00  0.00    +0.000 C 
ATOM     11  C   UNL     1       4.740  -6.931  25.270  0.00  0.00    +0.000 C 
ATOM     12  C   UNL     1       3.376  -4.863  25.160  0.00  0.00    +0.000 C 
ATOM     13  C   UNL     1       2.965  -5.458  23.895  0.00  0.00    +0.000 C 
ATOM     14  O   UNL     1       3.300  -3.487  25.204  0.00  0.00    +0.000 OA
ATOM     15  C   UNL     1       2.194  -3.048  25.937  0.00  0.00    +0.000 C 
ATOM     16  C   UNL     1       2.201  -3.508  27.468  0.00  0.00    +0.000 C 
ATOM     17  C   UNL     1       3.173  -4.595  27.540  0.00  0.00    +0.000 C 
ATOM     18  C   UNL     1       4.440  -5.499  27.294  0.00  0.00    +0.000 C 
ATOM     19  C   UNL     1       5.518  -4.502  27.829  0.00  0.00    +0.000 C 
ATOM     20  C   UNL     1       4.375  -3.441  27.364  0.00  0.00    +0.000 C 
ATOM     21  C   UNL     1       4.149  -2.658  28.698  0.00  0.00    +0.000 C 
ATOM     22  C   UNL     1       2.452  -5.256  26.330  0.00  0.00    +0.000 C 
BRANCH  18  23
ATOM     23  C   UNL     1       4.411  -6.712  27.973  0.00  0.00    +0.000 C 
ATOM     24  O   UNL     1       3.342  -7.030  28.423  0.00  0.00    +0.000 OA
ATOM     25  O   UNL     1       5.546  -7.328  28.212  0.00  0.00    +0.000 OA
ENDBRANCH  18  23
ENDBRANCH   9  10
BRANCH   1  26
ATOM     26  C   UNL     1       9.673  -0.810  23.357  0.00  0.00    +0.000 C 
BRANCH  26  34
ATOM     27  C   UNL     1       7.771   4.230  25.585  0.00  0.00    +0.000 C 
ATOM     28  N   UNL     1       8.897   4.390  24.682  0.00  0.00    +0.000 NA
ATOM     29  C   UNL     1       9.028   3.556  23.630  0.00  0.00    +0.000 C 
ATOM     30  O   UNL     1       8.347   3.673  22.639  0.00  0.00    +0.000 OA
ATOM     31  N   UNL     1       9.382   2.332  24.098  0.00  0.00    +0.000 N 
ATOM     32  C   UNL     1       8.637   1.762  25.201  0.00  0.00    +0.000 C 
ATOM     33  C   UNL     1       8.746   0.267  25.228  0.00  0.00    +0.000 C 
ATOM     34  N   UNL     1       9.878  -0.266  24.628  0.00  0.00    +0.000 NA
ATOM     35  C   UNL     1      10.994   0.608  24.655  0.00  0.00    +0.000 C 
ATOM     36  C   UNL     1      10.725   1.846  23.810  0.00  0.00    +0.000 C 
ENDBRANCH  26  34
ENDBRANCH   1  26
TORSDOF 4
ENDMDL
MODEL 8
REMARK VINA RESULT:      -7.3      2.309      3.642
REMARK  Name = 
REMARK  4 active torsions:
REMARK  status: ('A' for Active; 'I' for Inactive)
REMARK    1  A    between atoms: N_8  and  C_11
REMARK    2  A    between atoms: C_11  and  N_12
REMARK    3  A    between atoms: N_20  and  C_21
REMARK    4  A    between atoms: C_29  and  C_33
REMARK                            x       y       z     vdW  Elec       q    Type
REMARK                         _______ _______ _______ _____ _____    ______ ____
ROOT
ATOM      1  N   UNL     1       8.188  -0.702  22.646  0.00  0.00    +0.000 NA
ATOM      2  C   UNL     1       7.983  -1.415  23.833  0.00  0.00    +0.000 C 
ATOM      3  C   UNL     1       6.508  -1.582  24.170  0.00  0.00    +0.000 C 
ATOM      4  N   UNL     1       5.893  -2.349  23.066  0.00  0.00    +0.000 N 
ATOM      5  C   UNL     1       6.347  -1.993  21.719  0.00  0.00    +0.000 C 
ATOM      6  C   UNL     1       7.057  -0.648  21.809  0.00  0.00    +0.000 C 
ATOM      7  C   UNL     1       5.545  -3.618  23.320  0.00  0.00    +0.000 C 
ATOM      8  O   UNL     1       5.507  -4.484  22.497  0.00  0.00    +0.000 OA
ATOM      9  N   UNL     1       5.146  -3.745  24.582  0.00  0.00    +0.000 NA
ENDROOT
BRANCH   9  10
ATOM     10  C   UNL     1       4.072  -4.560  24.943  0.00  0.00    +0.000 C 
ATOM     11  C   UNL     1       3.152  -4.855  23.766  0.00  0.00    +0.000 C 
ATOM     12  C   UNL     1       3.203  -3.885  26.047  0.00  0.00    +0.000 C 
ATOM     13  C   UNL     1       2.071  -3.133  25.519  0.00  0.00    +0.000 C 
ATOM     14  O   UNL     1       3.902  -3.250  27.052  0.00  0.00    +0.000 OA
ATOM     15  C   UNL     1       3.610  -3.784  28.310  0.00  0.00    +0.000 C 
ATOM     16  C   UNL     1       3.982  -5.331  28.465  0.00  0.00    +0.000 C 
ATOM     17  C   UNL     1       4.150  -5.826  27.102  0.00  0.00    +0.000 C 
ATOM     18  C   UNL     1       4.509  -5.925  25.571  0.00  0.00    +0.000 C 
ATOM     19  C   UNL     1       6.058  -5.775  25.707  0.00  0.00    +0.000 C 
ATOM     20  C   UNL     1       5.592  -4.973  27.043  0.00  0.00    +0.000 C 
ATOM     21  C   UNL     1       6.378  -5.760  28.141  0.00  0.00    +0.000 C 
ATOM     22  C   UNL     1       2.775  -5.188  26.751  0.00  0.00    +0.000 C 
BRANCH  18  23
ATOM     23  C   UNL     1       4.109  -7.113  24.970  0.00  0.00    +0.000 C 
ATOM     24  O   UNL     1       3.321  -7.771  25.596  0.00  0.00    +0.000 OA
ATOM     25  O   UNL     1       4.723  -7.505  23.877  0.00  0.00    +0.000 OA
ENDBRANCH  18  23
ENDBRANCH   9  10
BRANCH   1  26
ATOM     26  C   UNL     1       8.754   0.564  22.853  0.00  0.00    +0.000 C 
BRANCH  26  34
ATOM     27  C   UNL     1       8.250   5.482  25.941  0.00  0.00    +0.000 C 
ATOM     28  N   UNL     1       9.260   5.558  24.901  0.00  0.00    +0.000 NA
ATOM     29  C   UNL     1       9.079   4.881  23.749  0.00  0.00    +0.000 C 
ATOM     30  O   UNL     1       8.317   5.273  22.897  0.00  0.00    +0.000 OA
ATOM     31  N   UNL     1       9.226   3.557  24.005  0.00  0.00    +0.000 N 
ATOM     32  C   UNL     1       8.524   2.980  25.133  0.00  0.00    +0.000 C 
ATOM     33  C   UNL     1       8.320   1.504  24.962  0.00  0.00    +0.000 C 
ATOM     34  N   UNL     1       9.229   0.862  24.133  0.00  0.00    +0.000 NA
ATOM     35  C   UNL     1      10.498   1.494  24.092  0.00  0.00    +0.000 C 
ATOM     36  C   UNL     1      10.388   2.872  23.455  0.00  0.00    +0.000 C 
ENDBRANCH  26  34
ENDBRANCH   1  26
TORSDOF 4
ENDMDL
MODEL 9
REMARK VINA RESULT:      -7.2      3.357      8.352
REMARK  Name = 
REMARK  4 active torsions:
REMARK  status: ('A' for Active; 'I' for Inactive)
REMARK    1  A    between atoms: N_8  and  C_11
REMARK    2  A    between atoms: C_11  and  N_12
REMARK    3  A    between atoms: N_20  and  C_21
REMARK    4  A    between atoms: C_29  and  C_33
REMARK                            x       y       z     vdW  Elec       q    Type
REMARK                         _______ _______ _______ _____ _____    ______ ____
ROOT
ATOM      1  N   UNL     1       6.937  -5.586  25.712  0.00  0.00    +0.000 NA
ATOM      2  C   UNL     1       6.544  -4.617  24.782  0.00  0.00    +0.000 C 
ATOM      3  C   UNL     1       7.012  -3.218  25.157  0.00  0.00    +0.000 C 
ATOM      4  N   UNL     1       8.490  -3.246  25.187  0.00  0.00    +0.000 N 
ATOM      5  C   UNL     1       9.087  -4.450  25.773  0.00  0.00    +0.000 C 
ATOM      6  C   UNL     1       7.997  -5.180  26.547  0.00  0.00    +0.000 C 
ATOM      7  C   UNL     1       9.136  -2.617  24.195  0.00  0.00    +0.000 C 
ATOM      8  O   UNL     1      10.218  -2.926  23.793  0.00  0.00    +0.000 OA
ATOM      9  N   UNL     1       8.453  -1.544  23.806  0.00  0.00    +0.000 NA
ENDROOT
BRANCH   9  10
ATOM     10  C   UNL     1       9.083  -0.346  23.464  0.00  0.00    +0.000 C 
ATOM     11  C   UNL     1      10.369  -0.576  22.682  0.00  0.00    +0.000 C 
ATOM     12  C   UNL     1       9.459   0.472  24.736  0.00  0.00    +0.000 C 
ATOM     13  C   UNL     1      10.820   0.233  25.202  0.00  0.00    +0.000 C 
ATOM     14  O   UNL     1       8.504   0.503  25.730  0.00  0.00    +0.000 OA
ATOM     15  C   UNL     1       8.093   1.807  26.020  0.00  0.00    +0.000 C 
ATOM     16  C   UNL     1       7.425   2.571  24.785  0.00  0.00    +0.000 C 
ATOM     17  C   UNL     1       7.811   1.805  23.603  0.00  0.00    +0.000 C 
ATOM     18  C   UNL     1       8.177   0.619  22.633  0.00  0.00    +0.000 C 
ATOM     19  C   UNL     1       6.788  -0.098  22.643  0.00  0.00    +0.000 C 
ATOM     20  C   UNL     1       6.729   0.624  24.099  0.00  0.00    +0.000 C 
ATOM     21  C   UNL     1       5.405   1.444  23.962  0.00  0.00    +0.000 C 
ATOM     22  C   UNL     1       9.284   1.866  24.103  0.00  0.00    +0.000 C 
BRANCH  18  23
ATOM     23  C   UNL     1       8.589   1.027  21.369  0.00  0.00    +0.000 C 
ATOM     24  O   UNL     1       8.035   0.494  20.445  0.00  0.00    +0.000 OA
ATOM     25  O   UNL     1       9.634   1.817  21.272  0.00  0.00    +0.000 OA
ENDBRANCH  18  23
ENDBRANCH   9  10
BRANCH   1  26
ATOM     26  C   UNL     1       5.866  -6.120  26.440  0.00  0.00    +0.000 C 
BRANCH  26  34
ATOM     27  C   UNL     1       2.042  -7.900  30.465  0.00  0.00    +0.000 C 
ATOM     28  N   UNL     1       1.456  -7.032  29.460  0.00  0.00    +0.000 NA
ATOM     29  C   UNL     1       1.920  -7.072  28.195  0.00  0.00    +0.000 C 
ATOM     30  O   UNL     1       1.630  -7.971  27.442  0.00  0.00    +0.000 OA
ATOM     31  N   UNL     1       3.156  -6.512  28.176  0.00  0.00    +0.000 N 
ATOM     32  C   UNL     1       4.129  -6.928  29.165  0.00  0.00    +0.000 C 
ATOM     33  C   UNL     1       5.532  -6.682  28.697  0.00  0.00    +0.000 C 
ATOM     34  N   UNL     1       5.686  -5.677  27.754  0.00  0.00    +0.000 NA
ATOM     35  C   UNL     1       4.694  -4.667  27.840  0.00  0.00    +0.000 C 
ATOM     36  C   UNL     1       3.323  -5.234  27.496  0.00  0.00    +0.000 C 
ENDBRANCH  26  34
ENDBRANCH   1  26
TORSDOF 4
ENDMDL
