MODEL 1
REMARK VINA RESULT:      -7.0      0.000      0.000
REMARK  Name = 
REMARK  4 active torsions:
REMARK  status: ('A' for Active; 'I' for Inactive)
REMARK    1  A    between atoms: C_2  and  C_3
REMARK    2  A    between atoms: C_10  and  C_17
REMARK    3  A    between atoms: C_11  and  S_12
REMARK    4  A    between atoms: C_17  and  S_18
REMARK                            x       y       z     vdW  Elec       q    Type
REMARK                         _______ _______ _______ _____ _____    ______ ____
ROOT
ATOM      1  C   UNL     1       8.262   2.026  23.309  0.00  0.00    +0.000 C 
ATOM      2  C   UNL     1       9.348   1.613  24.257  0.00  0.00    +0.000 C 
ATOM      3  C   UNL     1      10.452   0.785  23.467  0.00  0.00    +0.000 C 
ATOM      4  C   UNL     1       9.566  -0.249  22.705  0.00  0.00    +0.000 C 
ATOM      5  C   UNL     1       8.870   0.431  21.606  0.00  0.00    +0.000 C 
ATOM      6  C   UNL     1       8.988   2.018  21.854  0.00  0.00    +0.000 C 
ATOM      7  C   UNL     1       7.286   0.287  21.849  0.00  0.00    +0.000 C 
ATOM      8  C   UNL     1       7.116   1.086  23.106  0.00  0.00    +0.000 C 
ATOM      9  C   UNL     1       7.023  -1.189  21.989  0.00  0.00    +0.000 C 
ATOM     10  C   UNL     1      10.371  -1.443  22.266  0.00  0.00    +0.000 C 
ATOM     11  O   UNL     1       8.705  -0.701  23.738  0.00  0.00    +0.000 OA
ENDROOT
BRANCH   8  12
ATOM     12  S   UNL     1       6.289   0.413  24.435  0.00  0.00    +0.000 S 
ATOM     13  O   UNL     1       7.138   0.537  25.630  0.00  0.00    +0.000 OA
ATOM     14  O   UNL     1       5.882  -0.951  24.173  0.00  0.00    +0.000 OA
ATOM     15  N   UNL     1       4.899   1.256  24.806  0.00  0.00    +0.000 NA
ENDBRANCH   8  12
BRANCH   1  17
ATOM     16  C   UNL     1       7.741   4.310  22.409  0.00  0.00    +0.000 C 
ATOM     17  C   UNL     1       7.762   3.405  23.563  0.00  0.00    +0.000 C 
ATOM     18  C   UNL     1       8.279   3.998  24.840  0.00  0.00    +0.000 C 
ENDBRANCH   1  17
BRANCH   7  19
ATOM     19  C   UNL     1       6.622   0.860  20.694  0.00  0.00    +0.000 C 
ATOM     20  O   UNL     1       5.971   2.025  20.829  0.00  0.00    +0.000 OA
BRANCH  19  21
ATOM     21  S   UNL     1       6.673   0.094  19.161  0.00  0.00    +0.000 S 
ATOM     22  O   UNL     1       8.062  -0.194  18.821  0.00  0.00    +0.000 OA
ATOM     23  O   UNL     1       5.828  -1.086  19.178  0.00  0.00    +0.000 OA
ATOM     24  N   UNL     1       6.094   1.090  17.967  0.00  0.00    +0.000 NA
ENDBRANCH  19  21
ENDBRANCH   7  19
TORSDOF 4
ENDMDL
MODEL 2
REMARK VINA RESULT:      -6.9      2.526      3.885
REMARK  Name = 
REMARK  4 active torsions:
REMARK  status: ('A' for Active; 'I' for Inactive)
REMARK    1  A    between atoms: C_2  and  C_3
REMARK    2  A    between atoms: C_10  and  C_17
REMARK    3  A    between atoms: C_11  and  S_12
REMARK    4  A    between atoms: C_17  and  S_18
REMARK                            x       y       z     vdW  Elec       q    Type
REMARK                         _______ _______ _______ _____ _____    ______ ____
ROOT
ATOM      1  C   UNL     1       7.484  -0.696  24.435  0.00  0.00    +0.000 C 
ATOM      2  C   UNL     1       8.083   0.191  25.484  0.00  0.00    +0.000 C 
ATOM      3  C   UNL     1       7.838   1.713  25.092  0.00  0.00    +0.000 C 
ATOM      4  C   UNL     1       8.321   1.723  23.608  0.00  0.00    +0.000 C 
ATOM      5  C   UNL     1       7.326   1.043  22.773  0.00  0.00    +0.000 C 
ATOM      6  C   UNL     1       6.336   0.229  23.749  0.00  0.00    +0.000 C 
ATOM      7  C   UNL     1       8.034  -0.221  22.073  0.00  0.00    +0.000 C 
ATOM      8  C   UNL     1       8.339  -1.075  23.267  0.00  0.00    +0.000 C 
ATOM      9  C   UNL     1       9.239   0.328  21.356  0.00  0.00    +0.000 C 
ATOM     10  C   UNL     1       8.648   3.119  23.148  0.00  0.00    +0.000 C 
ATOM     11  O   UNL     1       9.557   1.032  23.707  0.00  0.00    +0.000 OA
ENDROOT
BRANCH   8  12
ATOM     12  S   UNL     1       9.912  -1.687  23.495  0.00  0.00    +0.000 S 
ATOM     13  O   UNL     1      10.601  -0.855  24.494  0.00  0.00    +0.000 OA
ATOM     14  O   UNL     1      10.634  -1.778  22.244  0.00  0.00    +0.000 OA
ATOM     15  N   UNL     1       9.904  -3.221  24.147  0.00  0.00    +0.000 NA
ENDBRANCH   8  12
BRANCH   1  17
ATOM     16  C   UNL     1       5.378  -2.021  24.764  0.00  0.00    +0.000 C 
ATOM     17  C   UNL     1       6.820  -1.901  25.003  0.00  0.00    +0.000 C 
ATOM     18  C   UNL     1       7.274  -2.229  26.395  0.00  0.00    +0.000 C 
ENDBRANCH   1  17
BRANCH   7  19
ATOM     19  C   UNL     1       7.067  -0.805  21.163  0.00  0.00    +0.000 C 
ATOM     20  O   UNL     1       6.587  -2.029  21.422  0.00  0.00    +0.000 OA
BRANCH  19  21
ATOM     21  S   UNL     1       6.511   0.046  19.783  0.00  0.00    +0.000 S 
ATOM     22  O   UNL     1       5.368  -0.663  19.218  0.00  0.00    +0.000 OA
ATOM     23  O   UNL     1       6.216   1.420  20.144  0.00  0.00    +0.000 OA
ATOM     24  N   UNL     1       7.669   0.093  18.594  0.00  0.00    +0.000 NA
ENDBRANCH  19  21
ENDBRANCH   7  19
TORSDOF 4
ENDMDL
MODEL 3
REMARK VINA RESULT:      -6.9      2.924      4.657
REMARK  Name = 
REMARK  4 active torsions:
REMARK  status: ('A' for Active; 'I' for Inactive)
REMARK    1  A    between atoms: C_2  and  C_3
REMARK    2  A    between atoms: C_10  and  C_17
REMARK    3  A    between atoms: C_11  and  S_12
REMARK    4  A    between atoms: C_17  and  S_18
REMARK                            x       y       z     vdW  Elec       q    Type
REMARK                         _______ _______ _______ _____ _____    ______ ____
ROOT
ATOM      1  C   UNL     1       7.686   0.027  22.106  0.00  0.00    +0.000 C 
ATOM      2  C   UNL     1       7.523   1.509  21.951  0.00  0.00    +0.000 C 
ATOM      3  C   UNL     1       8.956   2.199  21.934  0.00  0.00    +0.000 C 
ATOM      4  C   UNL     1       9.615   1.554  23.193  0.00  0.00    +0.000 C 
ATOM      5  C   UNL     1       9.960   0.159  22.896  0.00  0.00    +0.000 C 
ATOM      6  C   UNL     1       9.185  -0.264  21.549  0.00  0.00    +0.000 C 
ATOM      7  C   UNL     1       9.155  -0.786  23.919  0.00  0.00    +0.000 C 
ATOM      8  C   UNL     1       7.741  -0.529  23.495  0.00  0.00    +0.000 C 
ATOM      9  C   UNL     1       9.508  -0.295  25.298  0.00  0.00    +0.000 C 
ATOM     10  C   UNL     1      10.779   2.375  23.683  0.00  0.00    +0.000 C 
ATOM     11  O   UNL     1       8.586   1.699  24.158  0.00  0.00    +0.000 OA
ENDROOT
BRANCH   8  12
ATOM     12  S   UNL     1       6.569  -0.103  24.656  0.00  0.00    +0.000 S 
ATOM     13  O   UNL     1       5.841   1.082  24.178  0.00  0.00    +0.000 OA
ATOM     14  O   UNL     1       7.160   0.088  25.963  0.00  0.00    +0.000 OA
ATOM     15  N   UNL     1       5.401  -1.281  24.834  0.00  0.00    +0.000 NA
ENDBRANCH   8  12
BRANCH   1  17
ATOM     16  C   UNL     1       6.654  -2.192  21.549  0.00  0.00    +0.000 C 
ATOM     17  C   UNL     1       6.729  -0.753  21.274  0.00  0.00    +0.000 C 
ATOM     18  C   UNL     1       6.758  -0.372  19.823  0.00  0.00    +0.000 C 
ENDBRANCH   1  17
BRANCH   7  19
ATOM     19  C   UNL     1       9.601  -2.147  23.686  0.00  0.00    +0.000 C 
ATOM     20  O   UNL     1      10.599  -2.364  22.817  0.00  0.00    +0.000 OA
BRANCH  19  21
ATOM     21  S   UNL     1       8.898  -3.473  24.514  0.00  0.00    +0.000 S 
ATOM     22  O   UNL     1       8.430  -3.023  25.820  0.00  0.00    +0.000 OA
ATOM     23  O   UNL     1       7.851  -4.057  23.696  0.00  0.00    +0.000 OA
ATOM     24  N   UNL     1      10.014  -4.668  24.800  0.00  0.00    +0.000 NA
ENDBRANCH  19  21
ENDBRANCH   7  19
TORSDOF 4
ENDMDL
MODEL 4
REMARK VINA RESULT:      -6.8      3.938      6.342
REMARK  Name = 
REMARK  4 active torsions:
REMARK  status: ('A' for Active; 'I' for Inactive)
REMARK    1  A    between atoms: C_2  and  C_3
REMARK    2  A    between atoms: C_10  and  C_17
REMARK    3  A    between atoms: C_11  and  S_12
REMARK    4  A    between atoms: C_17  and  S_18
REMARK                            x       y       z     vdW  Elec       q    Type
REMARK                         _______ _______ _______ _____ _____    ______ ____
ROOT
ATOM      1  C   UNL     1       6.743  -1.684  23.589  0.00  0.00    +0.000 C 
ATOM      2  C   UNL     1       6.592  -1.759  22.100  0.00  0.00    +0.000 C 
ATOM      3  C   UNL     1       5.725  -3.038  21.721  0.00  0.00    +0.000 C 
ATOM      4  C   UNL     1       6.445  -4.147  22.549  0.00  0.00    +0.000 C 
ATOM      5  C   UNL     1       6.114  -3.980  23.969  0.00  0.00    +0.000 C 
ATOM      6  C   UNL     1       5.466  -2.517  24.156  0.00  0.00    +0.000 C 
ATOM      7  C   UNL     1       7.481  -3.721  24.777  0.00  0.00    +0.000 C 
ATOM      8  C   UNL     1       7.901  -2.398  24.213  0.00  0.00    +0.000 C 
ATOM      9  C   UNL     1       8.385  -4.877  24.438  0.00  0.00    +0.000 C 
ATOM     10  C   UNL     1       6.137  -5.519  22.011  0.00  0.00    +0.000 C 
ATOM     11  O   UNL     1       7.807  -3.890  22.243  0.00  0.00    +0.000 OA
ENDROOT
BRANCH   8  12
ATOM     12  S   UNL     1       9.482  -2.193  23.612  0.00  0.00    +0.000 S 
ATOM     13  O   UNL     1       9.410  -1.973  22.160  0.00  0.00    +0.000 OA
ATOM     14  O   UNL     1      10.336  -3.305  23.971  0.00  0.00    +0.000 OA
ATOM     15  N   UNL     1      10.214  -0.823  24.219  0.00  0.00    +0.000 NA
ENDBRANCH   8  12
BRANCH   1  17
ATOM     16  C   UNL     1       5.564  -0.030  25.064  0.00  0.00    +0.000 C 
ATOM     17  C   UNL     1       6.649  -0.293  24.114  0.00  0.00    +0.000 C 
ATOM     18  C   UNL     1       6.854   0.753  23.059  0.00  0.00    +0.000 C 
ENDBRANCH   1  17
BRANCH   7  19
ATOM     19  C   UNL     1       7.143  -3.679  26.187  0.00  0.00    +0.000 C 
ATOM     20  O   UNL     1       7.332  -2.540  26.868  0.00  0.00    +0.000 OA
BRANCH  19  21
ATOM     21  S   UNL     1       6.487  -5.044  26.991  0.00  0.00    +0.000 S 
ATOM     22  O   UNL     1       5.758  -5.858  26.024  0.00  0.00    +0.000 OA
ATOM     23  O   UNL     1       7.548  -5.766  27.669  0.00  0.00    +0.000 OA
ATOM     24  N   UNL     1       5.388  -4.593  28.150  0.00  0.00    +0.000 NA
ENDBRANCH  19  21
ENDBRANCH   7  19
TORSDOF 4
ENDMDL
MODEL 5
REMARK VINA RESULT:      -6.7      4.421      6.818
REMARK  Name = 
REMARK  4 active torsions:
REMARK  status: ('A' for Active; 'I' for Inactive)
REMARK    1  A    between atoms: C_2  and  C_3
REMARK    2  A    between atoms: C_10  and  C_17
REMARK    3  A    between atoms: C_11  and  S_12
REMARK    4  A    between atoms: C_17  and  S_18
REMARK                            x       y       z     vdW  Elec       q    Type
REMARK                         _______ _______ _______ _____ _____    ______ ____
ROOT
ATOM      1  C   UNL     1       6.166  -2.582  23.964  0.00  0.00    +0.000 C 
ATOM      2  C   UNL     1       6.208  -2.064  22.558  0.00  0.00    +0.000 C 
ATOM      3  C   UNL     1       5.583  -3.148  21.577  0.00  0.00    +0.000 C 
ATOM      4  C   UNL     1       6.348  -4.433  22.022  0.00  0.00    +0.000 C 
ATOM      5  C   UNL     1       5.828  -4.880  23.318  0.00  0.00    +0.000 C 
ATOM      6  C   UNL     1       4.961  -3.674  23.944  0.00  0.00    +0.000 C 
ATOM      7  C   UNL     1       7.036  -4.857  24.380  0.00  0.00    +0.000 C 
ATOM      8  C   UNL     1       7.330  -3.389  24.448  0.00  0.00    +0.000 C 
ATOM      9  C   UNL     1       8.129  -5.700  23.778  0.00  0.00    +0.000 C 
ATOM     10  C   UNL     1       6.304  -5.494  20.953  0.00  0.00    +0.000 C 
ATOM     11  O   UNL     1       7.686  -3.965  22.070  0.00  0.00    +0.000 OA
ENDROOT
BRANCH   8  12
ATOM     12  S   UNL     1       8.927  -2.831  24.247  0.00  0.00    +0.000 S 
ATOM     13  O   UNL     1       9.037  -2.183  22.931  0.00  0.00    +0.000 OA
ATOM     14  O   UNL     1       9.890  -3.896  24.432  0.00  0.00    +0.000 OA
ATOM     15  N   UNL     1       9.323  -1.642  25.346  0.00  0.00    +0.000 NA
ENDBRANCH   8  12
BRANCH   1  17
ATOM     16  C   UNL     1       4.568  -1.738  25.707  0.00  0.00    +0.000 C 
ATOM     17  C   UNL     1       5.814  -1.532  24.960  0.00  0.00    +0.000 C 
ATOM     18  C   UNL     1       6.046  -0.138  24.460  0.00  0.00    +0.000 C 
ENDBRANCH   1  17
BRANCH   7  19
ATOM     19  C   UNL     1       6.528  -5.414  25.619  0.00  0.00    +0.000 C 
ATOM     20  O   UNL     1       5.556  -6.336  25.568  0.00  0.00    +0.000 OA
BRANCH  19  21
ATOM     21  S   UNL     1       7.159  -4.936  27.140  0.00  0.00    +0.000 S 
ATOM     22  O   UNL     1       8.609  -4.820  27.036  0.00  0.00    +0.000 OA
ATOM     23  O   UNL     1       6.512  -3.712  27.573  0.00  0.00    +0.000 OA
ATOM     24  N   UNL     1       6.862  -6.081  28.305  0.00  0.00    +0.000 NA
ENDBRANCH  19  21
ENDBRANCH   7  19
TORSDOF 4
ENDMDL
MODEL 6
REMARK VINA RESULT:      -6.6      2.831      4.378
REMARK  Name = 
REMARK  4 active torsions:
REMARK  status: ('A' for Active; 'I' for Inactive)
REMARK    1  A    between atoms: C_2  and  C_3
REMARK    2  A    between atoms: C_10  and  C_17
REMARK    3  A    between atoms: C_11  and  S_12
REMARK    4  A    between atoms: C_17  and  S_18
REMARK                            x       y       z     vdW  Elec       q    Type
REMARK                         _______ _______ _______ _____ _____    ______ ____
ROOT
ATOM      1  C   UNL     1       7.803   0.333  21.991  0.00  0.00    +0.000 C 
ATOM      2  C   UNL     1       8.537   1.622  21.775  0.00  0.00    +0.000 C 
ATOM      3  C   UNL     1      10.076   1.417  22.118  0.00  0.00    +0.000 C 
ATOM      4  C   UNL     1       9.984   0.728  23.515  0.00  0.00    +0.000 C 
ATOM      5  C   UNL     1       9.537  -0.658  23.340  0.00  0.00    +0.000 C 
ATOM      6  C   UNL     1       8.956  -0.804  21.845  0.00  0.00    +0.000 C 
ATOM      7  C   UNL     1       8.151  -0.845  24.135  0.00  0.00    +0.000 C 
ATOM      8  C   UNL     1       7.250   0.064  23.355  0.00  0.00    +0.000 C 
ATOM      9  C   UNL     1       8.427  -0.410  25.551  0.00  0.00    +0.000 C 
ATOM     10  C   UNL     1      11.277   0.858  24.276  0.00  0.00    +0.000 C 
ATOM     11  O   UNL     1       9.042   1.556  24.178  0.00  0.00    +0.000 OA
ENDROOT
BRANCH   8  12
ATOM     12  S   UNL     1       6.311   1.232  24.166  0.00  0.00    +0.000 S 
ATOM     13  O   UNL     1       5.623   2.061  23.165  0.00  0.00    +0.000 OA
ATOM     14  O   UNL     1       7.110   2.010  25.088  0.00  0.00    +0.000 OA
ATOM     15  N   UNL     1       5.089   0.543  25.067  0.00  0.00    +0.000 NA
ENDBRANCH   8  12
BRANCH   1  17
ATOM     16  C   UNL     1       6.495  -1.337  20.650  0.00  0.00    +0.000 C 
ATOM     17  C   UNL     1       6.769   0.072  20.952  0.00  0.00    +0.000 C 
ATOM     18  C   UNL     1       6.880   0.979  19.763  0.00  0.00    +0.000 C 
ENDBRANCH   1  17
BRANCH   7  19
ATOM     19  C   UNL     1       7.793  -2.247  24.048  0.00  0.00    +0.000 C 
ATOM     20  O   UNL     1       6.588  -2.581  23.563  0.00  0.00    +0.000 OA
BRANCH  19  21
ATOM     21  S   UNL     1       8.882  -3.481  24.528  0.00  0.00    +0.000 S 
ATOM     22  O   UNL     1      10.206  -3.177  23.995  0.00  0.00    +0.000 OA
ATOM     23  O   UNL     1       8.860  -3.616  25.972  0.00  0.00    +0.000 OA
ATOM     24  N   UNL     1       8.447  -4.952  23.894  0.00  0.00    +0.000 NA
ENDBRANCH  19  21
ENDBRANCH   7  19
TORSDOF 4
ENDMDL
MODEL 7
REMARK VINA RESULT:      -6.6      4.661      6.380
REMARK  Name = 
REMARK  4 active torsions:
REMARK  status: ('A' for Active; 'I' for Inactive)
REMARK    1  A    between atoms: C_2  and  C_3
REMARK    2  A    between atoms: C_10  and  C_17
REMARK    3  A    between atoms: C_11  and  S_12
REMARK    4  A    between atoms: C_17  and  S_18
REMARK                            x       y       z     vdW  Elec       q    Type
REMARK                         _______ _______ _______ _____ _____    ______ ____
ROOT
ATOM      1  C   UNL     1       7.514  -1.885  24.856  0.00  0.00    +0.000 C 
ATOM      2  C   UNL     1       8.194  -1.249  23.681  0.00  0.00    +0.000 C 
ATOM      3  C   UNL     1       7.148  -1.076  22.496  0.00  0.00    +0.000 C 
ATOM      4  C   UNL     1       6.525  -2.506  22.433  0.00  0.00    +0.000 C 
ATOM      5  C   UNL     1       5.634  -2.694  23.583  0.00  0.00    +0.000 C 
ATOM      6  C   UNL     1       5.943  -1.522  24.644  0.00  0.00    +0.000 C 
ATOM      7  C   UNL     1       6.187  -3.930  24.451  0.00  0.00    +0.000 C 
ATOM      8  C   UNL     1       7.497  -3.379  24.930  0.00  0.00    +0.000 C 
ATOM      9  C   UNL     1       6.293  -5.090  23.496  0.00  0.00    +0.000 C 
ATOM     10  C   UNL     1       5.862  -2.756  21.104  0.00  0.00    +0.000 C 
ATOM     11  O   UNL     1       7.685  -3.322  22.465  0.00  0.00    +0.000 OA
ENDROOT
BRANCH   8  12
ATOM     12  S   UNL     1       8.926  -4.283  24.723  0.00  0.00    +0.000 S 
ATOM     13  O   UNL     1       9.964  -3.402  24.167  0.00  0.00    +0.000 OA
ATOM     14  O   UNL     1       8.697  -5.462  23.915  0.00  0.00    +0.000 OA
ATOM     15  N   UNL     1       9.549  -4.820  26.174  0.00  0.00    +0.000 NA
ENDBRANCH   8  12
BRANCH   1  17
ATOM     16  C   UNL     1       6.878  -0.779  27.018  0.00  0.00    +0.000 C 
ATOM     17  C   UNL     1       7.944  -1.307  26.159  0.00  0.00    +0.000 C 
ATOM     18  C   UNL     1       9.172  -0.453  26.053  0.00  0.00    +0.000 C 
ENDBRANCH   1  17
BRANCH   7  19
ATOM     19  C   UNL     1       5.228  -4.172  25.511  0.00  0.00    +0.000 C 
ATOM     20  O   UNL     1       3.974  -3.719  25.370  0.00  0.00    +0.000 OA
BRANCH  19  21
ATOM     21  S   UNL     1       5.657  -5.043  26.924  0.00  0.00    +0.000 S 
ATOM     22  O   UNL     1       6.299  -6.294  26.534  0.00  0.00    +0.000 OA
ATOM     23  O   UNL     1       6.485  -4.211  27.777  0.00  0.00    +0.000 OA
ATOM     24  N   UNL     1       4.315  -5.460  27.809  0.00  0.00    +0.000 NA
ENDBRANCH  19  21
ENDBRANCH   7  19
TORSDOF 4
ENDMDL
MODEL 8
REMARK VINA RESULT:      -6.5      3.302      5.354
REMARK  Name = 
REMARK  4 active torsions:
REMARK  status: ('A' for Active; 'I' for Inactive)
REMARK    1  A    between atoms: C_2  and  C_3
REMARK    2  A    between atoms: C_10  and  C_17
REMARK    3  A    between atoms: C_11  and  S_12
REMARK    4  A    between atoms: C_17  and  S_18
REMARK                            x       y       z     vdW  Elec       q    Type
REMARK                         _______ _______ _______ _____ _____    ______ ____
ROOT
ATOM      1  C   UNL     1       7.657  -1.225  22.852  0.00  0.00    +0.000 C 
ATOM      2  C   UNL     1       7.941   0.173  22.392  0.00  0.00    +0.000 C 
ATOM      3  C   UNL     1       9.498   0.467  22.525  0.00  0.00    +0.000 C 
ATOM      4  C   UNL     1       9.771  -0.007  23.986  0.00  0.00    +0.000 C 
ATOM      5  C   UNL     1       9.746  -1.473  24.029  0.00  0.00    +0.000 C 
ATOM      6  C   UNL     1       9.076  -1.996  22.661  0.00  0.00    +0.000 C 
ATOM      7  C   UNL     1       8.576  -1.928  25.035  0.00  0.00    +0.000 C 
ATOM      8  C   UNL     1       7.363  -1.438  24.304  0.00  0.00    +0.000 C 
ATOM      9  C   UNL     1       8.861  -1.230  26.339  0.00  0.00    +0.000 C 
ATOM     10  C   UNL     1      11.040   0.595  24.530  0.00  0.00    +0.000 C 
ATOM     11  O   UNL     1       8.701   0.606  24.688  0.00  0.00    +0.000 OA
ENDROOT
BRANCH   8  12
ATOM     12  S   UNL     1       6.211  -0.480  25.113  0.00  0.00    +0.000 S 
ATOM     13  O   UNL     1       5.844   0.649  24.246  0.00  0.00    +0.000 OA
ATOM     14  O   UNL     1       6.688  -0.060  26.414  0.00  0.00    +0.000 OA
ATOM     15  N   UNL     1       4.783  -1.300  25.378  0.00  0.00    +0.000 NA
ENDBRANCH   8  12
BRANCH   1  17
ATOM     16  C   UNL     1       6.739  -3.382  21.954  0.00  0.00    +0.000 C 
ATOM     17  C   UNL     1       6.643  -1.919  22.011  0.00  0.00    +0.000 C 
ATOM     18  C   UNL     1       6.392  -1.236  20.699  0.00  0.00    +0.000 C 
ENDBRANCH   1  17
BRANCH   7  19
ATOM     19  C   UNL     1       8.650  -3.372  25.153  0.00  0.00    +0.000 C 
ATOM     20  O   UNL     1       9.729  -4.009  24.678  0.00  0.00    +0.000 OA
BRANCH  19  21
ATOM     21  S   UNL     1       7.400  -4.273  25.905  0.00  0.00    +0.000 S 
ATOM     22  O   UNL     1       6.890  -3.517  27.044  0.00  0.00    +0.000 OA
ATOM     23  O   UNL     1       6.379  -4.599  24.927  0.00  0.00    +0.000 OA
ATOM     24  N   UNL     1       7.970  -5.709  26.511  0.00  0.00    +0.000 NA
ENDBRANCH  19  21
ENDBRANCH   7  19
TORSDOF 4
ENDMDL
MODEL 9
REMARK VINA RESULT:      -6.5      3.151      5.092
REMARK  Name = 
REMARK  4 active torsions:
REMARK  status: ('A' for Active; 'I' for Inactive)
REMARK    1  A    between atoms: C_2  and  C_3
REMARK    2  A    between atoms: C_10  and  C_17
REMARK    3  A    between atoms: C_11  and  S_12
REMARK    4  A    between atoms: C_17  and  S_18
REMARK                            x       y       z     vdW  Elec       q    Type
REMARK                         _______ _______ _______ _____ _____    ______ ____
ROOT
ATOM      1  C   UNL     1       8.853   0.489  24.330  0.00  0.00    +0.000 C 
ATOM      2  C   UNL     1       7.863   1.539  24.735  0.00  0.00    +0.000 C 
ATOM      3  C   UNL     1       7.066   1.045  26.020  0.00  0.00    +0.000 C 
ATOM      4  C   UNL     1       6.636  -0.387  25.576  0.00  0.00    +0.000 C 
ATOM      5  C   UNL     1       7.806  -1.272  25.602  0.00  0.00    +0.000 C 
ATOM      6  C   UNL     1       9.122  -0.347  25.699  0.00  0.00    +0.000 C 
ATOM      7  C   UNL     1       8.043  -1.836  24.114  0.00  0.00    +0.000 C 
ATOM      8  C   UNL     1       8.396  -0.576  23.383  0.00  0.00    +0.000 C 
ATOM      9  C   UNL     1       6.741  -2.471  23.702  0.00  0.00    +0.000 C 
ATOM     10  C   UNL     1       5.478  -0.890  26.397  0.00  0.00    +0.000 C 
ATOM     11  O   UNL     1       6.130  -0.141  24.274  0.00  0.00    +0.000 OA
ENDROOT
BRANCH   8  12
ATOM     12  S   UNL     1       7.584  -0.175  21.939  0.00  0.00    +0.000 S 
ATOM     13  O   UNL     1       6.823   1.065  22.156  0.00  0.00    +0.000 OA
ATOM     14  O   UNL     1       6.758  -1.268  21.472  0.00  0.00    +0.000 OA
ATOM     15  N   UNL     1       8.641   0.180  20.700  0.00  0.00    +0.000 NA
ENDBRANCH   8  12
BRANCH   1  17
ATOM     16  C   UNL     1      11.337   0.656  24.646  0.00  0.00    +0.000 C 
ATOM     17  C   UNL     1      10.153   1.058  23.880  0.00  0.00    +0.000 C 
ATOM     18  C   UNL     1      10.073   2.514  23.529  0.00  0.00    +0.000 C 
ENDBRANCH   1  17
BRANCH   7  19
ATOM     19  C   UNL     1       9.127  -2.797  24.188  0.00  0.00    +0.000 C 
ATOM     20  O   UNL     1      10.242  -2.575  23.477  0.00  0.00    +0.000 OA
BRANCH  19  21
ATOM     21  S   UNL     1       9.021  -4.191  25.180  0.00  0.00    +0.000 S 
ATOM     22  O   UNL     1      10.230  -4.989  25.008  0.00  0.00    +0.000 OA
ATOM     23  O   UNL     1       8.783  -3.794  26.555  0.00  0.00    +0.000 OA
ATOM     24  N   UNL     1       7.750  -5.160  24.727  0.00  0.00    +0.000 NA
ENDBRANCH  19  21
ENDBRANCH   7  19
TORSDOF 4
ENDMDL
