MODEL 1
REMARK VINA RESULT:      -6.4      0.000      0.000
REMARK  Name = 
REMARK  5 active torsions:
REMARK  status: ('A' for Active; 'I' for Inactive)
REMARK    1  A    between atoms: C_2  and  N_3
REMARK    2  A    between atoms: N_3  and  C_4
REMARK    3  A    between atoms: C_9  and  C_10
REMARK    4  A    between atoms: C_10  and  N_11
REMARK    5  A    between atoms: N_11  and  C_12
REMARK                            x       y       z     vdW  Elec       q    Type
REMARK                         _______ _______ _______ _____ _____    ______ ____
ROOT
ATOM      1  C   UNL     1       7.407  -0.628  21.289  0.00  0.00    +0.000 C 
ATOM      2  C   UNL     1       7.109   0.564  22.210  0.00  0.00    +0.000 C 
ATOM      3  C   UNL     1       8.195   1.609  21.962  0.00  0.00    +0.000 C 
ATOM      4  C   UNL     1       9.452   1.183  21.447  0.00  0.00    +0.000 C 
ATOM      5  C   UNL     1       9.817  -0.172  21.826  0.00  0.00    +0.000 C 
ATOM      6  C   UNL     1       8.787  -1.157  21.670  0.00  0.00    +0.000 C 
ATOM      7  F   UNL     1      10.433   2.011  21.810  0.00  0.00    +0.000 F 
ENDROOT
BRANCH   1   8
ATOM      8  N   UNL     1       7.431  -0.163  19.928  0.00  0.00    +0.000 NA
BRANCH   8  10
ATOM      9  C   UNL     1       5.582   0.744  18.651  0.00  0.00    +0.000 C 
ATOM     10  C   UNL     1       6.149  -0.483  19.352  0.00  0.00    +0.000 C 
ENDBRANCH   8  10
ENDBRANCH   1   8
BRANCH   6  11
ATOM     11  C   UNL     1       8.709  -2.322  22.657  0.00  0.00    +0.000 C 
BRANCH  11  12
ATOM     12  N   UNL     1       7.557  -3.122  22.311  0.00  0.00    +0.000 NA
BRANCH  12  13
ATOM     13  C   UNL     1       7.569  -4.311  23.117  0.00  0.00    +0.000 C 
ATOM     14  C   UNL     1       6.402  -4.253  24.106  0.00  0.00    +0.000 C 
ATOM     15  C   UNL     1       5.671  -5.588  24.100  0.00  0.00    +0.000 C 
ATOM     16  C   UNL     1       4.977  -5.791  22.758  0.00  0.00    +0.000 C 
ATOM     17  C   UNL     1       5.979  -5.519  21.637  0.00  0.00    +0.000 C 
ATOM     18  C   UNL     1       7.387  -5.541  22.229  0.00  0.00    +0.000 C 
ATOM     19  O   UNL     1       3.958  -4.830  22.654  0.00  0.00    +0.000 OA
ENDBRANCH  12  13
ENDBRANCH  11  12
ENDBRANCH   6  11
TORSDOF 5
ENDMDL
MODEL 2
REMARK VINA RESULT:      -6.3      3.491      5.161
REMARK  Name = 
REMARK  5 active torsions:
REMARK  status: ('A' for Active; 'I' for Inactive)
REMARK    1  A    between atoms: C_2  and  N_3
REMARK    2  A    between atoms: N_3  and  C_4
REMARK    3  A    between atoms: C_9  and  C_10
REMARK    4  A    between atoms: C_10  and  N_11
REMARK    5  A    between atoms: N_11  and  C_12
REMARK                            x       y       z     vdW  Elec       q    Type
REMARK                         _______ _______ _______ _____ _____    ______ ____
ROOT
ATOM      1  C   UNL     1       8.607  -0.306  23.897  0.00  0.00    +0.000 C 
ATOM      2  C   UNL     1       9.928  -0.614  24.618  0.00  0.00    +0.000 C 
ATOM      3  C   UNL     1      10.667   0.713  24.791  0.00  0.00    +0.000 C 
ATOM      4  C   UNL     1      10.375   1.781  23.898  0.00  0.00    +0.000 C 
ATOM      5  C   UNL     1       9.955   1.349  22.575  0.00  0.00    +0.000 C 
ATOM      6  C   UNL     1       8.963   0.313  22.549  0.00  0.00    +0.000 C 
ATOM      7  F   UNL     1      11.415   2.607  23.771  0.00  0.00    +0.000 F 
ENDROOT
BRANCH   1   8
ATOM      8  N   UNL     1       7.866   0.645  24.682  0.00  0.00    +0.000 NA
BRANCH   8  10
ATOM      9  C   UNL     1       6.146  -1.011  24.269  0.00  0.00    +0.000 C 
ATOM     10  C   UNL     1       6.475   0.474  24.346  0.00  0.00    +0.000 C 
ENDBRANCH   8  10
ENDBRANCH   1   8
BRANCH   6  11
ATOM     11  C   UNL     1       8.991  -0.722  21.424  0.00  0.00    +0.000 C 
BRANCH  11  12
ATOM     12  N   UNL     1       8.354  -0.138  20.267  0.00  0.00    +0.000 NA
BRANCH  12  13
ATOM     13  C   UNL     1       6.965   0.071  20.567  0.00  0.00    +0.000 C 
ATOM     14  C   UNL     1       6.559   1.470  20.096  0.00  0.00    +0.000 C 
ATOM     15  C   UNL     1       5.247   1.381  19.331  0.00  0.00    +0.000 C 
ATOM     16  C   UNL     1       5.461   0.626  18.024  0.00  0.00    +0.000 C 
ATOM     17  C   UNL     1       6.205  -0.675  18.322  0.00  0.00    +0.000 C 
ATOM     18  C   UNL     1       6.114  -0.954  19.821  0.00  0.00    +0.000 C 
ATOM     19  O   UNL     1       6.293   1.410  17.209  0.00  0.00    +0.000 OA
ENDBRANCH  12  13
ENDBRANCH  11  12
ENDBRANCH   6  11
TORSDOF 5
ENDMDL
MODEL 3
REMARK VINA RESULT:      -6.2      1.835      2.341
REMARK  Name = 
REMARK  5 active torsions:
REMARK  status: ('A' for Active; 'I' for Inactive)
REMARK    1  A    between atoms: C_2  and  N_3
REMARK    2  A    between atoms: N_3  and  C_4
REMARK    3  A    between atoms: C_9  and  C_10
REMARK    4  A    between atoms: C_10  and  N_11
REMARK    5  A    between atoms: N_11  and  C_12
REMARK                            x       y       z     vdW  Elec       q    Type
REMARK                         _______ _______ _______ _____ _____    ______ ____
ROOT
ATOM      1  C   UNL     1       7.556  -0.382  21.034  0.00  0.00    +0.000 C 
ATOM      2  C   UNL     1       7.110   0.715  22.013  0.00  0.00    +0.000 C 
ATOM      3  C   UNL     1       8.144   1.837  21.936  0.00  0.00    +0.000 C 
ATOM      4  C   UNL     1       9.462   1.525  21.499  0.00  0.00    +0.000 C 
ATOM      5  C   UNL     1       9.881   0.167  21.805  0.00  0.00    +0.000 C 
ATOM      6  C   UNL     1       8.931  -0.859  21.490  0.00  0.00    +0.000 C 
ATOM      7  F   UNL     1      10.357   2.377  22.004  0.00  0.00    +0.000 F 
ENDROOT
BRANCH   1   8
ATOM      8  N   UNL     1       7.659   0.191  19.718  0.00  0.00    +0.000 NA
BRANCH   8  10
ATOM      9  C   UNL     1       6.043   0.922  18.068  0.00  0.00    +0.000 C 
ATOM     10  C   UNL     1       6.478  -0.206  18.993  0.00  0.00    +0.000 C 
ENDBRANCH   8  10
ENDBRANCH   1   8
BRANCH   6  11
ATOM     11  C   UNL     1       8.849  -2.102  22.378  0.00  0.00    +0.000 C 
BRANCH  11  12
ATOM     12  N   UNL     1       9.115  -1.695  23.738  0.00  0.00    +0.000 NA
BRANCH  12  13
ATOM     13  C   UNL     1       8.012  -2.107  24.561  0.00  0.00    +0.000 C 
ATOM     14  C   UNL     1       7.124  -3.064  23.761  0.00  0.00    +0.000 C 
ATOM     15  C   UNL     1       6.789  -4.275  24.620  0.00  0.00    +0.000 C 
ATOM     16  C   UNL     1       8.049  -5.097  24.866  0.00  0.00    +0.000 C 
ATOM     17  C   UNL     1       9.162  -4.166  25.345  0.00  0.00    +0.000 C 
ATOM     18  C   UNL     1       8.533  -2.848  25.791  0.00  0.00    +0.000 C 
ATOM     19  O   UNL     1       8.453  -5.638  23.634  0.00  0.00    +0.000 OA
ENDBRANCH  12  13
ENDBRANCH  11  12
ENDBRANCH   6  11
TORSDOF 5
ENDMDL
MODEL 4
REMARK VINA RESULT:      -6.0      1.860      3.085
REMARK  Name = 
REMARK  5 active torsions:
REMARK  status: ('A' for Active; 'I' for Inactive)
REMARK    1  A    between atoms: C_2  and  N_3
REMARK    2  A    between atoms: N_3  and  C_4
REMARK    3  A    between atoms: C_9  and  C_10
REMARK    4  A    between atoms: C_10  and  N_11
REMARK    5  A    between atoms: N_11  and  C_12
REMARK                            x       y       z     vdW  Elec       q    Type
REMARK                         _______ _______ _______ _____ _____    ______ ____
ROOT
ATOM      1  C   UNL     1       9.270  -0.195  22.983  0.00  0.00    +0.000 C 
ATOM      2  C   UNL     1       9.658   0.183  21.546  0.00  0.00    +0.000 C 
ATOM      3  C   UNL     1       8.414   0.772  20.881  0.00  0.00    +0.000 C 
ATOM      4  C   UNL     1       7.133   0.410  21.384  0.00  0.00    +0.000 C 
ATOM      5  C   UNL     1       7.084  -0.915  21.980  0.00  0.00    +0.000 C 
ATOM      6  C   UNL     1       8.148  -1.225  22.889  0.00  0.00    +0.000 C 
ATOM      7  F   UNL     1       6.197   0.492  20.437  0.00  0.00    +0.000 F 
ENDROOT
BRANCH   1   8
ATOM      8  N   UNL     1       8.785   0.983  23.652  0.00  0.00    +0.000 NA
BRANCH   8  10
ATOM      9  C   UNL     1      10.832   0.558  24.878  0.00  0.00    +0.000 C 
ATOM     10  C   UNL     1       9.926   1.617  24.264  0.00  0.00    +0.000 C 
ENDBRANCH   8  10
ENDBRANCH   1   8
BRANCH   6  11
ATOM     11  C   UNL     1       8.670  -2.660  22.971  0.00  0.00    +0.000 C 
BRANCH  11  12
ATOM     12  N   UNL     1       7.684  -3.527  22.371  0.00  0.00    +0.000 NA
BRANCH  12  13
ATOM     13  C   UNL     1       7.549  -4.700  23.189  0.00  0.00    +0.000 C 
ATOM     14  C   UNL     1       6.414  -4.481  24.191  0.00  0.00    +0.000 C 
ATOM     15  C   UNL     1       5.514  -5.708  24.207  0.00  0.00    +0.000 C 
ATOM     16  C   UNL     1       4.781  -5.830  22.877  0.00  0.00    +0.000 C 
ATOM     17  C   UNL     1       5.795  -5.701  21.741  0.00  0.00    +0.000 C 
ATOM     18  C   UNL     1       7.196  -5.902  22.315  0.00  0.00    +0.000 C 
ATOM     19  O   UNL     1       3.896  -4.744  22.776  0.00  0.00    +0.000 OA
ENDBRANCH  12  13
ENDBRANCH  11  12
ENDBRANCH   6  11
TORSDOF 5
ENDMDL
MODEL 5
REMARK VINA RESULT:      -5.9      2.331      3.026
REMARK  Name = 
REMARK  5 active torsions:
REMARK  status: ('A' for Active; 'I' for Inactive)
REMARK    1  A    between atoms: C_2  and  N_3
REMARK    2  A    between atoms: N_3  and  C_4
REMARK    3  A    between atoms: C_9  and  C_10
REMARK    4  A    between atoms: C_10  and  N_11
REMARK    5  A    between atoms: N_11  and  C_12
REMARK                            x       y       z     vdW  Elec       q    Type
REMARK                         _______ _______ _______ _____ _____    ______ ____
ROOT
ATOM      1  C   UNL     1       9.356  -0.184  24.882  0.00  0.00    +0.000 C 
ATOM      2  C   UNL     1      10.738   0.484  24.951  0.00  0.00    +0.000 C 
ATOM      3  C   UNL     1      10.769   1.570  23.876  0.00  0.00    +0.000 C 
ATOM      4  C   UNL     1       9.900   1.449  22.755  0.00  0.00    +0.000 C 
ATOM      5  C   UNL     1       9.586   0.076  22.395  0.00  0.00    +0.000 C 
ATOM      6  C   UNL     1       9.213  -0.779  23.484  0.00  0.00    +0.000 C 
ATOM      7  F   UNL     1      10.397   2.073  21.686  0.00  0.00    +0.000 F 
ENDROOT
BRANCH   1   8
ATOM      8  N   UNL     1       8.349   0.823  25.080  0.00  0.00    +0.000 NA
BRANCH   8  10
ATOM      9  C   UNL     1       6.064   1.039  24.302  0.00  0.00    +0.000 C 
ATOM     10  C   UNL     1       7.072   0.157  25.027  0.00  0.00    +0.000 C 
ENDBRANCH   8  10
ENDBRANCH   1   8
BRANCH   6  11
ATOM     11  C   UNL     1       9.600  -2.258  23.441  0.00  0.00    +0.000 C 
BRANCH  11  12
ATOM     12  N   UNL     1       8.636  -2.946  22.615  0.00  0.00    +0.000 NA
BRANCH  12  13
ATOM     13  C   UNL     1       7.505  -3.297  23.429  0.00  0.00    +0.000 C 
ATOM     14  C   UNL     1       6.220  -2.976  22.661  0.00  0.00    +0.000 C 
ATOM     15  C   UNL     1       5.267  -4.159  22.762  0.00  0.00    +0.000 C 
ATOM     16  C   UNL     1       5.837  -5.349  21.999  0.00  0.00    +0.000 C 
ATOM     17  C   UNL     1       7.289  -5.561  22.428  0.00  0.00    +0.000 C 
ATOM     18  C   UNL     1       7.528  -4.795  23.728  0.00  0.00    +0.000 C 
ATOM     19  O   UNL     1       5.846  -5.017  20.635  0.00  0.00    +0.000 OA
ENDBRANCH  12  13
ENDBRANCH  11  12
ENDBRANCH   6  11
TORSDOF 5
ENDMDL
MODEL 6
REMARK VINA RESULT:      -5.9      3.640      6.685
REMARK  Name = 
REMARK  5 active torsions:
REMARK  status: ('A' for Active; 'I' for Inactive)
REMARK    1  A    between atoms: C_2  and  N_3
REMARK    2  A    between atoms: N_3  and  C_4
REMARK    3  A    between atoms: C_9  and  C_10
REMARK    4  A    between atoms: C_10  and  N_11
REMARK    5  A    between atoms: N_11  and  C_12
REMARK                            x       y       z     vdW  Elec       q    Type
REMARK                         _______ _______ _______ _____ _____    ______ ____
ROOT
ATOM      1  C   UNL     1       7.326  -4.322  24.121  0.00  0.00    +0.000 C 
ATOM      2  C   UNL     1       6.082  -5.222  24.094  0.00  0.00    +0.000 C 
ATOM      3  C   UNL     1       6.077  -5.945  22.747  0.00  0.00    +0.000 C 
ATOM      4  C   UNL     1       6.765  -5.354  21.650  0.00  0.00    +0.000 C 
ATOM      5  C   UNL     1       6.820  -3.902  21.698  0.00  0.00    +0.000 C 
ATOM      6  C   UNL     1       7.196  -3.339  22.961  0.00  0.00    +0.000 C 
ATOM      7  F   UNL     1       6.234  -5.728  20.485  0.00  0.00    +0.000 F 
ENDROOT
BRANCH   1   8
ATOM      8  N   UNL     1       8.492  -5.143  23.926  0.00  0.00    +0.000 NA
BRANCH   8  10
ATOM      9  C   UNL     1       8.859  -4.106  26.084  0.00  0.00    +0.000 C 
ATOM     10  C   UNL     1       9.089  -5.340  25.223  0.00  0.00    +0.000 C 
ENDBRANCH   8  10
ENDBRANCH   1   8
BRANCH   6  11
ATOM     11  C   UNL     1       6.589  -2.005  23.397  0.00  0.00    +0.000 C 
BRANCH  11  12
ATOM     12  N   UNL     1       7.609  -1.259  24.096  0.00  0.00    +0.000 NA
BRANCH  12  13
ATOM     13  C   UNL     1       8.744  -1.113  23.227  0.00  0.00    +0.000 C 
ATOM     14  C   UNL     1       8.667   0.248  22.532  0.00  0.00    +0.000 C 
ATOM     15  C   UNL     1      10.026   0.928  22.608  0.00  0.00    +0.000 C 
ATOM     16  C   UNL     1      10.339   1.296  24.054  0.00  0.00    +0.000 C 
ATOM     17  C   UNL     1      10.101   0.072  24.938  0.00  0.00    +0.000 C 
ATOM     18  C   UNL     1      10.032  -1.165  24.045  0.00  0.00    +0.000 C 
ATOM     19  O   UNL     1       9.426   2.286  24.451  0.00  0.00    +0.000 OA
ENDBRANCH  12  13
ENDBRANCH  11  12
ENDBRANCH   6  11
TORSDOF 5
ENDMDL
MODEL 7
REMARK VINA RESULT:      -5.8      3.371      6.232
REMARK  Name = 
REMARK  5 active torsions:
REMARK  status: ('A' for Active; 'I' for Inactive)
REMARK    1  A    between atoms: C_2  and  N_3
REMARK    2  A    between atoms: N_3  and  C_4
REMARK    3  A    between atoms: C_9  and  C_10
REMARK    4  A    between atoms: C_10  and  N_11
REMARK    5  A    between atoms: N_11  and  C_12
REMARK                            x       y       z     vdW  Elec       q    Type
REMARK                         _______ _______ _______ _____ _____    ______ ____
ROOT
ATOM      1  C   UNL     1       7.873  -4.414  23.617  0.00  0.00    +0.000 C 
ATOM      2  C   UNL     1       8.629  -4.872  24.873  0.00  0.00    +0.000 C 
ATOM      3  C   UNL     1       7.840  -4.374  26.083  0.00  0.00    +0.000 C 
ATOM      4  C   UNL     1       6.989  -3.244  25.927  0.00  0.00    +0.000 C 
ATOM      5  C   UNL     1       7.430  -2.306  24.908  0.00  0.00    +0.000 C 
ATOM      6  C   UNL     1       7.818  -2.889  23.657  0.00  0.00    +0.000 C 
ATOM      7  F   UNL     1       6.834  -2.589  27.079  0.00  0.00    +0.000 F 
ENDROOT
BRANCH   1   8
ATOM      8  N   UNL     1       6.537  -4.944  23.666  0.00  0.00    +0.000 NA
BRANCH   8  10
ATOM      9  C   UNL     1       6.889  -5.801  21.428  0.00  0.00    +0.000 C 
ATOM     10  C   UNL     1       6.025  -4.919  22.319  0.00  0.00    +0.000 C 
ENDBRANCH   8  10
ENDBRANCH   1   8
BRANCH   6  11
ATOM     11  C   UNL     1       8.945  -2.247  22.848  0.00  0.00    +0.000 C 
BRANCH  11  12
ATOM     12  N   UNL     1       9.902  -1.695  23.779  0.00  0.00    +0.000 NA
BRANCH  12  13
ATOM     13  C   UNL     1      10.575  -0.596  23.145  0.00  0.00    +0.000 C 
ATOM     14  C   UNL     1       9.750  -0.135  21.941  0.00  0.00    +0.000 C 
ATOM     15  C   UNL     1       9.633   1.382  21.964  0.00  0.00    +0.000 C 
ATOM     16  C   UNL     1       8.784   1.818  23.152  0.00  0.00    +0.000 C 
ATOM     17  C   UNL     1       9.301   1.121  24.410  0.00  0.00    +0.000 C 
ATOM     18  C   UNL     1      10.696   0.571  24.122  0.00  0.00    +0.000 C 
ATOM     19  O   UNL     1       7.473   1.366  22.929  0.00  0.00    +0.000 OA
ENDBRANCH  12  13
ENDBRANCH  11  12
ENDBRANCH   6  11
TORSDOF 5
ENDMDL
MODEL 8
REMARK VINA RESULT:      -5.8      2.623      3.908
REMARK  Name = 
REMARK  5 active torsions:
REMARK  status: ('A' for Active; 'I' for Inactive)
REMARK    1  A    between atoms: C_2  and  N_3
REMARK    2  A    between atoms: N_3  and  C_4
REMARK    3  A    between atoms: C_9  and  C_10
REMARK    4  A    between atoms: C_10  and  N_11
REMARK    5  A    between atoms: N_11  and  C_12
REMARK                            x       y       z     vdW  Elec       q    Type
REMARK                         _______ _______ _______ _____ _____    ______ ____
ROOT
ATOM      1  C   UNL     1       8.019  -0.476  23.283  0.00  0.00    +0.000 C 
ATOM      2  C   UNL     1       9.352  -0.778  22.584  0.00  0.00    +0.000 C 
ATOM      3  C   UNL     1       9.300  -0.120  21.206  0.00  0.00    +0.000 C 
ATOM      4  C   UNL     1       8.030   0.133  20.615  0.00  0.00    +0.000 C 
ATOM      5  C   UNL     1       6.995  -0.806  21.015  0.00  0.00    +0.000 C 
ATOM      6  C   UNL     1       6.912  -1.076  22.420  0.00  0.00    +0.000 C 
ATOM      7  F   UNL     1       8.108   0.149  19.284  0.00  0.00    +0.000 F 
ENDROOT
BRANCH   1   8
ATOM      8  N   UNL     1       7.851   0.951  23.354  0.00  0.00    +0.000 NA
BRANCH   8  10
ATOM      9  C   UNL     1       9.321   2.659  24.244  0.00  0.00    +0.000 C 
ATOM     10  C   UNL     1       8.528   1.395  24.547  0.00  0.00    +0.000 C 
ENDBRANCH   8  10
ENDBRANCH   1   8
BRANCH   6  11
ATOM     11  C   UNL     1       6.501  -2.471  22.893  0.00  0.00    +0.000 C 
BRANCH  11  12
ATOM     12  N   UNL     1       6.188  -2.389  24.300  0.00  0.00    +0.000 NA
BRANCH  12  13
ATOM     13  C   UNL     1       6.352  -3.694  24.880  0.00  0.00    +0.000 C 
ATOM     14  C   UNL     1       7.230  -4.542  23.957  0.00  0.00    +0.000 C 
ATOM     15  C   UNL     1       8.294  -5.247  24.786  0.00  0.00    +0.000 C 
ATOM     16  C   UNL     1       9.273  -4.224  25.349  0.00  0.00    +0.000 C 
ATOM     17  C   UNL     1       8.482  -3.096  26.011  0.00  0.00    +0.000 C 
ATOM     18  C   UNL     1       7.049  -3.574  26.234  0.00  0.00    +0.000 C 
ATOM     19  O   UNL     1       9.977  -3.667  24.270  0.00  0.00    +0.000 OA
ENDBRANCH  12  13
ENDBRANCH  11  12
ENDBRANCH   6  11
TORSDOF 5
ENDMDL
MODEL 9
REMARK VINA RESULT:      -5.7      3.460      6.103
REMARK  Name = 
REMARK  5 active torsions:
REMARK  status: ('A' for Active; 'I' for Inactive)
REMARK    1  A    between atoms: C_2  and  N_3
REMARK    2  A    between atoms: N_3  and  C_4
REMARK    3  A    between atoms: C_9  and  C_10
REMARK    4  A    between atoms: C_10  and  N_11
REMARK    5  A    between atoms: N_11  and  C_12
REMARK                            x       y       z     vdW  Elec       q    Type
REMARK                         _______ _______ _______ _____ _____    ______ ____
ROOT
ATOM      1  C   UNL     1       6.929  -1.759  23.366  0.00  0.00    +0.000 C 
ATOM      2  C   UNL     1       6.597  -1.751  21.867  0.00  0.00    +0.000 C 
ATOM      3  C   UNL     1       6.007  -3.119  21.527  0.00  0.00    +0.000 C 
ATOM      4  C   UNL     1       6.333  -4.230  22.353  0.00  0.00    +0.000 C 
ATOM      5  C   UNL     1       7.640  -4.136  22.983  0.00  0.00    +0.000 C 
ATOM      6  C   UNL     1       7.942  -2.876  23.597  0.00  0.00    +0.000 C 
ATOM      7  F   UNL     1       6.261  -5.378  21.677  0.00  0.00    +0.000 F 
ENDROOT
BRANCH   1   8
ATOM      8  N   UNL     1       5.725  -2.044  24.101  0.00  0.00    +0.000 NA
BRANCH   8  10
ATOM      9  C   UNL     1       5.886   0.266  24.815  0.00  0.00    +0.000 C 
ATOM     10  C   UNL     1       5.725  -1.183  25.257  0.00  0.00    +0.000 C 
ENDBRANCH   8  10
ENDBRANCH   1   8
BRANCH   6  11
ATOM     11  C   UNL     1       9.383  -2.364  23.585  0.00  0.00    +0.000 C 
BRANCH  11  12
ATOM     12  N   UNL     1       9.403  -1.079  24.245  0.00  0.00    +0.000 NA
BRANCH  12  13
ATOM     13  C   UNL     1      10.381  -0.249  23.597  0.00  0.00    +0.000 C 
ATOM     14  C   UNL     1       9.851   0.162  22.221  0.00  0.00    +0.000 C 
ATOM     15  C   UNL     1      10.064   1.656  22.027  0.00  0.00    +0.000 C 
ATOM     16  C   UNL     1       9.172   2.435  22.987  0.00  0.00    +0.000 C 
ATOM     17  C   UNL     1       9.344   1.864  24.394  0.00  0.00    +0.000 C 
ATOM     18  C   UNL     1      10.614   1.015  24.422  0.00  0.00    +0.000 C 
ATOM     19  O   UNL     1       7.839   2.215  22.604  0.00  0.00    +0.000 OA
ENDBRANCH  12  13
ENDBRANCH  11  12
ENDBRANCH   6  11
TORSDOF 5
ENDMDL
