MODEL 1
REMARK VINA RESULT:      -6.4      0.000      0.000
REMARK  Name = 
REMARK  3 active torsions:
REMARK  status: ('A' for Active; 'I' for Inactive)
REMARK    1  A    between atoms: C_2  and  C_4
REMARK    2  A    between atoms: C_4  and  C_5
REMARK    3  A    between atoms: C_11  and  C_15
REMARK                            x       y       z     vdW  Elec       q    Type
REMARK                         _______ _______ _______ _____ _____    ______ ____
ROOT
ATOM      1  C   UNL     1       8.065   0.064  23.890  0.00  0.00    +0.000 C 
ATOM      2  C   UNL     1       6.646  -0.724  23.625  0.00  0.00    +0.000 C 
ATOM      3  C   UNL     1       7.575   1.515  23.707  0.00  0.00    +0.000 C 
ATOM      4  C   UNL     1       7.322   1.346  22.077  0.00  0.00    +0.000 C 
ATOM      5  C   UNL     1       8.782   0.924  21.729  0.00  0.00    +0.000 C 
ATOM      6  C   UNL     1       8.882  -0.361  22.788  0.00  0.00    +0.000 C 
ATOM      7  C   UNL     1       8.141  -1.186  21.608  0.00  0.00    +0.000 C 
ATOM      8  C   UNL     1       8.674  -0.004  20.544  0.00  0.00    +0.000 C 
ATOM      9  C   UNL     1       7.411   0.364  19.769  0.00  0.00    +0.000 C 
ATOM     10  C   UNL     1       9.886   1.748  21.942  0.00  0.00    +0.000 C 
ATOM     11  C   UNL     1       9.885   2.431  23.318  0.00  0.00    +0.000 C 
ATOM     12  C   UNL     1       8.461   2.687  23.721  0.00  0.00    +0.000 C 
ATOM     13  C   UNL     1       8.303   3.606  24.910  0.00  0.00    +0.000 C 
ATOM     14  O   UNL     1       7.985   3.572  22.616  0.00  0.00    +0.000 OA
ENDROOT
BRANCH   6  15
ATOM     15  C   UNL     1      10.246  -0.808  22.855  0.00  0.00    +0.000 C 
ATOM     16  O   UNL     1      10.352  -1.995  22.526  0.00  0.00    +0.000 OA
ATOM     17  O   UNL     1      10.888  -0.405  23.969  0.00  0.00    +0.000 OA
ENDBRANCH   6  15
BRANCH   1  18
ATOM     18  C   UNL     1       8.459  -0.305  25.249  0.00  0.00    +0.000 C 
BRANCH  18  20
ATOM     19  O   UNL     1       7.483  -1.533  26.895  0.00  0.00    +0.000 OA
ATOM     20  C   UNL     1       8.134  -1.670  25.693  0.00  0.00    +0.000 C 
ATOM     21  O   UNL     1       8.737  -2.699  25.526  0.00  0.00    +0.000 OA
ENDBRANCH  18  20
ENDBRANCH   1  18
TORSDOF 3
ENDMDL
MODEL 2
REMARK VINA RESULT:      -6.1      2.086      3.433
REMARK  Name = 
REMARK  3 active torsions:
REMARK  status: ('A' for Active; 'I' for Inactive)
REMARK    1  A    between atoms: C_2  and  C_4
REMARK    2  A    between atoms: C_4  and  C_5
REMARK    3  A    between atoms: C_11  and  C_15
REMARK                            x       y       z     vdW  Elec       q    Type
REMARK                         _______ _______ _______ _____ _____    ______ ____
ROOT
ATOM      1  C   UNL     1       7.585  -1.320  22.615  0.00  0.00    +0.000 C 
ATOM      2  C   UNL     1       7.185  -0.672  21.158  0.00  0.00    +0.000 C 
ATOM      3  C   UNL     1       6.710  -0.433  23.525  0.00  0.00    +0.000 C 
ATOM      4  C   UNL     1       7.610   0.933  23.252  0.00  0.00    +0.000 C 
ATOM      5  C   UNL     1       8.963   0.337  23.746  0.00  0.00    +0.000 C 
ATOM      6  C   UNL     1       8.979  -0.996  22.743  0.00  0.00    +0.000 C 
ATOM      7  C   UNL     1       9.590   0.030  21.650  0.00  0.00    +0.000 C 
ATOM      8  C   UNL     1      10.037   1.017  22.932  0.00  0.00    +0.000 C 
ATOM      9  C   UNL     1       9.515   2.389  22.514  0.00  0.00    +0.000 C 
ATOM     10  C   UNL     1       9.174  -0.101  25.052  0.00  0.00    +0.000 C 
ATOM     11  C   UNL     1       8.026  -0.962  25.602  0.00  0.00    +0.000 C 
ATOM     12  C   UNL     1       6.739  -0.485  24.993  0.00  0.00    +0.000 C 
ATOM     13  C   UNL     1       5.495  -1.038  25.647  0.00  0.00    +0.000 C 
ATOM     14  O   UNL     1       6.691   0.936  25.453  0.00  0.00    +0.000 OA
ENDROOT
BRANCH   6  15
ATOM     15  C   UNL     1      10.030  -1.883  23.158  0.00  0.00    +0.000 C 
ATOM     16  O   UNL     1      10.940  -1.931  22.323  0.00  0.00    +0.000 OA
ATOM     17  O   UNL     1       9.580  -3.047  23.665  0.00  0.00    +0.000 OA
ENDBRANCH   6  15
BRANCH   1  18
ATOM     18  C   UNL     1       7.188  -2.725  22.530  0.00  0.00    +0.000 C 
BRANCH  18  20
ATOM     19  O   UNL     1       5.043  -3.324  22.988  0.00  0.00    +0.000 OA
ATOM     20  C   UNL     1       5.873  -3.015  21.937  0.00  0.00    +0.000 C 
ATOM     21  O   UNL     1       5.598  -3.511  20.875  0.00  0.00    +0.000 OA
ENDBRANCH  18  20
ENDBRANCH   1  18
TORSDOF 3
ENDMDL
MODEL 3
REMARK VINA RESULT:      -6.0      2.582      5.299
REMARK  Name = 
REMARK  3 active torsions:
REMARK  status: ('A' for Active; 'I' for Inactive)
REMARK    1  A    between atoms: C_2  and  C_4
REMARK    2  A    between atoms: C_4  and  C_5
REMARK    3  A    between atoms: C_11  and  C_15
REMARK                            x       y       z     vdW  Elec       q    Type
REMARK                         _______ _______ _______ _____ _____    ______ ____
ROOT
ATOM      1  C   UNL     1       6.890  -1.713  22.654  0.00  0.00    +0.000 C 
ATOM      2  C   UNL     1       6.008  -2.804  21.795  0.00  0.00    +0.000 C 
ATOM      3  C   UNL     1       8.268  -2.402  22.579  0.00  0.00    +0.000 C 
ATOM      4  C   UNL     1       7.821  -3.661  23.561  0.00  0.00    +0.000 C 
ATOM      5  C   UNL     1       7.413  -2.778  24.779  0.00  0.00    +0.000 C 
ATOM      6  C   UNL     1       6.325  -1.804  23.972  0.00  0.00    +0.000 C 
ATOM      7  C   UNL     1       5.285  -3.017  24.235  0.00  0.00    +0.000 C 
ATOM      8  C   UNL     1       6.298  -3.522  25.474  0.00  0.00    +0.000 C 
ATOM      9  C   UNL     1       6.477  -5.012  25.193  0.00  0.00    +0.000 C 
ATOM     10  C   UNL     1       8.307  -1.956  25.461  0.00  0.00    +0.000 C 
ATOM     11  C   UNL     1       9.207  -1.127  24.532  0.00  0.00    +0.000 C 
ATOM     12  C   UNL     1       9.464  -1.922  23.285  0.00  0.00    +0.000 C 
ATOM     13  C   UNL     1      10.559  -1.367  22.403  0.00  0.00    +0.000 C 
ATOM     14  O   UNL     1      10.133  -3.141  23.830  0.00  0.00    +0.000 OA
ENDROOT
BRANCH   6  15
ATOM     15  C   UNL     1       5.955  -0.708  24.823  0.00  0.00    +0.000 C 
ATOM     16  O   UNL     1       4.830  -0.869  25.309  0.00  0.00    +0.000 OA
ATOM     17  O   UNL     1       6.247   0.499  24.300  0.00  0.00    +0.000 OA
ENDBRANCH   6  15
BRANCH   1  18
ATOM     18  C   UNL     1       6.768  -0.457  21.916  0.00  0.00    +0.000 C 
BRANCH  18  20
ATOM     19  O   UNL     1       8.192   0.046  20.216  0.00  0.00    +0.000 OA
ATOM     20  C   UNL     1       6.962  -0.516  20.458  0.00  0.00    +0.000 C 
ATOM     21  O   UNL     1       6.154  -0.437  19.568  0.00  0.00    +0.000 OA
ENDBRANCH  18  20
ENDBRANCH   1  18
TORSDOF 3
ENDMDL
MODEL 4
REMARK VINA RESULT:      -5.9      2.375      4.285
REMARK  Name = 
REMARK  3 active torsions:
REMARK  status: ('A' for Active; 'I' for Inactive)
REMARK    1  A    between atoms: C_2  and  C_4
REMARK    2  A    between atoms: C_4  and  C_5
REMARK    3  A    between atoms: C_11  and  C_15
REMARK                            x       y       z     vdW  Elec       q    Type
REMARK                         _______ _______ _______ _____ _____    ______ ____
ROOT
ATOM      1  C   UNL     1       7.448  -2.942  23.470  0.00  0.00    +0.000 C 
ATOM      2  C   UNL     1       6.425  -2.691  22.206  0.00  0.00    +0.000 C 
ATOM      3  C   UNL     1       6.496  -2.579  24.628  0.00  0.00    +0.000 C 
ATOM      4  C   UNL     1       6.460  -0.966  24.246  0.00  0.00    +0.000 C 
ATOM      5  C   UNL     1       7.999  -0.740  24.350  0.00  0.00    +0.000 C 
ATOM      6  C   UNL     1       8.454  -1.935  23.278  0.00  0.00    +0.000 C 
ATOM      7  C   UNL     1       8.155  -0.814  22.148  0.00  0.00    +0.000 C 
ATOM      8  C   UNL     1       8.327   0.343  23.351  0.00  0.00    +0.000 C 
ATOM      9  C   UNL     1       7.087   1.216  23.176  0.00  0.00    +0.000 C 
ATOM     10  C   UNL     1       8.720  -0.919  25.529  0.00  0.00    +0.000 C 
ATOM     11  C   UNL     1       8.360  -2.212  26.277  0.00  0.00    +0.000 C 
ATOM     12  C   UNL     1       6.908  -2.512  26.037  0.00  0.00    +0.000 C 
ATOM     13  C   UNL     1       6.335  -3.586  26.932  0.00  0.00    +0.000 C 
ATOM     14  O   UNL     1       6.247  -1.295  26.598  0.00  0.00    +0.000 OA
ENDROOT
BRANCH   6  15
ATOM     15  C   UNL     1       9.876  -2.119  23.357  0.00  0.00    +0.000 C 
ATOM     16  O   UNL     1      10.432  -1.833  22.290  0.00  0.00    +0.000 OA
ATOM     17  O   UNL     1      10.235  -3.266  23.965  0.00  0.00    +0.000 OA
ENDBRANCH   6  15
BRANCH   1  18
ATOM     18  C   UNL     1       7.828  -4.351  23.380  0.00  0.00    +0.000 C 
BRANCH  18  20
ATOM     19  O   UNL     1       6.093  -5.820  23.388  0.00  0.00    +0.000 OA
ATOM     20  C   UNL     1       6.989  -5.218  22.538  0.00  0.00    +0.000 C 
ATOM     21  O   UNL     1       7.270  -5.828  21.538  0.00  0.00    +0.000 OA
ENDBRANCH  18  20
ENDBRANCH   1  18
TORSDOF 3
ENDMDL
MODEL 5
REMARK VINA RESULT:      -5.9      1.890      3.729
REMARK  Name = 
REMARK  3 active torsions:
REMARK  status: ('A' for Active; 'I' for Inactive)
REMARK    1  A    between atoms: C_2  and  C_4
REMARK    2  A    between atoms: C_4  and  C_5
REMARK    3  A    between atoms: C_11  and  C_15
REMARK                            x       y       z     vdW  Elec       q    Type
REMARK                         _______ _______ _______ _____ _____    ______ ____
ROOT
ATOM      1  C   UNL     1       7.103  -0.343  23.066  0.00  0.00    +0.000 C 
ATOM      2  C   UNL     1       6.127   0.326  24.209  0.00  0.00    +0.000 C 
ATOM      3  C   UNL     1       8.375  -0.536  23.915  0.00  0.00    +0.000 C 
ATOM      4  C   UNL     1       8.683   1.089  24.034  0.00  0.00    +0.000 C 
ATOM      5  C   UNL     1       8.755   1.353  22.499  0.00  0.00    +0.000 C 
ATOM      6  C   UNL     1       7.261   0.720  22.111  0.00  0.00    +0.000 C 
ATOM      7  C   UNL     1       6.706   2.177  22.547  0.00  0.00    +0.000 C 
ATOM      8  C   UNL     1       8.258   2.764  22.298  0.00  0.00    +0.000 C 
ATOM      9  C   UNL     1       8.543   3.552  23.574  0.00  0.00    +0.000 C 
ATOM     10  C   UNL     1       9.704   0.763  21.666  0.00  0.00    +0.000 C 
ATOM     11  C   UNL     1       9.889  -0.741  21.917  0.00  0.00    +0.000 C 
ATOM     12  C   UNL     1       9.656  -1.013  23.375  0.00  0.00    +0.000 C 
ATOM     13  C   UNL     1      10.080  -2.390  23.830  0.00  0.00    +0.000 C 
ATOM     14  O   UNL     1      10.709  -0.168  24.016  0.00  0.00    +0.000 OA
ENDROOT
BRANCH   6  15
ATOM     15  C   UNL     1       7.153   0.611  20.683  0.00  0.00    +0.000 C 
ATOM     16  O   UNL     1       6.279   1.363  20.234  0.00  0.00    +0.000 OA
ATOM     17  O   UNL     1       7.178  -0.660  20.239  0.00  0.00    +0.000 OA
ENDBRANCH   6  15
BRANCH   1  18
ATOM     18  C   UNL     1       6.423  -1.570  22.654  0.00  0.00    +0.000 C 
BRANCH  18  20
ATOM     19  O   UNL     1       6.926  -3.676  23.349  0.00  0.00    +0.000 OA
ATOM     20  C   UNL     1       6.174  -2.579  23.696  0.00  0.00    +0.000 C 
ATOM     21  O   UNL     1       5.179  -2.795  24.339  0.00  0.00    +0.000 OA
ENDBRANCH  18  20
ENDBRANCH   1  18
TORSDOF 3
ENDMDL
MODEL 6
REMARK VINA RESULT:      -5.8      2.215      4.164
REMARK  Name = 
REMARK  3 active torsions:
REMARK  status: ('A' for Active; 'I' for Inactive)
REMARK    1  A    between atoms: C_2  and  C_4
REMARK    2  A    between atoms: C_4  and  C_5
REMARK    3  A    between atoms: C_11  and  C_15
REMARK                            x       y       z     vdW  Elec       q    Type
REMARK                         _______ _______ _______ _____ _____    ______ ____
ROOT
ATOM      1  C   UNL     1       7.743  -1.675  23.279  0.00  0.00    +0.000 C 
ATOM      2  C   UNL     1       8.935  -2.764  23.589  0.00  0.00    +0.000 C 
ATOM      3  C   UNL     1       8.327  -1.029  22.006  0.00  0.00    +0.000 C 
ATOM      4  C   UNL     1       9.570  -0.286  22.815  0.00  0.00    +0.000 C 
ATOM      5  C   UNL     1       8.666   0.516  23.798  0.00  0.00    +0.000 C 
ATOM      6  C   UNL     1       7.816  -0.785  24.404  0.00  0.00    +0.000 C 
ATOM      7  C   UNL     1       9.090  -0.958  25.387  0.00  0.00    +0.000 C 
ATOM      8  C   UNL     1       9.460   0.648  25.076  0.00  0.00    +0.000 C 
ATOM      9  C   UNL     1      10.943   0.603  24.717  0.00  0.00    +0.000 C 
ATOM     10  C   UNL     1       7.748   1.478  23.380  0.00  0.00    +0.000 C 
ATOM     11  C   UNL     1       6.896   1.031  22.182  0.00  0.00    +0.000 C 
ATOM     12  C   UNL     1       7.726   0.123  21.321  0.00  0.00    +0.000 C 
ATOM     13  C   UNL     1       7.131  -0.167  19.963  0.00  0.00    +0.000 C 
ATOM     14  O   UNL     1       8.865   1.014  20.944  0.00  0.00    +0.000 OA
ENDROOT
BRANCH   6  15
ATOM     15  C   UNL     1       6.712  -0.301  25.186  0.00  0.00    +0.000 C 
ATOM     16  O   UNL     1       6.861  -0.554  26.388  0.00  0.00    +0.000 OA
ATOM     17  O   UNL     1       5.510  -0.556  24.634  0.00  0.00    +0.000 OA
ENDBRANCH   6  15
BRANCH   1  18
ATOM     18  C   UNL     1       6.535  -2.476  23.085  0.00  0.00    +0.000 C 
BRANCH  18  20
ATOM     19  O   UNL     1       5.557  -3.034  21.109  0.00  0.00    +0.000 OA
ATOM     20  C   UNL     1       6.543  -3.442  21.975  0.00  0.00    +0.000 C 
ATOM     21  O   UNL     1       6.797  -4.619  21.979  0.00  0.00    +0.000 OA
ENDBRANCH  18  20
ENDBRANCH   1  18
TORSDOF 3
ENDMDL
MODEL 7
REMARK VINA RESULT:      -5.8      3.119      5.798
REMARK  Name = 
REMARK  3 active torsions:
REMARK  status: ('A' for Active; 'I' for Inactive)
REMARK    1  A    between atoms: C_2  and  C_4
REMARK    2  A    between atoms: C_4  and  C_5
REMARK    3  A    between atoms: C_11  and  C_15
REMARK                            x       y       z     vdW  Elec       q    Type
REMARK                         _______ _______ _______ _____ _____    ______ ____
ROOT
ATOM      1  C   UNL     1       7.304  -2.533  24.657  0.00  0.00    +0.000 C 
ATOM      2  C   UNL     1       6.578  -1.840  25.961  0.00  0.00    +0.000 C 
ATOM      3  C   UNL     1       6.080  -2.642  23.726  0.00  0.00    +0.000 C 
ATOM      4  C   UNL     1       5.341  -3.809  24.644  0.00  0.00    +0.000 C 
ATOM      5  C   UNL     1       6.514  -4.834  24.577  0.00  0.00    +0.000 C 
ATOM      6  C   UNL     1       7.706  -3.819  25.155  0.00  0.00    +0.000 C 
ATOM      7  C   UNL     1       7.141  -4.244  26.611  0.00  0.00    +0.000 C 
ATOM      8  C   UNL     1       6.471  -5.597  25.879  0.00  0.00    +0.000 C 
ATOM      9  C   UNL     1       5.030  -5.591  26.383  0.00  0.00    +0.000 C 
ATOM     10  C   UNL     1       6.967  -5.400  23.387  0.00  0.00    +0.000 C 
ATOM     11  C   UNL     1       7.138  -4.381  22.249  0.00  0.00    +0.000 C 
ATOM     12  C   UNL     1       6.103  -3.306  22.415  0.00  0.00    +0.000 C 
ATOM     13  C   UNL     1       5.956  -2.391  21.222  0.00  0.00    +0.000 C 
ATOM     14  O   UNL     1       4.833  -4.087  22.330  0.00  0.00    +0.000 OA
ENDROOT
BRANCH   6  15
ATOM     15  C   UNL     1       8.985  -4.447  24.973  0.00  0.00    +0.000 C 
ATOM     16  O   UNL     1       9.421  -4.907  26.035  0.00  0.00    +0.000 OA
ATOM     17  O   UNL     1       9.829  -3.731  24.205  0.00  0.00    +0.000 OA
ENDBRANCH   6  15
BRANCH   1  18
ATOM     18  C   UNL     1       8.333  -1.580  24.242  0.00  0.00    +0.000 C 
BRANCH  18  20
ATOM     19  O   UNL     1       8.524  -0.347  22.341  0.00  0.00    +0.000 OA
ATOM     20  C   UNL     1       7.878  -0.361  23.555  0.00  0.00    +0.000 C 
ATOM     21  O   UNL     1       7.570   0.711  24.008  0.00  0.00    +0.000 OA
ENDBRANCH  18  20
ENDBRANCH   1  18
TORSDOF 3
ENDMDL
MODEL 8
REMARK VINA RESULT:      -5.7      3.439      6.036
REMARK  Name = 
REMARK  3 active torsions:
REMARK  status: ('A' for Active; 'I' for Inactive)
REMARK    1  A    between atoms: C_2  and  C_4
REMARK    2  A    between atoms: C_4  and  C_5
REMARK    3  A    between atoms: C_11  and  C_15
REMARK                            x       y       z     vdW  Elec       q    Type
REMARK                         _______ _______ _______ _____ _____    ______ ____
ROOT
ATOM      1  C   UNL     1       6.844  -3.633  23.160  0.00  0.00    +0.000 C 
ATOM      2  C   UNL     1       6.274  -2.500  22.113  0.00  0.00    +0.000 C 
ATOM      3  C   UNL     1       5.528  -3.977  23.887  0.00  0.00    +0.000 C 
ATOM      4  C   UNL     1       5.431  -2.507  24.649  0.00  0.00    +0.000 C 
ATOM      5  C   UNL     1       6.812  -2.605  25.366  0.00  0.00    +0.000 C 
ATOM      6  C   UNL     1       7.732  -2.881  24.002  0.00  0.00    +0.000 C 
ATOM      7  C   UNL     1       7.694  -1.270  23.843  0.00  0.00    +0.000 C 
ATOM      8  C   UNL     1       7.321  -1.188  25.477  0.00  0.00    +0.000 C 
ATOM      9  C   UNL     1       6.115  -0.254  25.515  0.00  0.00    +0.000 C 
ATOM     10  C   UNL     1       7.118  -3.591  26.302  0.00  0.00    +0.000 C 
ATOM     11  C   UNL     1       6.686  -5.001  25.871  0.00  0.00    +0.000 C 
ATOM     12  C   UNL     1       5.441  -4.883  25.040  0.00  0.00    +0.000 C 
ATOM     13  C   UNL     1       4.735  -6.194  24.783  0.00  0.00    +0.000 C 
ATOM     14  O   UNL     1       4.494  -4.236  25.997  0.00  0.00    +0.000 OA
ENDROOT
BRANCH   6  15
ATOM     15  C   UNL     1       9.060  -3.257  24.400  0.00  0.00    +0.000 C 
ATOM     16  O   UNL     1       9.908  -2.479  23.949  0.00  0.00    +0.000 OA
ATOM     17  O   UNL     1       9.298  -4.579  24.290  0.00  0.00    +0.000 OA
ENDBRANCH   6  15
BRANCH   1  18
ATOM     18  C   UNL     1       7.396  -4.691  22.315  0.00  0.00    +0.000 C 
BRANCH  18  20
ATOM     19  O   UNL     1       6.682  -6.824  21.980  0.00  0.00    +0.000 OA
ATOM     20  C   UNL     1       6.435  -5.532  21.583  0.00  0.00    +0.000 C 
ATOM     21  O   UNL     1       5.970  -5.392  20.481  0.00  0.00    +0.000 OA
ENDBRANCH  18  20
ENDBRANCH   1  18
TORSDOF 3
ENDMDL
MODEL 9
REMARK VINA RESULT:      -5.7      3.782      6.151
REMARK  Name = 
REMARK  3 active torsions:
REMARK  status: ('A' for Active; 'I' for Inactive)
REMARK    1  A    between atoms: C_2  and  C_4
REMARK    2  A    between atoms: C_4  and  C_5
REMARK    3  A    between atoms: C_11  and  C_15
REMARK                            x       y       z     vdW  Elec       q    Type
REMARK                         _______ _______ _______ _____ _____    ______ ____
ROOT
ATOM      1  C   UNL     1       7.035  -4.588  25.612  0.00  0.00    +0.000 C 
ATOM      2  C   UNL     1       8.484  -4.977  26.287  0.00  0.00    +0.000 C 
ATOM      3  C   UNL     1       7.315  -5.034  24.162  0.00  0.00    +0.000 C 
ATOM      4  C   UNL     1       8.411  -3.822  23.878  0.00  0.00    +0.000 C 
ATOM      5  C   UNL     1       7.439  -2.647  24.200  0.00  0.00    +0.000 C 
ATOM      6  C   UNL     1       6.999  -3.156  25.726  0.00  0.00    +0.000 C 
ATOM      7  C   UNL     1       8.368  -2.429  26.192  0.00  0.00    +0.000 C 
ATOM      8  C   UNL     1       8.299  -1.543  24.768  0.00  0.00    +0.000 C 
ATOM      9  C   UNL     1       9.704  -1.696  24.194  0.00  0.00    +0.000 C 
ATOM     10  C   UNL     1       6.276  -2.396  23.474  0.00  0.00    +0.000 C 
ATOM     11  C   UNL     1       5.446  -3.658  23.193  0.00  0.00    +0.000 C 
ATOM     12  C   UNL     1       6.384  -4.821  23.045  0.00  0.00    +0.000 C 
ATOM     13  C   UNL     1       5.747  -6.071  22.485  0.00  0.00    +0.000 C 
ATOM     14  O   UNL     1       7.226  -4.391  21.888  0.00  0.00    +0.000 OA
ENDROOT
BRANCH   6  15
ATOM     15  C   UNL     1       5.893  -2.362  26.185  0.00  0.00    +0.000 C 
ATOM     16  O   UNL     1       6.183  -1.727  27.206  0.00  0.00    +0.000 OA
ATOM     17  O   UNL     1       4.717  -3.018  26.165  0.00  0.00    +0.000 OA
ENDBRANCH   6  15
BRANCH   1  18
ATOM     18  C   UNL     1       6.048  -5.383  26.340  0.00  0.00    +0.000 C 
BRANCH  18  20
ATOM     19  O   UNL     1       5.951  -6.980  27.956  0.00  0.00    +0.000 OA
ATOM     20  C   UNL     1       6.336  -5.676  27.754  0.00  0.00    +0.000 C 
ATOM     21  O   UNL     1       6.298  -4.952  28.715  0.00  0.00    +0.000 OA
ENDBRANCH  18  20
ENDBRANCH   1  18
TORSDOF 3
ENDMDL
