MODEL 1
REMARK VINA RESULT:      -7.0      0.000      0.000
REMARK  Name = 
REMARK  6 active torsions:
REMARK  status: ('A' for Active; 'I' for Inactive)
REMARK    1  A    between atoms: C_2  and  N_3
REMARK    2  A    between atoms: N_3  and  C_4
REMARK    3  A    between atoms: C_9  and  C_10
REMARK    4  A    between atoms: C_10  and  N_11
REMARK    5  A    between atoms: N_11  and  C_12
REMARK    6  A    between atoms: C_18  and  C_19
REMARK                            x       y       z     vdW  Elec       q    Type
REMARK                         _______ _______ _______ _____ _____    ______ ____
ROOT
ATOM      1  C   UNL     1       7.286  -1.429  22.394  0.00  0.00    +0.000 C 
ATOM      2  C   UNL     1       6.428  -1.504  21.244  0.00  0.00    +0.000 C 
ATOM      3  C   UNL     1       6.340  -0.688  20.098  0.00  0.00    +0.000 C 
ATOM      4 CL   UNL     1       5.818  -1.699  18.914  0.00  0.00    +0.000 Cl
ATOM      5  C   UNL     1       7.581   0.049  19.548  0.00  0.00    +0.000 C 
ATOM      6  N   UNL     1       8.469  -0.200  20.510  0.00  0.00    +0.000 NA
ATOM      7  C   UNL     1       8.281  -0.191  21.854  0.00  0.00    +0.000 C 
ENDROOT
BRANCH   7   8
ATOM      8  C   UNL     1       7.957   0.972  22.622  0.00  0.00    +0.000 C 
ATOM      9  C   UNL     1       8.745   2.256  22.296  0.00  0.00    +0.000 C 
ATOM     10  C   UNL     1      10.228   1.899  22.187  0.00  0.00    +0.000 C 
ATOM     11  N   UNL     1       8.583   3.095  23.495  0.00  0.00    +0.000 NA
ATOM     12  C   UNL     1       8.739   2.271  24.630  0.00  0.00    +0.000 C 
ATOM     13  C   UNL     1       8.275   0.766  24.163  0.00  0.00    +0.000 C 
ATOM     14  C   UNL     1       7.371   0.243  25.126  0.00  0.00    +0.000 C 
ATOM     15  F   UNL     1       7.707  -1.003  25.622  0.00  0.00    +0.000 F 
ATOM     16  C   UNL     1       7.262   1.243  26.375  0.00  0.00    +0.000 C 
ATOM     17  C   UNL     1       7.688   2.587  25.709  0.00  0.00    +0.000 C 
ENDBRANCH   7   8
BRANCH   1  18
ATOM     18  N   UNL     1       8.222  -2.539  22.476  0.00  0.00    +0.000 NA
BRANCH  18  19
ATOM     19  C   UNL     1       7.547  -3.803  22.520  0.00  0.00    +0.000 C 
BRANCH  19  25
ATOM     20  C   UNL     1       6.252  -4.676  24.539  0.00  0.00    +0.000 C 
ATOM     21  C   UNL     1       6.460  -5.545  25.785  0.00  0.00    +0.000 C 
ATOM     22  C   UNL     1       7.443  -4.773  26.680  0.00  0.00    +0.000 C 
ATOM     23  C   UNL     1       8.664  -4.336  26.122  0.00  0.00    +0.000 C 
ATOM     24  C   UNL     1       8.744  -4.208  24.712  0.00  0.00    +0.000 C 
ATOM     25  C   UNL     1       7.584  -4.369  23.918  0.00  0.00    +0.000 C 
ATOM     26  F   UNL     1       9.077  -3.186  26.697  0.00  0.00    +0.000 F 
BRANCH  20  27
ATOM     27  N   UNL     1       5.603  -3.448  24.946  0.00  0.00    +0.000 NA
BRANCH  27  29
ATOM     28  C   UNL     1       3.970  -4.398  23.439  0.00  0.00    +0.000 C 
ATOM     29  C   UNL     1       4.191  -3.615  24.727  0.00  0.00    +0.000 C 
ENDBRANCH  27  29
ENDBRANCH  20  27
ENDBRANCH  19  25
ENDBRANCH  18  19
ENDBRANCH   1  18
TORSDOF 6
ENDMDL
MODEL 2
REMARK VINA RESULT:      -7.0      2.510      6.555
REMARK  Name = 
REMARK  6 active torsions:
REMARK  status: ('A' for Active; 'I' for Inactive)
REMARK    1  A    between atoms: C_2  and  N_3
REMARK    2  A    between atoms: N_3  and  C_4
REMARK    3  A    between atoms: C_9  and  C_10
REMARK    4  A    between atoms: C_10  and  N_11
REMARK    5  A    between atoms: N_11  and  C_12
REMARK    6  A    between atoms: C_18  and  C_19
REMARK                            x       y       z     vdW  Elec       q    Type
REMARK                         _______ _______ _______ _____ _____    ______ ____
ROOT
ATOM      1  C   UNL     1       5.391  -4.792  22.899  0.00  0.00    +0.000 C 
ATOM      2  C   UNL     1       4.319  -5.738  22.765  0.00  0.00    +0.000 C 
ATOM      3  C   UNL     1       3.302  -6.120  23.661  0.00  0.00    +0.000 C 
ATOM      4 CL   UNL     1       2.045  -6.551  22.696  0.00  0.00    +0.000 Cl
ATOM      5  C   UNL     1       2.748  -5.126  24.706  0.00  0.00    +0.000 C 
ATOM      6  N   UNL     1       3.590  -4.104  24.553  0.00  0.00    +0.000 NA
ATOM      7  C   UNL     1       4.934  -4.139  24.374  0.00  0.00    +0.000 C 
ENDROOT
BRANCH   7   8
ATOM      8  C   UNL     1       5.873  -4.608  25.348  0.00  0.00    +0.000 C 
ATOM      9  C   UNL     1       5.593  -4.225  26.815  0.00  0.00    +0.000 C 
ATOM     10  C   UNL     1       5.237  -2.739  26.868  0.00  0.00    +0.000 C 
ATOM     11  N   UNL     1       6.894  -4.388  27.486  0.00  0.00    +0.000 NA
ATOM     12  C   UNL     1       7.890  -3.849  26.645  0.00  0.00    +0.000 C 
ATOM     13  C   UNL     1       7.319  -3.999  25.112  0.00  0.00    +0.000 C 
ATOM     14  C   UNL     1       8.330  -4.574  24.297  0.00  0.00    +0.000 C 
ATOM     15  F   UNL     1       8.622  -3.865  23.147  0.00  0.00    +0.000 F 
ATOM     16  C   UNL     1       9.691  -4.718  25.132  0.00  0.00    +0.000 C 
ATOM     17  C   UNL     1       9.135  -4.753  26.589  0.00  0.00    +0.000 C 
ENDBRANCH   7   8
BRANCH   1  18
ATOM     18  N   UNL     1       5.248  -3.644  22.017  0.00  0.00    +0.000 NA
BRANCH  18  19
ATOM     19  C   UNL     1       5.925  -2.489  22.530  0.00  0.00    +0.000 C 
BRANCH  19  25
ATOM     20  C   UNL     1       7.670  -0.778  21.795  0.00  0.00    +0.000 C 
ATOM     21  C   UNL     1       8.428  -0.335  20.536  0.00  0.00    +0.000 C 
ATOM     22  C   UNL     1       7.369   0.257  19.592  0.00  0.00    +0.000 C 
ATOM     23  C   UNL     1       6.229  -0.517  19.285  0.00  0.00    +0.000 C 
ATOM     24  C   UNL     1       5.875  -1.562  20.176  0.00  0.00    +0.000 C 
ATOM     25  C   UNL     1       6.561  -1.711  21.404  0.00  0.00    +0.000 C 
ATOM     26  F   UNL     1       5.152   0.268  19.069  0.00  0.00    +0.000 F 
BRANCH  20  27
ATOM     27  N   UNL     1       7.122   0.401  22.431  0.00  0.00    +0.000 NA
BRANCH  27  29
ATOM     28  C   UNL     1       8.385  -0.383  24.337  0.00  0.00    +0.000 C 
ATOM     29  C   UNL     1       8.052   0.810  23.450  0.00  0.00    +0.000 C 
ENDBRANCH  27  29
ENDBRANCH  20  27
ENDBRANCH  19  25
ENDBRANCH  18  19
ENDBRANCH   1  18
TORSDOF 6
ENDMDL
MODEL 3
REMARK VINA RESULT:      -6.8      1.544      2.267
REMARK  Name = 
REMARK  6 active torsions:
REMARK  status: ('A' for Active; 'I' for Inactive)
REMARK    1  A    between atoms: C_2  and  N_3
REMARK    2  A    between atoms: N_3  and  C_4
REMARK    3  A    between atoms: C_9  and  C_10
REMARK    4  A    between atoms: C_10  and  N_11
REMARK    5  A    between atoms: N_11  and  C_12
REMARK    6  A    between atoms: C_18  and  C_19
REMARK                            x       y       z     vdW  Elec       q    Type
REMARK                         _______ _______ _______ _____ _____    ______ ____
ROOT
ATOM      1  C   UNL     1       7.475  -1.286  22.278  0.00  0.00    +0.000 C 
ATOM      2  C   UNL     1       6.559  -1.361  21.174  0.00  0.00    +0.000 C 
ATOM      3  C   UNL     1       6.354  -0.498  20.079  0.00  0.00    +0.000 C 
ATOM      4 CL   UNL     1       5.829  -1.481  18.873  0.00  0.00    +0.000 Cl
ATOM      5  C   UNL     1       7.512   0.346  19.502  0.00  0.00    +0.000 C 
ATOM      6  N   UNL     1       8.469   0.108  20.400  0.00  0.00    +0.000 NA
ATOM      7  C   UNL     1       8.358   0.039  21.750  0.00  0.00    +0.000 C 
ENDROOT
BRANCH   7   8
ATOM      8  C   UNL     1       8.006   1.139  22.596  0.00  0.00    +0.000 C 
ATOM      9  C   UNL     1       8.763   2.461  22.358  0.00  0.00    +0.000 C 
ATOM     10  C   UNL     1      10.253   2.148  22.227  0.00  0.00    +0.000 C 
ATOM     11  N   UNL     1       8.581   3.213  23.611  0.00  0.00    +0.000 NA
ATOM     12  C   UNL     1       8.757   2.318  24.687  0.00  0.00    +0.000 C 
ATOM     13  C   UNL     1       8.329   0.837  24.120  0.00  0.00    +0.000 C 
ATOM     14  C   UNL     1       7.439   0.229  25.044  0.00  0.00    +0.000 C 
ATOM     15  F   UNL     1       7.805  -1.040  25.454  0.00  0.00    +0.000 F 
ATOM     16  C   UNL     1       7.306   1.138  26.358  0.00  0.00    +0.000 C 
ATOM     17  C   UNL     1       7.699   2.535  25.784  0.00  0.00    +0.000 C 
ENDBRANCH   7   8
BRANCH   1  18
ATOM     18  N   UNL     1       8.482  -2.336  22.250  0.00  0.00    +0.000 NA
BRANCH  18  19
ATOM     19  C   UNL     1       8.394  -3.190  23.398  0.00  0.00    +0.000 C 
BRANCH  19  25
ATOM     20  C   UNL     1       6.438  -4.304  24.603  0.00  0.00    +0.000 C 
ATOM     21  C   UNL     1       5.056  -4.898  24.304  0.00  0.00    +0.000 C 
ATOM     22  C   UNL     1       5.309  -6.146  23.442  0.00  0.00    +0.000 C 
ATOM     23  C   UNL     1       6.098  -6.015  22.279  0.00  0.00    +0.000 C 
ATOM     24  C   UNL     1       6.981  -4.908  22.195  0.00  0.00    +0.000 C 
ATOM     25  C   UNL     1       7.164  -4.060  23.312  0.00  0.00    +0.000 C 
ATOM     26  F   UNL     1       6.783  -7.151  22.026  0.00  0.00    +0.000 F 
BRANCH  20  27
ATOM     27  N   UNL     1       7.174  -5.254  25.410  0.00  0.00    +0.000 NA
BRANCH  27  29
ATOM     28  C   UNL     1       6.537  -5.519  27.726  0.00  0.00    +0.000 C 
ATOM     29  C   UNL     1       7.318  -4.681  26.722  0.00  0.00    +0.000 C 
ENDBRANCH  27  29
ENDBRANCH  20  27
ENDBRANCH  19  25
ENDBRANCH  18  19
ENDBRANCH   1  18
TORSDOF 6
ENDMDL
MODEL 4
REMARK VINA RESULT:      -6.7      2.955      4.973
REMARK  Name = 
REMARK  6 active torsions:
REMARK  status: ('A' for Active; 'I' for Inactive)
REMARK    1  A    between atoms: C_2  and  N_3
REMARK    2  A    between atoms: N_3  and  C_4
REMARK    3  A    between atoms: C_9  and  C_10
REMARK    4  A    between atoms: C_10  and  N_11
REMARK    5  A    between atoms: N_11  and  C_12
REMARK    6  A    between atoms: C_18  and  C_19
REMARK                            x       y       z     vdW  Elec       q    Type
REMARK                         _______ _______ _______ _____ _____    ______ ____
ROOT
ATOM      1  C   UNL     1      10.364   2.133  23.129  0.00  0.00    +0.000 C 
ATOM      2  C   UNL     1      11.067   3.384  23.200  0.00  0.00    +0.000 C 
ATOM      3  C   UNL     1      10.609   4.691  23.455  0.00  0.00    +0.000 C 
ATOM      4 CL   UNL     1      11.884   5.442  24.167  0.00  0.00    +0.000 Cl
ATOM      5  C   UNL     1       9.378   4.942  24.354  0.00  0.00    +0.000 C 
ATOM      6  N   UNL     1       8.946   3.695  24.545  0.00  0.00    +0.000 NA
ATOM      7  C   UNL     1       8.866   2.685  23.643  0.00  0.00    +0.000 C 
ENDROOT
BRANCH   7   8
ATOM      8  C   UNL     1       8.004   2.680  22.500  0.00  0.00    +0.000 C 
ATOM      9  C   UNL     1       6.532   3.066  22.746  0.00  0.00    +0.000 C 
ATOM     10  C   UNL     1       6.034   2.316  23.981  0.00  0.00    +0.000 C 
ATOM     11  N   UNL     1       5.814   2.518  21.582  0.00  0.00    +0.000 NA
ATOM     12  C   UNL     1       6.320   1.226  21.326  0.00  0.00    +0.000 C 
ATOM     13  C   UNL     1       7.870   1.230  21.870  0.00  0.00    +0.000 C 
ATOM     14  C   UNL     1       8.714   0.690  20.864  0.00  0.00    +0.000 C 
ATOM     15  F   UNL     1       9.530  -0.345  21.284  0.00  0.00    +0.000 F 
ATOM     16  C   UNL     1       7.830   0.139  19.644  0.00  0.00    +0.000 C 
ATOM     17  C   UNL     1       6.534   0.989  19.820  0.00  0.00    +0.000 C 
ENDBRANCH   7   8
BRANCH   1  18
ATOM     18  N   UNL     1      10.722   1.220  24.204  0.00  0.00    +0.000 NA
BRANCH  18  19
ATOM     19  C   UNL     1      10.529  -0.149  23.827  0.00  0.00    +0.000 C 
BRANCH  19  25
ATOM     20  C   UNL     1       8.983  -2.099  24.399  0.00  0.00    +0.000 C 
ATOM     21  C   UNL     1       8.489  -2.891  25.616  0.00  0.00    +0.000 C 
ATOM     22  C   UNL     1       7.648  -1.908  26.447  0.00  0.00    +0.000 C 
ATOM     23  C   UNL     1       8.221  -0.671  26.811  0.00  0.00    +0.000 C 
ATOM     24  C   UNL     1       9.314  -0.192  26.045  0.00  0.00    +0.000 C 
ATOM     25  C   UNL     1       9.705  -0.869  24.867  0.00  0.00    +0.000 C 
ATOM     26  F   UNL     1       7.279   0.294  26.895  0.00  0.00    +0.000 F 
BRANCH  20  27
ATOM     27  N   UNL     1       7.833  -1.723  23.605  0.00  0.00    +0.000 NA
BRANCH  27  29
ATOM     28  C   UNL     1       6.331  -2.499  21.878  0.00  0.00    +0.000 C 
ATOM     29  C   UNL     1       7.639  -2.751  22.616  0.00  0.00    +0.000 C 
ENDBRANCH  27  29
ENDBRANCH  20  27
ENDBRANCH  19  25
ENDBRANCH  18  19
ENDBRANCH   1  18
TORSDOF 6
ENDMDL
MODEL 5
REMARK VINA RESULT:      -6.5      3.117      5.112
REMARK  Name = 
REMARK  6 active torsions:
REMARK  status: ('A' for Active; 'I' for Inactive)
REMARK    1  A    between atoms: C_2  and  N_3
REMARK    2  A    between atoms: N_3  and  C_4
REMARK    3  A    between atoms: C_9  and  C_10
REMARK    4  A    between atoms: C_10  and  N_11
REMARK    5  A    between atoms: N_11  and  C_12
REMARK    6  A    between atoms: C_18  and  C_19
REMARK                            x       y       z     vdW  Elec       q    Type
REMARK                         _______ _______ _______ _____ _____    ______ ____
ROOT
ATOM      1  C   UNL     1      10.083   2.088  23.447  0.00  0.00    +0.000 C 
ATOM      2  C   UNL     1      10.984   3.201  23.331  0.00  0.00    +0.000 C 
ATOM      3  C   UNL     1      10.741   4.585  23.242  0.00  0.00    +0.000 C 
ATOM      4 CL   UNL     1      12.063   5.280  23.925  0.00  0.00    +0.000 Cl
ATOM      5  C   UNL     1       9.502   5.221  23.911  0.00  0.00    +0.000 C 
ATOM      6  N   UNL     1       8.845   4.132  24.311  0.00  0.00    +0.000 NA
ATOM      7  C   UNL     1       8.667   2.964  23.645  0.00  0.00    +0.000 C 
ENDROOT
BRANCH   7   8
ATOM      8  C   UNL     1       7.915   2.824  22.435  0.00  0.00    +0.000 C 
ATOM      9  C   UNL     1       6.411   3.153  22.515  0.00  0.00    +0.000 C 
ATOM     10  C   UNL     1       5.834   2.480  23.760  0.00  0.00    +0.000 C 
ATOM     11  N   UNL     1       5.829   2.478  21.342  0.00  0.00    +0.000 NA
ATOM     12  C   UNL     1       6.412   1.197  21.242  0.00  0.00    +0.000 C 
ATOM     13  C   UNL     1       7.903   1.322  21.920  0.00  0.00    +0.000 C 
ATOM     14  C   UNL     1       8.859   0.746  21.042  0.00  0.00    +0.000 C 
ATOM     15  F   UNL     1       9.675  -0.209  21.619  0.00  0.00    +0.000 F 
ATOM     16  C   UNL     1       8.116   0.056  19.800  0.00  0.00    +0.000 C 
ATOM     17  C   UNL     1       6.774   0.850  19.787  0.00  0.00    +0.000 C 
ENDBRANCH   7   8
BRANCH   1  18
ATOM     18  N   UNL     1      10.185   1.407  24.728  0.00  0.00    +0.000 NA
BRANCH  18  19
ATOM     19  C   UNL     1      10.730   0.088  24.589  0.00  0.00    +0.000 C 
BRANCH  19  25
ATOM     20  C   UNL     1       8.333  -0.612  25.122  0.00  0.00    +0.000 C 
ATOM     21  C   UNL     1       7.225  -1.525  24.580  0.00  0.00    +0.000 C 
ATOM     22  C   UNL     1       7.742  -2.963  24.748  0.00  0.00    +0.000 C 
ATOM     23  C   UNL     1       9.010  -3.290  24.221  0.00  0.00    +0.000 C 
ATOM     24  C   UNL     1       9.927  -2.234  23.987  0.00  0.00    +0.000 C 
ATOM     25  C   UNL     1       9.621  -0.921  24.415  0.00  0.00    +0.000 C 
ATOM     26  F   UNL     1       9.611  -4.246  24.962  0.00  0.00    +0.000 F 
BRANCH  20  27
ATOM     27  N   UNL     1       8.476  -0.866  26.540  0.00  0.00    +0.000 NA
BRANCH  27  29
ATOM     28  C   UNL     1       7.315   1.217  26.936  0.00  0.00    +0.000 C 
ATOM     29  C   UNL     1       7.335  -0.284  27.197  0.00  0.00    +0.000 C 
ENDBRANCH  27  29
ENDBRANCH  20  27
ENDBRANCH  19  25
ENDBRANCH  18  19
ENDBRANCH   1  18
TORSDOF 6
ENDMDL
MODEL 6
REMARK VINA RESULT:      -6.5      1.528      1.808
REMARK  Name = 
REMARK  6 active torsions:
REMARK  status: ('A' for Active; 'I' for Inactive)
REMARK    1  A    between atoms: C_2  and  N_3
REMARK    2  A    between atoms: N_3  and  C_4
REMARK    3  A    between atoms: C_9  and  C_10
REMARK    4  A    between atoms: C_10  and  N_11
REMARK    5  A    between atoms: N_11  and  C_12
REMARK    6  A    between atoms: C_18  and  C_19
REMARK                            x       y       z     vdW  Elec       q    Type
REMARK                         _______ _______ _______ _____ _____    ______ ____
ROOT
ATOM      1  C   UNL     1       7.776  -1.253  22.529  0.00  0.00    +0.000 C 
ATOM      2  C   UNL     1       6.769  -1.303  21.505  0.00  0.00    +0.000 C 
ATOM      3  C   UNL     1       6.512  -0.450  20.415  0.00  0.00    +0.000 C 
ATOM      4 CL   UNL     1       5.846  -1.428  19.276  0.00  0.00    +0.000 Cl
ATOM      5  C   UNL     1       7.654   0.331  19.728  0.00  0.00    +0.000 C 
ATOM      6  N   UNL     1       8.671   0.065  20.548  0.00  0.00    +0.000 NA
ATOM      7  C   UNL     1       8.669   0.023  21.904  0.00  0.00    +0.000 C 
ENDROOT
BRANCH   7   8
ATOM      8  C   UNL     1       8.437   1.151  22.753  0.00  0.00    +0.000 C 
ATOM      9  C   UNL     1       9.686   1.870  23.301  0.00  0.00    +0.000 C 
ATOM     10  C   UNL     1      10.664   0.815  23.818  0.00  0.00    +0.000 C 
ATOM     11  N   UNL     1       9.191   2.618  24.469  0.00  0.00    +0.000 NA
ATOM     12  C   UNL     1       8.315   1.777  25.187  0.00  0.00    +0.000 C 
ATOM     13  C   UNL     1       7.676   0.740  24.084  0.00  0.00    +0.000 C 
ATOM     14  C   UNL     1       6.266   0.705  24.247  0.00  0.00    +0.000 C 
ATOM     15  F   UNL     1       5.730  -0.561  24.396  0.00  0.00    +0.000 F 
ATOM     16  C   UNL     1       5.841   1.562  25.534  0.00  0.00    +0.000 C 
ATOM     17  C   UNL     1       7.056   2.532  25.650  0.00  0.00    +0.000 C 
ENDBRANCH   7   8
BRANCH   1  18
ATOM     18  N   UNL     1       8.731  -2.347  22.440  0.00  0.00    +0.000 NA
BRANCH  18  19
ATOM     19  C   UNL     1       9.580  -2.409  23.593  0.00  0.00    +0.000 C 
BRANCH  19  25
ATOM     20  C   UNL     1       8.506  -4.588  24.378  0.00  0.00    +0.000 C 
ATOM     21  C   UNL     1       8.159  -5.329  25.675  0.00  0.00    +0.000 C 
ATOM     22  C   UNL     1       7.080  -4.482  26.369  0.00  0.00    +0.000 C 
ATOM     23  C   UNL     1       7.334  -3.111  26.588  0.00  0.00    +0.000 C 
ATOM     24  C   UNL     1       8.317  -2.480  25.784  0.00  0.00    +0.000 C 
ATOM     25  C   UNL     1       8.903  -3.177  24.702  0.00  0.00    +0.000 C 
ATOM     26  F   UNL     1       6.192  -2.392  26.542  0.00  0.00    +0.000 F 
BRANCH  20  27
ATOM     27  N   UNL     1       7.334  -4.587  23.529  0.00  0.00    +0.000 NA
BRANCH  27  29
ATOM     28  C   UNL     1       6.438  -5.554  21.503  0.00  0.00    +0.000 C 
ATOM     29  C   UNL     1       7.457  -5.701  22.626  0.00  0.00    +0.000 C 
ENDBRANCH  27  29
ENDBRANCH  20  27
ENDBRANCH  19  25
ENDBRANCH  18  19
ENDBRANCH   1  18
TORSDOF 6
ENDMDL
MODEL 7
REMARK VINA RESULT:      -6.5      2.485      5.834
REMARK  Name = 
REMARK  6 active torsions:
REMARK  status: ('A' for Active; 'I' for Inactive)
REMARK    1  A    between atoms: C_2  and  N_3
REMARK    2  A    between atoms: N_3  and  C_4
REMARK    3  A    between atoms: C_9  and  C_10
REMARK    4  A    between atoms: C_10  and  N_11
REMARK    5  A    between atoms: N_11  and  C_12
REMARK    6  A    between atoms: C_18  and  C_19
REMARK                            x       y       z     vdW  Elec       q    Type
REMARK                         _______ _______ _______ _____ _____    ______ ____
ROOT
ATOM      1  C   UNL     1       7.497  -4.970  24.099  0.00  0.00    +0.000 C 
ATOM      2  C   UNL     1       7.013  -5.532  22.869  0.00  0.00    +0.000 C 
ATOM      3  C   UNL     1       5.856  -5.254  22.114  0.00  0.00    +0.000 C 
ATOM      4 CL   UNL     1       6.287  -5.586  20.564  0.00  0.00    +0.000 Cl
ATOM      5  C   UNL     1       5.225  -3.844  22.114  0.00  0.00    +0.000 C 
ATOM      6  N   UNL     1       5.949  -3.243  23.059  0.00  0.00    +0.000 NA
ATOM      7  C   UNL     1       6.361  -3.745  24.250  0.00  0.00    +0.000 C 
ENDROOT
BRANCH   7   8
ATOM      8  C   UNL     1       5.489  -4.112  25.324  0.00  0.00    +0.000 C 
ATOM      9  C   UNL     1       4.371  -3.111  25.678  0.00  0.00    +0.000 C 
ATOM     10  C   UNL     1       4.977  -1.710  25.739  0.00  0.00    +0.000 C 
ATOM     11  N   UNL     1       3.976  -3.478  27.048  0.00  0.00    +0.000 NA
ATOM     12  C   UNL     1       5.151  -3.733  27.787  0.00  0.00    +0.000 C 
ATOM     13  C   UNL     1       6.270  -4.242  26.699  0.00  0.00    +0.000 C 
ATOM     14  C   UNL     1       6.884  -5.426  27.187  0.00  0.00    +0.000 C 
ATOM     15  F   UNL     1       8.265  -5.391  27.225  0.00  0.00    +0.000 F 
ATOM     16  C   UNL     1       6.371  -5.736  28.675  0.00  0.00    +0.000 C 
ATOM     17  C   UNL     1       5.004  -4.984  28.672  0.00  0.00    +0.000 C 
ENDBRANCH   7   8
BRANCH   1  18
ATOM     18  N   UNL     1       8.725  -4.208  23.931  0.00  0.00    +0.000 NA
BRANCH  18  19
ATOM     19  C   UNL     1       8.800  -3.108  24.847  0.00  0.00    +0.000 C 
BRANCH  19  25
ATOM     20  C   UNL     1       9.468  -0.647  24.963  0.00  0.00    +0.000 C 
ATOM     21  C   UNL     1      10.509   0.319  24.384  0.00  0.00    +0.000 C 
ATOM     22  C   UNL     1      10.207   0.415  22.880  0.00  0.00    +0.000 C 
ATOM     23  C   UNL     1      10.111  -0.779  22.133  0.00  0.00    +0.000 C 
ATOM     24  C   UNL     1       9.836  -1.982  22.832  0.00  0.00    +0.000 C 
ATOM     25  C   UNL     1       9.521  -1.945  24.211  0.00  0.00    +0.000 C 
ATOM     26  F   UNL     1       9.233  -0.646  21.115  0.00  0.00    +0.000 F 
BRANCH  20  27
ATOM     27  N   UNL     1       8.160  -0.045  24.815  0.00  0.00    +0.000 NA
BRANCH  27  29
ATOM     28  C   UNL     1       8.023  -0.319  27.213  0.00  0.00    +0.000 C 
ATOM     29  C   UNL     1       7.864   0.645  26.043  0.00  0.00    +0.000 C 
ENDBRANCH  27  29
ENDBRANCH  20  27
ENDBRANCH  19  25
ENDBRANCH  18  19
ENDBRANCH   1  18
TORSDOF 6
ENDMDL
MODEL 8
REMARK VINA RESULT:      -6.4      2.748      6.549
REMARK  Name = 
REMARK  6 active torsions:
REMARK  status: ('A' for Active; 'I' for Inactive)
REMARK    1  A    between atoms: C_2  and  N_3
REMARK    2  A    between atoms: N_3  and  C_4
REMARK    3  A    between atoms: C_9  and  C_10
REMARK    4  A    between atoms: C_10  and  N_11
REMARK    5  A    between atoms: N_11  and  C_12
REMARK    6  A    between atoms: C_18  and  C_19
REMARK                            x       y       z     vdW  Elec       q    Type
REMARK                         _______ _______ _______ _____ _____    ______ ____
ROOT
ATOM      1  C   UNL     1       5.692  -2.111  24.924  0.00  0.00    +0.000 C 
ATOM      2  C   UNL     1       4.503  -2.284  25.711  0.00  0.00    +0.000 C 
ATOM      3  C   UNL     1       4.204  -3.183  26.754  0.00  0.00    +0.000 C 
ATOM      4 CL   UNL     1       3.124  -2.378  27.693  0.00  0.00    +0.000 Cl
ATOM      5  C   UNL     1       5.312  -3.711  27.692  0.00  0.00    +0.000 C 
ATOM      6  N   UNL     1       6.401  -3.229  27.092  0.00  0.00    +0.000 NA
ATOM      7  C   UNL     1       6.677  -3.175  25.766  0.00  0.00    +0.000 C 
ENDROOT
BRANCH   7   8
ATOM      8  C   UNL     1       6.871  -4.319  24.927  0.00  0.00    +0.000 C 
ATOM      9  C   UNL     1       8.205  -5.074  25.087  0.00  0.00    +0.000 C 
ATOM     10  C   UNL     1       9.340  -4.050  25.119  0.00  0.00    +0.000 C 
ATOM     11  N   UNL     1       8.341  -5.840  23.837  0.00  0.00    +0.000 NA
ATOM     12  C   UNL     1       7.966  -5.000  22.767  0.00  0.00    +0.000 C 
ATOM     13  C   UNL     1       6.891  -3.926  23.390  0.00  0.00    +0.000 C 
ATOM     14  C   UNL     1       5.753  -3.868  22.541  0.00  0.00    +0.000 C 
ATOM     15  F   UNL     1       5.401  -2.596  22.130  0.00  0.00    +0.000 F 
ATOM     16  C   UNL     1       6.007  -4.746  21.224  0.00  0.00    +0.000 C 
ATOM     17  C   UNL     1       7.089  -5.742  21.743  0.00  0.00    +0.000 C 
ENDBRANCH   7   8
BRANCH   1  18
ATOM     18  N   UNL     1       6.357  -0.841  25.171  0.00  0.00    +0.000 NA
BRANCH  18  19
ATOM     19  C   UNL     1       6.264   0.038  24.043  0.00  0.00    +0.000 C 
BRANCH  19  25
ATOM     20  C   UNL     1       7.626   0.886  22.057  0.00  0.00    +0.000 C 
ATOM     21  C   UNL     1       9.064   1.282  21.699  0.00  0.00    +0.000 C 
ATOM     22  C   UNL     1       9.893  -0.009  21.788  0.00  0.00    +0.000 C 
ATOM     23  C   UNL     1       9.828  -0.773  22.974  0.00  0.00    +0.000 C 
ATOM     24  C   UNL     1       8.702  -0.598  23.817  0.00  0.00    +0.000 C 
ATOM     25  C   UNL     1       7.617   0.204  23.395  0.00  0.00    +0.000 C 
ATOM     26  F   UNL     1       9.990  -2.088  22.713  0.00  0.00    +0.000 F 
BRANCH  20  27
ATOM     27  N   UNL     1       7.139  -0.021  21.039  0.00  0.00    +0.000 NA
BRANCH  27  29
ATOM     28  C   UNL     1       7.107   0.409  18.661  0.00  0.00    +0.000 C 
ATOM     29  C   UNL     1       6.517   0.777  20.016  0.00  0.00    +0.000 C 
ENDBRANCH  27  29
ENDBRANCH  20  27
ENDBRANCH  19  25
ENDBRANCH  18  19
ENDBRANCH   1  18
TORSDOF 6
ENDMDL
MODEL 9
REMARK VINA RESULT:      -6.3      2.783      6.852
REMARK  Name = 
REMARK  6 active torsions:
REMARK  status: ('A' for Active; 'I' for Inactive)
REMARK    1  A    between atoms: C_2  and  N_3
REMARK    2  A    between atoms: N_3  and  C_4
REMARK    3  A    between atoms: C_9  and  C_10
REMARK    4  A    between atoms: C_10  and  N_11
REMARK    5  A    between atoms: N_11  and  C_12
REMARK    6  A    between atoms: C_18  and  C_19
REMARK                            x       y       z     vdW  Elec       q    Type
REMARK                         _______ _______ _______ _____ _____    ______ ____
ROOT
ATOM      1  C   UNL     1       5.748  -2.243  24.917  0.00  0.00    +0.000 C 
ATOM      2  C   UNL     1       4.446  -2.474  25.477  0.00  0.00    +0.000 C 
ATOM      3  C   UNL     1       4.009  -3.377  26.466  0.00  0.00    +0.000 C 
ATOM      4 CL   UNL     1       2.733  -2.625  27.175  0.00  0.00    +0.000 Cl
ATOM      5  C   UNL     1       4.952  -3.832  27.602  0.00  0.00    +0.000 C 
ATOM      6  N   UNL     1       6.105  -3.295  27.202  0.00  0.00    +0.000 NA
ATOM      7  C   UNL     1       6.618  -3.240  25.948  0.00  0.00    +0.000 C 
ENDROOT
BRANCH   7   8
ATOM      8  C   UNL     1       7.024  -4.381  25.183  0.00  0.00    +0.000 C 
ATOM      9  C   UNL     1       8.541  -4.613  25.044  0.00  0.00    +0.000 C 
ATOM     10  C   UNL     1       9.204  -3.282  24.690  0.00  0.00    +0.000 C 
ATOM     11  N   UNL     1       8.667  -5.492  23.869  0.00  0.00    +0.000 NA
ATOM     12  C   UNL     1       7.787  -5.017  22.873  0.00  0.00    +0.000 C 
ATOM     13  C   UNL     1       6.560  -4.270  23.670  0.00  0.00    +0.000 C 
ATOM     14  C   UNL     1       5.323  -4.736  23.152  0.00  0.00    +0.000 C 
ATOM     15  F   UNL     1       4.451  -3.742  22.747  0.00  0.00    +0.000 F 
ATOM     16  C   UNL     1       5.581  -5.692  21.891  0.00  0.00    +0.000 C 
ATOM     17  C   UNL     1       7.036  -6.171  22.183  0.00  0.00    +0.000 C 
ENDBRANCH   7   8
BRANCH   1  18
ATOM     18  N   UNL     1       6.287  -0.935  25.254  0.00  0.00    +0.000 NA
BRANCH  18  19
ATOM     19  C   UNL     1       6.296  -0.054  24.124  0.00  0.00    +0.000 C 
BRANCH  19  25
ATOM     20  C   UNL     1       8.726   0.669  23.830  0.00  0.00    +0.000 C 
ATOM     21  C   UNL     1      10.034   0.173  23.199  0.00  0.00    +0.000 C 
ATOM     22  C   UNL     1       9.794   0.166  21.681  0.00  0.00    +0.000 C 
ATOM     23  C   UNL     1       8.666  -0.517  21.178  0.00  0.00    +0.000 C 
ATOM     24  C   UNL     1       7.585  -0.758  22.064  0.00  0.00    +0.000 C 
ATOM     25  C   UNL     1       7.590  -0.193  23.361  0.00  0.00    +0.000 C 
ATOM     26  F   UNL     1       8.199   0.075  20.058  0.00  0.00    +0.000 F 
BRANCH  20  27
ATOM     27  N   UNL     1       8.512   2.038  23.412  0.00  0.00    +0.000 NA
BRANCH  27  29
ATOM     28  C   UNL     1       9.607   4.131  23.925  0.00  0.00    +0.000 C 
ATOM     29  C   UNL     1       8.933   2.888  24.494  0.00  0.00    +0.000 C 
ENDBRANCH  27  29
ENDBRANCH  20  27
ENDBRANCH  19  25
ENDBRANCH  18  19
ENDBRANCH   1  18
TORSDOF 6
ENDMDL
