MODEL 1
REMARK VINA RESULT:      -6.9      0.000      0.000
REMARK  Name = 
REMARK  7 active torsions:
REMARK  status: ('A' for Active; 'I' for Inactive)
REMARK    1  A    between atoms: C_2  and  N_3
REMARK    2  A    between atoms: N_3  and  C_4
REMARK    3  A    between atoms: N_3  and  C_23
REMARK    4  A    between atoms: C_7  and  C_21
REMARK    5  A    between atoms: C_9  and  C_10
REMARK    6  A    between atoms: N_12  and  C_13
REMARK    7  A    between atoms: C_23  and  C_24
REMARK                            x       y       z     vdW  Elec       q    Type
REMARK                         _______ _______ _______ _____ _____    ______ ____
ROOT
ATOM      1  C   UNL     1       7.997  -4.126  23.566  0.00  0.00    +0.000 A 
ATOM      2  N   UNL     1       8.525  -5.347  24.222  0.00  0.00    +0.000 NA
ATOM      3  C   UNL     1       8.256  -5.218  25.490  0.00  0.00    +0.000 A 
ATOM      4  C   UNL     1       8.023  -4.280  26.583  0.00  0.00    +0.000 A 
ATOM      5  C   UNL     1       7.530  -2.937  25.990  0.00  0.00    +0.000 A 
ATOM      6  C   UNL     1       7.946  -3.025  24.462  0.00  0.00    +0.000 A 
ENDROOT
BRANCH   6   7
ATOM      7  C   UNL     1       8.491  -1.788  24.092  0.00  0.00    +0.000 C 
ATOM      8  O   UNL     1       9.582  -1.475  24.529  0.00  0.00    +0.000 OA
ATOM      9  N   UNL     1       7.627  -0.915  23.587  0.00  0.00    +0.000 NA
BRANCH   9  10
ATOM     10  C   UNL     1       8.284  -0.425  22.397  0.00  0.00    +0.000 A 
ATOM     11  C   UNL     1       7.266  -1.033  21.214  0.00  0.00    +0.000 A 
ATOM     12  N   UNL     1       6.712   0.038  20.615  0.00  0.00    +0.000 NA
ATOM     13  C   UNL     1       6.662   1.355  20.654  0.00  0.00    +0.000 A 
ATOM     14  C   UNL     1       7.620   2.111  21.614  0.00  0.00    +0.000 A 
ATOM     15  C   UNL     1       8.486   1.014  22.268  0.00  0.00    +0.000 A 
ATOM     16  C   UNL     1       9.982   1.468  22.017  0.00  0.00    +0.000 C 
ATOM     17  O   UNL     1       7.081   3.026  22.445  0.00  0.00    +0.000 OA
ENDBRANCH   9  10
ENDBRANCH   6   7
BRANCH   4  18
ATOM     18  C   UNL     1       7.010  -4.787  27.274  0.00  0.00    +0.000 C 
ATOM     19  N   UNL     1       7.364  -5.814  27.716  0.00  0.00    +0.000 NA
ENDBRANCH   4  18
BRANCH   1  20
ATOM     20  N   UNL     1       6.877  -4.767  22.949  0.00  0.00    +0.000 N 
BRANCH  20  22
ATOM     21  C   UNL     1       6.239  -5.724  20.812  0.00  0.00    +0.000 C 
ATOM     22  C   UNL     1       7.286  -5.747  21.925  0.00  0.00    +0.000 C 
ENDBRANCH  20  22
BRANCH  20  23
ATOM     23  C   UNL     1       5.783  -3.870  22.646  0.00  0.00    +0.000 C 
BRANCH  23  24
ATOM     24  C   UNL     1       4.641  -4.031  23.596  0.00  0.00    +0.000 C 
ATOM     25  O   UNL     1       4.324  -3.227  24.443  0.00  0.00    +0.000 OA
ATOM     26  O   UNL     1       3.689  -4.723  22.934  0.00  0.00    +0.000 OA
ENDBRANCH  23  24
ENDBRANCH  20  23
ENDBRANCH   1  20
TORSDOF 7
ENDMDL
MODEL 2
REMARK VINA RESULT:      -6.9      2.025      7.202
REMARK  Name = 
REMARK  7 active torsions:
REMARK  status: ('A' for Active; 'I' for Inactive)
REMARK    1  A    between atoms: C_2  and  N_3
REMARK    2  A    between atoms: N_3  and  C_4
REMARK    3  A    between atoms: N_3  and  C_23
REMARK    4  A    between atoms: C_7  and  C_21
REMARK    5  A    between atoms: C_9  and  C_10
REMARK    6  A    between atoms: N_12  and  C_13
REMARK    7  A    between atoms: C_23  and  C_24
REMARK                            x       y       z     vdW  Elec       q    Type
REMARK                         _______ _______ _______ _____ _____    ______ ____
ROOT
ATOM      1  C   UNL     1       7.875  -0.557  21.175  0.00  0.00    +0.000 A 
ATOM      2  N   UNL     1       8.591  -0.151  19.942  0.00  0.00    +0.000 NA
ATOM      3  C   UNL     1       7.671   0.049  19.041  0.00  0.00    +0.000 A 
ATOM      4  C   UNL     1       6.329  -0.305  18.592  0.00  0.00    +0.000 A 
ATOM      5  C   UNL     1       5.514  -0.812  19.808  0.00  0.00    +0.000 A 
ATOM      6  C   UNL     1       6.625  -1.165  20.884  0.00  0.00    +0.000 A 
ENDROOT
BRANCH   6   7
ATOM      7  C   UNL     1       6.284  -2.392  21.469  0.00  0.00    +0.000 C 
ATOM      8  O   UNL     1       5.497  -3.118  20.891  0.00  0.00    +0.000 OA
ATOM      9  N   UNL     1       6.568  -2.502  22.762  0.00  0.00    +0.000 NA
BRANCH   9  10
ATOM     10  C   UNL     1       7.229  -3.783  22.864  0.00  0.00    +0.000 A 
ATOM     11  C   UNL     1       8.545  -3.371  23.814  0.00  0.00    +0.000 A 
ATOM     12  N   UNL     1       8.391  -4.041  24.972  0.00  0.00    +0.000 NA
ATOM     13  C   UNL     1       7.576  -4.853  25.615  0.00  0.00    +0.000 A 
ATOM     14  C   UNL     1       6.351  -5.436  24.860  0.00  0.00    +0.000 A 
ATOM     15  C   UNL     1       6.475  -4.903  23.417  0.00  0.00    +0.000 A 
ATOM     16  C   UNL     1       6.400  -6.189  22.497  0.00  0.00    +0.000 C 
ATOM     17  O   UNL     1       5.140  -5.316  25.442  0.00  0.00    +0.000 OA
ENDBRANCH   9  10
ENDBRANCH   6   7
BRANCH   4  18
ATOM     18  C   UNL     1       5.772   0.838  18.210  0.00  0.00    +0.000 C 
ATOM     19  N   UNL     1       6.428   1.276  17.342  0.00  0.00    +0.000 NA
ENDBRANCH   4  18
BRANCH   1  20
ATOM     20  N   UNL     1       8.074   0.677  21.870  0.00  0.00    +0.000 N 
BRANCH  20  22
ATOM     21  C   UNL     1      10.133   1.894  22.279  0.00  0.00    +0.000 C 
ATOM     22  C   UNL     1       9.307   0.673  22.680  0.00  0.00    +0.000 C 
ENDBRANCH  20  22
BRANCH  20  23
ATOM     23  C   UNL     1       6.867   1.221  22.455  0.00  0.00    +0.000 C 
BRANCH  23  24
ATOM     24  C   UNL     1       6.383   2.433  21.728  0.00  0.00    +0.000 C 
ATOM     25  O   UNL     1       5.289   2.551  21.225  0.00  0.00    +0.000 OA
ATOM     26  O   UNL     1       6.968   3.494  22.325  0.00  0.00    +0.000 OA
ENDBRANCH  23  24
ENDBRANCH  20  23
ENDBRANCH   1  20
TORSDOF 7
ENDMDL
MODEL 3
REMARK VINA RESULT:      -6.8      1.838      2.322
REMARK  Name = 
REMARK  7 active torsions:
REMARK  status: ('A' for Active; 'I' for Inactive)
REMARK    1  A    between atoms: C_2  and  N_3
REMARK    2  A    between atoms: N_3  and  C_4
REMARK    3  A    between atoms: N_3  and  C_23
REMARK    4  A    between atoms: C_7  and  C_21
REMARK    5  A    between atoms: C_9  and  C_10
REMARK    6  A    between atoms: N_12  and  C_13
REMARK    7  A    between atoms: C_23  and  C_24
REMARK                            x       y       z     vdW  Elec       q    Type
REMARK                         _______ _______ _______ _____ _____    ______ ____
ROOT
ATOM      1  C   UNL     1       6.812  -4.351  23.811  0.00  0.00    +0.000 A 
ATOM      2  N   UNL     1       7.910  -5.074  24.497  0.00  0.00    +0.000 NA
ATOM      3  C   UNL     1       7.613  -5.056  25.765  0.00  0.00    +0.000 A 
ATOM      4  C   UNL     1       6.917  -4.342  26.830  0.00  0.00    +0.000 A 
ATOM      5  C   UNL     1       5.783  -3.494  26.202  0.00  0.00    +0.000 A 
ATOM      6  C   UNL     1       6.182  -3.410  24.669  0.00  0.00    +0.000 A 
ENDROOT
BRANCH   6   7
ATOM      7  C   UNL     1       5.983  -2.090  24.243  0.00  0.00    +0.000 C 
ATOM      8  O   UNL     1       5.157  -1.407  24.818  0.00  0.00    +0.000 OA
ATOM      9  N   UNL     1       6.452  -1.807  23.033  0.00  0.00    +0.000 NA
BRANCH   9  10
ATOM     10  C   UNL     1       7.179  -0.572  23.223  0.00  0.00    +0.000 A 
ATOM     11  C   UNL     1       8.676  -1.168  23.683  0.00  0.00    +0.000 A 
ATOM     12  N   UNL     1       9.532  -0.814  22.706  0.00  0.00    +0.000 NA
ATOM     13  C   UNL     1       9.599  -0.214  21.534  0.00  0.00    +0.000 A 
ATOM     14  C   UNL     1       8.334   0.501  20.986  0.00  0.00    +0.000 A 
ATOM     15  C   UNL     1       7.272   0.350  22.096  0.00  0.00    +0.000 A 
ATOM     16  C   UNL     1       6.766   1.822  22.383  0.00  0.00    +0.000 C 
ATOM     17  O   UNL     1       7.938   0.201  19.732  0.00  0.00    +0.000 OA
ENDBRANCH   9  10
ENDBRANCH   6   7
BRANCH   4  18
ATOM     18  C   UNL     1       6.330  -5.281  27.561  0.00  0.00    +0.000 C 
ATOM     19  N   UNL     1       7.176  -5.968  27.996  0.00  0.00    +0.000 NA
ENDBRANCH   4  18
BRANCH   1  20
ATOM     20  N   UNL     1       6.206  -5.515  23.241  0.00  0.00    +0.000 N 
BRANCH  20  22
ATOM     21  C   UNL     1       6.195  -5.793  20.831  0.00  0.00    +0.000 C 
ATOM     22  C   UNL     1       6.984  -6.057  22.112  0.00  0.00    +0.000 C 
ENDBRANCH  20  22
BRANCH  20  23
ATOM     23  C   UNL     1       4.769  -5.420  23.106  0.00  0.00    +0.000 C 
BRANCH  23  24
ATOM     24  C   UNL     1       4.052  -6.376  24.003  0.00  0.00    +0.000 C 
ATOM     25  O   UNL     1       4.505  -7.422  24.406  0.00  0.00    +0.000 OA
ATOM     26  O   UNL     1       3.266  -5.627  24.807  0.00  0.00    +0.000 OA
ENDBRANCH  23  24
ENDBRANCH  20  23
ENDBRANCH   1  20
TORSDOF 7
ENDMDL
MODEL 4
REMARK VINA RESULT:      -6.4      1.339      1.510
REMARK  Name = 
REMARK  7 active torsions:
REMARK  status: ('A' for Active; 'I' for Inactive)
REMARK    1  A    between atoms: C_2  and  N_3
REMARK    2  A    between atoms: N_3  and  C_4
REMARK    3  A    between atoms: N_3  and  C_23
REMARK    4  A    between atoms: C_7  and  C_21
REMARK    5  A    between atoms: C_9  and  C_10
REMARK    6  A    between atoms: N_12  and  C_13
REMARK    7  A    between atoms: C_23  and  C_24
REMARK                            x       y       z     vdW  Elec       q    Type
REMARK                         _______ _______ _______ _____ _____    ______ ____
ROOT
ATOM      1  C   UNL     1       8.178  -3.958  23.506  0.00  0.00    +0.000 A 
ATOM      2  N   UNL     1       8.567  -5.256  24.109  0.00  0.00    +0.000 NA
ATOM      3  C   UNL     1       8.385  -5.124  25.392  0.00  0.00    +0.000 A 
ATOM      4  C   UNL     1       8.344  -4.192  26.513  0.00  0.00    +0.000 A 
ATOM      5  C   UNL     1       8.010  -2.778  25.974  0.00  0.00    +0.000 A 
ATOM      6  C   UNL     1       8.328  -2.883  24.423  0.00  0.00    +0.000 A 
ENDROOT
BRANCH   6   7
ATOM      7  C   UNL     1       9.019  -1.724  24.045  0.00  0.00    +0.000 C 
ATOM      8  O   UNL     1      10.169  -1.826  23.663  0.00  0.00    +0.000 OA
ATOM      9  N   UNL     1       8.487  -0.583  24.470  0.00  0.00    +0.000 NA
BRANCH   9  10
ATOM     10  C   UNL     1       8.474   0.253  23.291  0.00  0.00    +0.000 A 
ATOM     11  C   UNL     1       6.829   0.321  22.984  0.00  0.00    +0.000 A 
ATOM     12  N   UNL     1       6.471   1.607  23.159  0.00  0.00    +0.000 NA
ATOM     13  C   UNL     1       6.939   2.788  23.511  0.00  0.00    +0.000 A 
ATOM     14  C   UNL     1       8.467   2.953  23.730  0.00  0.00    +0.000 A 
ATOM     15  C   UNL     1       9.076   1.579  23.382  0.00  0.00    +0.000 A 
ATOM     16  C   UNL     1      10.201   1.887  22.312  0.00  0.00    +0.000 C 
ATOM     17  O   UNL     1       8.877   3.517  24.884  0.00  0.00    +0.000 OA
ENDBRANCH   9  10
ENDBRANCH   6   7
BRANCH   4  18
ATOM     18  C   UNL     1       7.308  -4.572  27.251  0.00  0.00    +0.000 C 
ATOM     19  N   UNL     1       7.465  -5.702  27.521  0.00  0.00    +0.000 NA
ENDBRANCH   4  18
BRANCH   1  20
ATOM     20  N   UNL     1       6.949  -4.423  22.941  0.00  0.00    +0.000 N 
BRANCH  20  22
ATOM     21  C   UNL     1       6.463  -6.522  21.826  0.00  0.00    +0.000 C 
ATOM     22  C   UNL     1       7.155  -5.167  21.685  0.00  0.00    +0.000 C 
ENDBRANCH  20  22
BRANCH  20  23
ATOM     23  C   UNL     1       5.874  -3.456  23.002  0.00  0.00    +0.000 C 
BRANCH  23  24
ATOM     24  C   UNL     1       4.618  -4.041  23.562  0.00  0.00    +0.000 C 
ATOM     25  O   UNL     1       3.745  -4.563  22.908  0.00  0.00    +0.000 OA
ATOM     26  O   UNL     1       4.936  -4.533  24.778  0.00  0.00    +0.000 OA
ENDBRANCH  23  24
ENDBRANCH  20  23
ENDBRANCH   1  20
TORSDOF 7
ENDMDL
MODEL 5
REMARK VINA RESULT:      -6.4      2.278      3.952
REMARK  Name = 
REMARK  7 active torsions:
REMARK  status: ('A' for Active; 'I' for Inactive)
REMARK    1  A    between atoms: C_2  and  N_3
REMARK    2  A    between atoms: N_3  and  C_4
REMARK    3  A    between atoms: N_3  and  C_23
REMARK    4  A    between atoms: C_7  and  C_21
REMARK    5  A    between atoms: C_9  and  C_10
REMARK    6  A    between atoms: N_12  and  C_13
REMARK    7  A    between atoms: C_23  and  C_24
REMARK                            x       y       z     vdW  Elec       q    Type
REMARK                         _______ _______ _______ _____ _____    ______ ____
ROOT
ATOM      1  C   UNL     1       5.850  -3.448  24.812  0.00  0.00    +0.000 A 
ATOM      2  N   UNL     1       4.760  -3.715  23.844  0.00  0.00    +0.000 NA
ATOM      3  C   UNL     1       5.336  -4.199  22.780  0.00  0.00    +0.000 A 
ATOM      4  C   UNL     1       6.558  -4.240  21.984  0.00  0.00    +0.000 A 
ATOM      5  C   UNL     1       7.760  -3.902  22.900  0.00  0.00    +0.000 A 
ATOM      6  C   UNL     1       7.090  -3.209  24.160  0.00  0.00    +0.000 A 
ENDROOT
BRANCH   6   7
ATOM      7  C   UNL     1       7.859  -2.087  24.496  0.00  0.00    +0.000 C 
ATOM      8  O   UNL     1       8.264  -1.975  25.638  0.00  0.00    +0.000 OA
ATOM      9  N   UNL     1       7.784  -1.072  23.642  0.00  0.00    +0.000 NA
BRANCH   9  10
ATOM     10  C   UNL     1       9.164  -0.700  23.424  0.00  0.00    +0.000 A 
ATOM     11  C   UNL     1       9.230  -0.745  21.751  0.00  0.00    +0.000 A 
ATOM     12  N   UNL     1       9.460   0.521  21.355  0.00  0.00    +0.000 NA
ATOM     13  C   UNL     1       9.610   1.751  21.804  0.00  0.00    +0.000 A 
ATOM     14  C   UNL     1       9.688   1.984  23.338  0.00  0.00    +0.000 A 
ATOM     15  C   UNL     1       9.625   0.575  23.963  0.00  0.00    +0.000 A 
ATOM     16  C   UNL     1      10.889   0.490  24.913  0.00  0.00    +0.000 C 
ATOM     17  O   UNL     1       8.873   2.915  23.873  0.00  0.00    +0.000 OA
ENDBRANCH   9  10
ENDBRANCH   6   7
BRANCH   4  18
ATOM     18  C   UNL     1       6.701  -5.507  21.620  0.00  0.00    +0.000 C 
ATOM     19  N   UNL     1       5.892  -5.731  20.801  0.00  0.00    +0.000 NA
ENDBRANCH   4  18
BRANCH   1  20
ATOM     20  N   UNL     1       5.547  -4.545  25.678  0.00  0.00    +0.000 N 
BRANCH  20  22
ATOM     21  C   UNL     1       3.545  -5.044  26.954  0.00  0.00    +0.000 C 
ATOM     22  C   UNL     1       4.765  -4.130  26.857  0.00  0.00    +0.000 C 
ENDBRANCH  20  22
BRANCH  20  23
ATOM     23  C   UNL     1       6.650  -5.462  25.869  0.00  0.00    +0.000 C 
BRANCH  23  24
ATOM     24  C   UNL     1       7.272  -5.326  27.220  0.00  0.00    +0.000 C 
ATOM     25  O   UNL     1       7.109  -6.094  28.140  0.00  0.00    +0.000 OA
ATOM     26  O   UNL     1       8.479  -4.751  27.027  0.00  0.00    +0.000 OA
ENDBRANCH  23  24
ENDBRANCH  20  23
ENDBRANCH   1  20
TORSDOF 7
ENDMDL
MODEL 6
REMARK VINA RESULT:      -6.4      2.377      6.659
REMARK  Name = 
REMARK  7 active torsions:
REMARK  status: ('A' for Active; 'I' for Inactive)
REMARK    1  A    between atoms: C_2  and  N_3
REMARK    2  A    between atoms: N_3  and  C_4
REMARK    3  A    between atoms: N_3  and  C_23
REMARK    4  A    between atoms: C_7  and  C_21
REMARK    5  A    between atoms: C_9  and  C_10
REMARK    6  A    between atoms: N_12  and  C_13
REMARK    7  A    between atoms: C_23  and  C_24
REMARK                            x       y       z     vdW  Elec       q    Type
REMARK                         _______ _______ _______ _____ _____    ______ ____
ROOT
ATOM      1  C   UNL     1       6.706   0.491  22.609  0.00  0.00    +0.000 A 
ATOM      2  N   UNL     1       6.384   1.939  22.601  0.00  0.00    +0.000 NA
ATOM      3  C   UNL     1       7.084   2.466  23.565  0.00  0.00    +0.000 A 
ATOM      4  C   UNL     1       7.725   2.235  24.855  0.00  0.00    +0.000 A 
ATOM      5  C   UNL     1       8.041   0.725  24.990  0.00  0.00    +0.000 A 
ATOM      6  C   UNL     1       7.116   0.047  23.894  0.00  0.00    +0.000 A 
ENDROOT
BRANCH   6   7
ATOM      7  C   UNL     1       6.532  -1.091  24.467  0.00  0.00    +0.000 C 
ATOM      8  O   UNL     1       5.329  -1.104  24.649  0.00  0.00    +0.000 OA
ATOM      9  N   UNL     1       7.375  -1.910  25.086  0.00  0.00    +0.000 NA
BRANCH   9  10
ATOM     10  C   UNL     1       7.021  -3.217  24.582  0.00  0.00    +0.000 A 
ATOM     11  C   UNL     1       8.384  -3.572  23.673  0.00  0.00    +0.000 A 
ATOM     12  N   UNL     1       8.964  -4.629  24.272  0.00  0.00    +0.000 NA
ATOM     13  C   UNL     1       8.862  -5.435  25.310  0.00  0.00    +0.000 A 
ATOM     14  C   UNL     1       7.603  -5.335  26.214  0.00  0.00    +0.000 A 
ATOM     15  C   UNL     1       6.711  -4.266  25.548  0.00  0.00    +0.000 A 
ATOM     16  C   UNL     1       5.303  -4.963  25.361  0.00  0.00    +0.000 C 
ATOM     17  O   UNL     1       7.793  -5.215  27.543  0.00  0.00    +0.000 OA
ENDBRANCH   9  10
ENDBRANCH   6   7
BRANCH   4  18
ATOM     18  C   UNL     1       8.892   2.864  24.788  0.00  0.00    +0.000 C 
ATOM     19  N   UNL     1       8.706   3.895  24.262  0.00  0.00    +0.000 NA
ENDBRANCH   4  18
BRANCH   1  20
ATOM     20  N   UNL     1       7.511   0.516  21.426  0.00  0.00    +0.000 N 
BRANCH  20  22
ATOM     21  C   UNL     1       7.495   0.159  19.026  0.00  0.00    +0.000 C 
ATOM     22  C   UNL     1       6.709   0.728  20.207  0.00  0.00    +0.000 C 
ENDBRANCH  20  22
BRANCH  20  23
ATOM     23  C   UNL     1       8.548  -0.492  21.403  0.00  0.00    +0.000 C 
BRANCH  23  24
ATOM     24  C   UNL     1       9.880   0.057  21.800  0.00  0.00    +0.000 C 
ATOM     25  O   UNL     1      10.128   1.230  21.957  0.00  0.00    +0.000 OA
ATOM     26  O   UNL     1      10.447  -0.866  22.606  0.00  0.00    +0.000 OA
ENDBRANCH  23  24
ENDBRANCH  20  23
ENDBRANCH   1  20
TORSDOF 7
ENDMDL
MODEL 7
REMARK VINA RESULT:      -6.2      2.673      4.068
REMARK  Name = 
REMARK  7 active torsions:
REMARK  status: ('A' for Active; 'I' for Inactive)
REMARK    1  A    between atoms: C_2  and  N_3
REMARK    2  A    between atoms: N_3  and  C_4
REMARK    3  A    between atoms: N_3  and  C_23
REMARK    4  A    between atoms: C_7  and  C_21
REMARK    5  A    between atoms: C_9  and  C_10
REMARK    6  A    between atoms: N_12  and  C_13
REMARK    7  A    between atoms: C_23  and  C_24
REMARK                            x       y       z     vdW  Elec       q    Type
REMARK                         _______ _______ _______ _____ _____    ______ ____
ROOT
ATOM      1  C   UNL     1       9.190  -0.344  22.143  0.00  0.00    +0.000 A 
ATOM      2  N   UNL     1      10.069  -1.516  21.919  0.00  0.00    +0.000 NA
ATOM      3  C   UNL     1      10.009  -2.224  23.011  0.00  0.00    +0.000 A 
ATOM      4  C   UNL     1       9.785  -2.199  24.452  0.00  0.00    +0.000 A 
ATOM      5  C   UNL     1       8.925  -0.958  24.801  0.00  0.00    +0.000 A 
ATOM      6  C   UNL     1       9.071  -0.029  23.524  0.00  0.00    +0.000 A 
ENDROOT
BRANCH   6   7
ATOM      7  C   UNL     1       9.272   1.285  23.968  0.00  0.00    +0.000 C 
ATOM      8  O   UNL     1      10.319   1.563  24.520  0.00  0.00    +0.000 OA
ATOM      9  N   UNL     1       8.173   2.024  24.068  0.00  0.00    +0.000 NA
BRANCH   9  10
ATOM     10  C   UNL     1       8.526   3.262  23.411  0.00  0.00    +0.000 A 
ATOM     11  C   UNL     1       7.454   3.240  22.124  0.00  0.00    +0.000 A 
ATOM     12  N   UNL     1       6.625   4.284  22.313  0.00  0.00    +0.000 NA
ATOM     13  C   UNL     1       6.345   5.264  23.148  0.00  0.00    +0.000 A 
ATOM     14  C   UNL     1       7.295   5.518  24.351  0.00  0.00    +0.000 A 
ATOM     15  C   UNL     1       8.441   4.498  24.182  0.00  0.00    +0.000 A 
ATOM     16  C   UNL     1       9.768   5.359  24.229  0.00  0.00    +0.000 C 
ATOM     17  O   UNL     1       6.743   5.604  25.578  0.00  0.00    +0.000 OA
ENDBRANCH   9  10
ENDBRANCH   6   7
BRANCH   4  18
ATOM     18  C   UNL     1       9.039  -3.265  24.713  0.00  0.00    +0.000 C 
ATOM     19  N   UNL     1       9.720  -4.211  24.583  0.00  0.00    +0.000 NA
ENDBRANCH   4  18
BRANCH   1  20
ATOM     20  N   UNL     1       8.137  -0.786  21.283  0.00  0.00    +0.000 N 
BRANCH  20  22
ATOM     21  C   UNL     1       6.908   0.542  19.666  0.00  0.00    +0.000 C 
ATOM     22  C   UNL     1       8.222  -0.187  19.938  0.00  0.00    +0.000 C 
ENDBRANCH  20  22
BRANCH  20  23
ATOM     23  C   UNL     1       6.843  -0.851  21.927  0.00  0.00    +0.000 C 
BRANCH  23  24
ATOM     24  C   UNL     1       6.363  -2.257  22.091  0.00  0.00    +0.000 C 
ATOM     25  O   UNL     1       6.005  -2.750  23.136  0.00  0.00    +0.000 OA
ATOM     26  O   UNL     1       5.734  -2.581  20.942  0.00  0.00    +0.000 OA
ENDBRANCH  23  24
ENDBRANCH  20  23
ENDBRANCH   1  20
TORSDOF 7
ENDMDL
MODEL 8
REMARK VINA RESULT:      -6.2      2.645      4.505
REMARK  Name = 
REMARK  7 active torsions:
REMARK  status: ('A' for Active; 'I' for Inactive)
REMARK    1  A    between atoms: C_2  and  N_3
REMARK    2  A    between atoms: N_3  and  C_4
REMARK    3  A    between atoms: N_3  and  C_23
REMARK    4  A    between atoms: C_7  and  C_21
REMARK    5  A    between atoms: C_9  and  C_10
REMARK    6  A    between atoms: N_12  and  C_13
REMARK    7  A    between atoms: C_23  and  C_24
REMARK                            x       y       z     vdW  Elec       q    Type
REMARK                         _______ _______ _______ _____ _____    ______ ____
ROOT
ATOM      1  C   UNL     1       5.154  -2.713  25.171  0.00  0.00    +0.000 A 
ATOM      2  N   UNL     1       4.187  -3.536  24.405  0.00  0.00    +0.000 NA
ATOM      3  C   UNL     1       4.774  -3.821  23.277  0.00  0.00    +0.000 A 
ATOM      4  C   UNL     1       5.761  -3.395  22.292  0.00  0.00    +0.000 A 
ATOM      5  C   UNL     1       6.788  -2.465  22.985  0.00  0.00    +0.000 A 
ATOM      6  C   UNL     1       6.050  -2.017  24.316  0.00  0.00    +0.000 A 
ENDROOT
BRANCH   6   7
ATOM      7  C   UNL     1       6.260  -0.641  24.484  0.00  0.00    +0.000 C 
ATOM      8  O   UNL     1       5.355   0.040  24.927  0.00  0.00    +0.000 OA
ATOM      9  N   UNL     1       7.295  -0.141  23.818  0.00  0.00    +0.000 NA
BRANCH   9  10
ATOM     10  C   UNL     1       7.989   0.654  24.806  0.00  0.00    +0.000 A 
ATOM     11  C   UNL     1       9.041  -0.489  25.433  0.00  0.00    +0.000 A 
ATOM     12  N   UNL     1      10.280  -0.070  25.110  0.00  0.00    +0.000 NA
ATOM     13  C   UNL     1      10.934   0.874  24.463  0.00  0.00    +0.000 A 
ATOM     14  C   UNL     1      10.140   2.085  23.903  0.00  0.00    +0.000 A 
ATOM     15  C   UNL     1       8.682   1.857  24.355  0.00  0.00    +0.000 A 
ATOM     16  C   UNL     1       8.267   3.194  25.094  0.00  0.00    +0.000 C 
ATOM     17  O   UNL     1      10.322   2.409  22.607  0.00  0.00    +0.000 OA
ENDBRANCH   9  10
ENDBRANCH   6   7
BRANCH   4  18
ATOM     18  C   UNL     1       6.417  -4.497  21.949  0.00  0.00    +0.000 C 
ATOM     19  N   UNL     1       5.642  -5.229  21.459  0.00  0.00    +0.000 NA
ENDBRANCH   4  18
BRANCH   1  20
ATOM     20  N   UNL     1       5.502  -3.734  26.109  0.00  0.00    +0.000 N 
BRANCH  20  22
ATOM     21  C   UNL     1       4.376  -3.010  28.133  0.00  0.00    +0.000 C 
ATOM     22  C   UNL     1       4.391  -4.060  27.023  0.00  0.00    +0.000 C 
ENDBRANCH  20  22
BRANCH  20  23
ATOM     23  C   UNL     1       6.831  -3.592  26.663  0.00  0.00    +0.000 C 
BRANCH  23  24
ATOM     24  C   UNL     1       7.574  -4.888  26.691  0.00  0.00    +0.000 C 
ATOM     25  O   UNL     1       7.552  -5.681  27.604  0.00  0.00    +0.000 OA
ATOM     26  O   UNL     1       7.619  -5.329  25.416  0.00  0.00    +0.000 OA
ENDBRANCH  23  24
ENDBRANCH  20  23
ENDBRANCH   1  20
TORSDOF 7
ENDMDL
MODEL 9
REMARK VINA RESULT:      -6.1      2.664      6.274
REMARK  Name = 
REMARK  7 active torsions:
REMARK  status: ('A' for Active; 'I' for Inactive)
REMARK    1  A    between atoms: C_2  and  N_3
REMARK    2  A    between atoms: N_3  and  C_4
REMARK    3  A    between atoms: N_3  and  C_23
REMARK    4  A    between atoms: C_7  and  C_21
REMARK    5  A    between atoms: C_9  and  C_10
REMARK    6  A    between atoms: N_12  and  C_13
REMARK    7  A    between atoms: C_23  and  C_24
REMARK                            x       y       z     vdW  Elec       q    Type
REMARK                         _______ _______ _______ _____ _____    ______ ____
ROOT
ATOM      1  C   UNL     1       6.751  -0.064  22.665  0.00  0.00    +0.000 A 
ATOM      2  N   UNL     1       7.051   1.381  22.526  0.00  0.00    +0.000 NA
ATOM      3  C   UNL     1       7.908   1.661  23.467  0.00  0.00    +0.000 A 
ATOM      4  C   UNL     1       8.401   1.305  24.792  0.00  0.00    +0.000 A 
ATOM      5  C   UNL     1       8.069  -0.184  25.064  0.00  0.00    +0.000 A 
ATOM      6  C   UNL     1       6.945  -0.519  23.997  0.00  0.00    +0.000 A 
ENDROOT
BRANCH   6   7
ATOM      7  C   UNL     1       5.947  -1.262  24.641  0.00  0.00    +0.000 C 
ATOM      8  O   UNL     1       5.083  -0.670  25.259  0.00  0.00    +0.000 OA
ATOM      9  N   UNL     1       6.225  -2.548  24.821  0.00  0.00    +0.000 NA
BRANCH   9  10
ATOM     10  C   UNL     1       5.032  -3.228  24.371  0.00  0.00    +0.000 A 
ATOM     11  C   UNL     1       5.477  -3.619  22.804  0.00  0.00    +0.000 A 
ATOM     12  N   UNL     1       5.528  -4.964  22.758  0.00  0.00    +0.000 NA
ATOM     13  C   UNL     1       5.389  -6.046  23.498  0.00  0.00    +0.000 A 
ATOM     14  C   UNL     1       4.872  -5.896  24.954  0.00  0.00    +0.000 A 
ATOM     15  C   UNL     1       4.577  -4.391  25.125  0.00  0.00    +0.000 A 
ATOM     16  C   UNL     1       3.083  -4.322  25.641  0.00  0.00    +0.000 C 
ATOM     17  O   UNL     1       5.585  -6.483  25.936  0.00  0.00    +0.000 OA
ENDBRANCH   9  10
ENDBRANCH   6   7
BRANCH   4  18
ATOM     18  C   UNL     1       9.722   1.393  24.715  0.00  0.00    +0.000 C 
ATOM     19  N   UNL     1      10.166   0.379  25.102  0.00  0.00    +0.000 NA
ENDBRANCH   4  18
BRANCH   1  20
ATOM     20  N   UNL     1       7.491  -0.477  21.513  0.00  0.00    +0.000 N 
BRANCH  20  22
ATOM     21  C   UNL     1       7.476   0.119  19.161  0.00  0.00    +0.000 C 
ATOM     22  C   UNL     1       6.663  -0.507  20.294  0.00  0.00    +0.000 C 
ENDBRANCH  20  22
BRANCH  20  23
ATOM     23  C   UNL     1       8.392  -1.582  21.762  0.00  0.00    +0.000 C 
BRANCH  23  24
ATOM     24  C   UNL     1       9.824  -1.154  21.771  0.00  0.00    +0.000 C 
ATOM     25  O   UNL     1      10.208  -0.015  21.639  0.00  0.00    +0.000 OA
ATOM     26  O   UNL     1      10.466  -1.990  22.615  0.00  0.00    +0.000 OA
ENDBRANCH  23  24
ENDBRANCH  20  23
ENDBRANCH   1  20
TORSDOF 7
ENDMDL
