MODEL 1
REMARK VINA RESULT:      -6.7      0.000      0.000
REMARK  Name = 
REMARK  7 active torsions:
REMARK  status: ('A' for Active; 'I' for Inactive)
REMARK    1  A    between atoms: C_2  and  C_3
REMARK    2  A    between atoms: C_3  and  N_4
REMARK    3  A    between atoms: N_4  and  C_5
REMARK    4  A    between atoms: C_8  and  C_21
REMARK    5  A    between atoms: C_9  and  C_10
REMARK    6  A    between atoms: C_10  and  C_11
REMARK    7  A    between atoms: N_13  and  C_14
REMARK                            x       y       z     vdW  Elec       q    Type
REMARK                         _______ _______ _______ _____ _____    ______ ____
ROOT
ATOM      1  C   UNL     1       9.462   0.159  22.356  0.00  0.00    +0.000 C 
ATOM      2  C   UNL     1      10.067   1.588  22.021  0.00  0.00    +0.000 C 
ATOM      3  C   UNL     1       9.483   2.437  23.287  0.00  0.00    +0.000 C 
ATOM      4  C   UNL     1       9.212   1.532  24.374  0.00  0.00    +0.000 C 
ATOM      5  C   UNL     1       9.264   0.055  23.812  0.00  0.00    +0.000 C 
ATOM      6 CL   UNL     1      10.670   3.725  23.553  0.00  0.00    +0.000 Cl
ENDROOT
BRANCH   4   7
ATOM      7  C   UNL     1       7.798   1.664  24.981  0.00  0.00    +0.000 C 
ATOM      8  O   UNL     1       7.721   1.607  26.173  0.00  0.00    +0.000 OA
ATOM      9  N   UNL     1       7.278   2.684  24.265  0.00  0.00    +0.000 NA
ENDBRANCH   4   7
BRANCH   1  10
ATOM     10  N   UNL     1       8.126   0.174  21.727  0.00  0.00    +0.000 NA
BRANCH  10  11
ATOM     11  C   UNL     1       8.300  -0.188  20.360  0.00  0.00    +0.000 C 
BRANCH  11  13
ATOM     12  O   UNL     1       7.554   0.273  18.163  0.00  0.00    +0.000 OA
ATOM     13  C   UNL     1       7.195   0.434  19.514  0.00  0.00    +0.000 C 
ENDBRANCH  11  13
ENDBRANCH  10  11
ENDBRANCH   1  10
BRANCH   5  14
ATOM     14  C   UNL     1       9.571  -1.036  24.626  0.00  0.00    +0.000 C 
BRANCH  14  15
ATOM     15  C   UNL     1       9.407  -2.344  23.812  0.00  0.00    +0.000 C 
ATOM     16  O   UNL     1      10.343  -3.141  23.856  0.00  0.00    +0.000 OA
ATOM     17  N   UNL     1       8.144  -2.818  23.787  0.00  0.00    +0.000 NA
BRANCH  17  18
ATOM     18  C   UNL     1       7.737  -3.812  22.836  0.00  0.00    +0.000 C 
ATOM     19  C   UNL     1       6.635  -3.279  21.934  0.00  0.00    +0.000 C 
ATOM     20  C   UNL     1       5.396  -3.012  22.770  0.00  0.00    +0.000 C 
ATOM     21  C   UNL     1       4.940  -4.228  23.496  0.00  0.00    +0.000 C 
ATOM     22  C   UNL     1       5.986  -5.011  24.182  0.00  0.00    +0.000 C 
ATOM     23  C   UNL     1       7.306  -5.093  23.489  0.00  0.00    +0.000 C 
ATOM     24  O   UNL     1       4.163  -5.035  22.667  0.00  0.00    +0.000 OA
ENDBRANCH  17  18
ENDBRANCH  14  15
ENDBRANCH   5  14
TORSDOF 7
ENDMDL
MODEL 2
REMARK VINA RESULT:      -6.4      2.595      5.976
REMARK  Name = 
REMARK  7 active torsions:
REMARK  status: ('A' for Active; 'I' for Inactive)
REMARK    1  A    between atoms: C_2  and  C_3
REMARK    2  A    between atoms: C_3  and  N_4
REMARK    3  A    between atoms: N_4  and  C_5
REMARK    4  A    between atoms: C_8  and  C_21
REMARK    5  A    between atoms: C_9  and  C_10
REMARK    6  A    between atoms: C_10  and  C_11
REMARK    7  A    between atoms: N_13  and  C_14
REMARK                            x       y       z     vdW  Elec       q    Type
REMARK                         _______ _______ _______ _____ _____    ______ ____
ROOT
ATOM      1  C   UNL     1       6.539  -2.081  24.184  0.00  0.00    +0.000 C 
ATOM      2  C   UNL     1       6.644  -1.347  25.588  0.00  0.00    +0.000 C 
ATOM      3  C   UNL     1       7.941  -2.122  26.206  0.00  0.00    +0.000 C 
ATOM      4  C   UNL     1       8.733  -2.648  25.125  0.00  0.00    +0.000 C 
ATOM      5  C   UNL     1       7.876  -2.565  23.799  0.00  0.00    +0.000 C 
ATOM      6 CL   UNL     1       8.695  -0.943  27.293  0.00  0.00    +0.000 Cl
ENDROOT
BRANCH   4   7
ATOM      7  C   UNL     1       9.090  -4.145  25.260  0.00  0.00    +0.000 C 
ATOM      8  O   UNL     1      10.100  -4.503  24.729  0.00  0.00    +0.000 OA
ATOM      9  N   UNL     1       8.829  -4.380  26.563  0.00  0.00    +0.000 NA
ENDBRANCH   4   7
BRANCH   1  10
ATOM     10  N   UNL     1       5.699  -3.264  24.455  0.00  0.00    +0.000 NA
BRANCH  10  11
ATOM     11  C   UNL     1       5.008  -3.575  23.249  0.00  0.00    +0.000 C 
BRANCH  11  13
ATOM     12  O   UNL     1       5.531  -5.063  21.485  0.00  0.00    +0.000 OA
ATOM     13  C   UNL     1       5.263  -5.029  22.866  0.00  0.00    +0.000 C 
ENDBRANCH  11  13
ENDBRANCH  10  11
ENDBRANCH   1  10
BRANCH   5  14
ATOM     14  C   UNL     1       8.469  -2.482  22.538  0.00  0.00    +0.000 C 
BRANCH  14  15
ATOM     15  C   UNL     1       9.656  -1.489  22.594  0.00  0.00    +0.000 C 
ATOM     16  O   UNL     1      10.724  -1.880  22.126  0.00  0.00    +0.000 OA
ATOM     17  N   UNL     1       9.299  -0.199  22.419  0.00  0.00    +0.000 NA
BRANCH  17  18
ATOM     18  C   UNL     1      10.187   0.875  22.758  0.00  0.00    +0.000 C 
ATOM     19  C   UNL     1      10.259   1.062  24.265  0.00  0.00    +0.000 C 
ATOM     20  C   UNL     1       8.901   1.506  24.776  0.00  0.00    +0.000 C 
ATOM     21  C   UNL     1       8.436   2.754  24.113  0.00  0.00    +0.000 C 
ATOM     22  C   UNL     1       8.589   2.812  22.646  0.00  0.00    +0.000 C 
ATOM     23  C   UNL     1       9.814   2.165  22.087  0.00  0.00    +0.000 C 
ATOM     24  O   UNL     1       8.992   3.875  24.726  0.00  0.00    +0.000 OA
ENDBRANCH  17  18
ENDBRANCH  14  15
ENDBRANCH   5  14
TORSDOF 7
ENDMDL
MODEL 3
REMARK VINA RESULT:      -6.3      2.213      2.874
REMARK  Name = 
REMARK  7 active torsions:
REMARK  status: ('A' for Active; 'I' for Inactive)
REMARK    1  A    between atoms: C_2  and  C_3
REMARK    2  A    between atoms: C_3  and  N_4
REMARK    3  A    between atoms: N_4  and  C_5
REMARK    4  A    between atoms: C_8  and  C_21
REMARK    5  A    between atoms: C_9  and  C_10
REMARK    6  A    between atoms: C_10  and  C_11
REMARK    7  A    between atoms: N_13  and  C_14
REMARK                            x       y       z     vdW  Elec       q    Type
REMARK                         _______ _______ _______ _____ _____    ______ ____
ROOT
ATOM      1  C   UNL     1       8.242  -0.562  21.028  0.00  0.00    +0.000 C 
ATOM      2  C   UNL     1       9.628  -0.100  21.646  0.00  0.00    +0.000 C 
ATOM      3  C   UNL     1       9.108   0.490  23.076  0.00  0.00    +0.000 C 
ATOM      4  C   UNL     1       7.852  -0.130  23.412  0.00  0.00    +0.000 C 
ATOM      5  C   UNL     1       7.311  -0.875  22.126  0.00  0.00    +0.000 C 
ATOM      6 CL   UNL     1      10.472   0.260  24.184  0.00  0.00    +0.000 Cl
ENDROOT
BRANCH   4   7
ATOM      7  C   UNL     1       6.727   0.859  23.787  0.00  0.00    +0.000 C 
ATOM      8  O   UNL     1       6.044   0.562  24.722  0.00  0.00    +0.000 OA
ATOM      9  N   UNL     1       7.357   2.049  23.693  0.00  0.00    +0.000 NA
ENDBRANCH   4   7
BRANCH   1  10
ATOM     10  N   UNL     1       7.731   0.641  20.342  0.00  0.00    +0.000 NA
BRANCH  10  11
ATOM     11  C   UNL     1       7.465   0.275  18.991  0.00  0.00    +0.000 C 
BRANCH  11  13
ATOM     12  O   UNL     1       5.763  -0.432  17.507  0.00  0.00    +0.000 OA
ATOM     13  C   UNL     1       5.962   0.145  18.775  0.00  0.00    +0.000 C 
ENDBRANCH  11  13
ENDBRANCH  10  11
ENDBRANCH   1  10
BRANCH   5  14
ATOM     14  C   UNL     1       6.450  -1.970  22.212  0.00  0.00    +0.000 C 
BRANCH  14  15
ATOM     15  C   UNL     1       7.244  -3.208  22.699  0.00  0.00    +0.000 C 
ATOM     16  O   UNL     1       8.445  -3.231  22.436  0.00  0.00    +0.000 OA
ATOM     17  N   UNL     1       6.825  -3.693  23.888  0.00  0.00    +0.000 NA
BRANCH  17  18
ATOM     18  C   UNL     1       7.207  -5.001  24.338  0.00  0.00    +0.000 C 
ATOM     19  C   UNL     1       6.075  -5.657  25.113  0.00  0.00    +0.000 C 
ATOM     20  C   UNL     1       5.822  -4.868  26.385  0.00  0.00    +0.000 C 
ATOM     21  C   UNL     1       7.044  -4.760  27.227  0.00  0.00    +0.000 C 
ATOM     22  C   UNL     1       8.294  -4.408  26.524  0.00  0.00    +0.000 C 
ATOM     23  C   UNL     1       8.464  -4.984  25.157  0.00  0.00    +0.000 C 
ATOM     24  O   UNL     1       7.206  -5.901  28.010  0.00  0.00    +0.000 OA
ENDBRANCH  17  18
ENDBRANCH  14  15
ENDBRANCH   5  14
TORSDOF 7
ENDMDL
MODEL 4
REMARK VINA RESULT:      -6.3      2.028      2.357
REMARK  Name = 
REMARK  7 active torsions:
REMARK  status: ('A' for Active; 'I' for Inactive)
REMARK    1  A    between atoms: C_2  and  C_3
REMARK    2  A    between atoms: C_3  and  N_4
REMARK    3  A    between atoms: N_4  and  C_5
REMARK    4  A    between atoms: C_8  and  C_21
REMARK    5  A    between atoms: C_9  and  C_10
REMARK    6  A    between atoms: C_10  and  C_11
REMARK    7  A    between atoms: N_13  and  C_14
REMARK                            x       y       z     vdW  Elec       q    Type
REMARK                         _______ _______ _______ _____ _____    ______ ____
ROOT
ATOM      1  C   UNL     1       9.105   1.487  22.510  0.00  0.00    +0.000 C 
ATOM      2  C   UNL     1       8.737   2.985  22.887  0.00  0.00    +0.000 C 
ATOM      3  C   UNL     1       8.094   2.745  24.368  0.00  0.00    +0.000 C 
ATOM      4  C   UNL     1       8.616   1.520  24.915  0.00  0.00    +0.000 C 
ATOM      5  C   UNL     1       9.335   0.727  23.751  0.00  0.00    +0.000 C 
ATOM      6 CL   UNL     1       8.409   4.251  25.247  0.00  0.00    +0.000 Cl
ENDROOT
BRANCH   4   7
ATOM      7  C   UNL     1       7.543   0.543  25.442  0.00  0.00    +0.000 C 
ATOM      8  O   UNL     1       7.757   0.036  26.504  0.00  0.00    +0.000 OA
ATOM      9  N   UNL     1       6.400   1.206  25.168  0.00  0.00    +0.000 NA
ENDBRANCH   4   7
BRANCH   1  10
ATOM     10  N   UNL     1       7.875   0.958  21.887  0.00  0.00    +0.000 NA
BRANCH  10  11
ATOM     11  C   UNL     1       8.265   0.276  20.698  0.00  0.00    +0.000 C 
BRANCH  11  13
ATOM     12  O   UNL     1       7.744   0.035  18.403  0.00  0.00    +0.000 OA
ATOM     13  C   UNL     1       7.187   0.435  19.632  0.00  0.00    +0.000 C 
ENDBRANCH  11  13
ENDBRANCH  10  11
ENDBRANCH   1  10
BRANCH   5  14
ATOM     14  C   UNL     1      10.364  -0.183  24.000  0.00  0.00    +0.000 C 
BRANCH  14  15
ATOM     15  C   UNL     1       9.937  -1.586  23.502  0.00  0.00    +0.000 C 
ATOM     16  O   UNL     1      10.600  -2.072  22.587  0.00  0.00    +0.000 OA
ATOM     17  N   UNL     1       9.478  -2.397  24.479  0.00  0.00    +0.000 NA
BRANCH  17  18
ATOM     18  C   UNL     1       8.744  -3.591  24.177  0.00  0.00    +0.000 C 
ATOM     19  C   UNL     1       7.325  -3.505  24.716  0.00  0.00    +0.000 C 
ATOM     20  C   UNL     1       7.373  -3.454  26.232  0.00  0.00    +0.000 C 
ATOM     21  C   UNL     1       8.085  -4.626  26.808  0.00  0.00    +0.000 C 
ATOM     22  C   UNL     1       9.361  -4.997  26.166  0.00  0.00    +0.000 C 
ATOM     23  C   UNL     1       9.423  -4.830  24.683  0.00  0.00    +0.000 C 
ATOM     24  O   UNL     1       7.229  -5.722  26.909  0.00  0.00    +0.000 OA
ENDBRANCH  17  18
ENDBRANCH  14  15
ENDBRANCH   5  14
TORSDOF 7
ENDMDL
MODEL 5
REMARK VINA RESULT:      -6.2      3.290      6.189
REMARK  Name = 
REMARK  7 active torsions:
REMARK  status: ('A' for Active; 'I' for Inactive)
REMARK    1  A    between atoms: C_2  and  C_3
REMARK    2  A    between atoms: C_3  and  N_4
REMARK    3  A    between atoms: N_4  and  C_5
REMARK    4  A    between atoms: C_8  and  C_21
REMARK    5  A    between atoms: C_9  and  C_10
REMARK    6  A    between atoms: C_10  and  C_11
REMARK    7  A    between atoms: N_13  and  C_14
REMARK                            x       y       z     vdW  Elec       q    Type
REMARK                         _______ _______ _______ _____ _____    ______ ____
ROOT
ATOM      1  C   UNL     1       6.443  -3.475  24.362  0.00  0.00    +0.000 C 
ATOM      2  C   UNL     1       4.978  -3.190  24.902  0.00  0.00    +0.000 C 
ATOM      3  C   UNL     1       5.012  -4.080  26.270  0.00  0.00    +0.000 C 
ATOM      4  C   UNL     1       6.378  -4.241  26.693  0.00  0.00    +0.000 C 
ATOM      5  C   UNL     1       7.319  -3.788  25.505  0.00  0.00    +0.000 C 
ATOM      6 CL   UNL     1       3.890  -3.260  27.370  0.00  0.00    +0.000 Cl
ENDROOT
BRANCH   4   7
ATOM      7  C   UNL     1       6.794  -5.700  26.980  0.00  0.00    +0.000 C 
ATOM      8  O   UNL     1       7.331  -5.906  28.029  0.00  0.00    +0.000 OA
ATOM      9  N   UNL     1       5.709  -6.388  26.569  0.00  0.00    +0.000 NA
ENDBRANCH   4   7
BRANCH   1  10
ATOM     10  N   UNL     1       6.302  -4.707  23.561  0.00  0.00    +0.000 NA
BRANCH  10  11
ATOM     11  C   UNL     1       7.007  -4.499  22.341  0.00  0.00    +0.000 C 
BRANCH  11  13
ATOM     12  O   UNL     1       6.000  -5.563  20.483  0.00  0.00    +0.000 OA
ATOM     13  C   UNL     1       6.960  -5.764  21.493  0.00  0.00    +0.000 C 
ENDBRANCH  11  13
ENDBRANCH  10  11
ENDBRANCH   1  10
BRANCH   5  14
ATOM     14  C   UNL     1       8.615  -3.319  25.724  0.00  0.00    +0.000 C 
BRANCH  14  15
ATOM     15  C   UNL     1       8.630  -1.776  25.588  0.00  0.00    +0.000 C 
ATOM     16  O   UNL     1       8.816  -1.134  26.621  0.00  0.00    +0.000 OA
ATOM     17  N   UNL     1       9.178  -1.334  24.436  0.00  0.00    +0.000 NA
BRANCH  17  18
ATOM     18  C   UNL     1       8.989   0.016  23.988  0.00  0.00    +0.000 C 
ATOM     19  C   UNL     1       7.568   0.227  23.490  0.00  0.00    +0.000 C 
ATOM     20  C   UNL     1       7.344  -0.626  22.254  0.00  0.00    +0.000 C 
ATOM     21  C   UNL     1       8.329  -0.324  21.181  0.00  0.00    +0.000 C 
ATOM     22  C   UNL     1       9.739  -0.209  21.601  0.00  0.00    +0.000 C 
ATOM     23  C   UNL     1       9.979   0.417  22.935  0.00  0.00    +0.000 C 
ATOM     24  O   UNL     1       7.927   0.787  20.442  0.00  0.00    +0.000 OA
ENDBRANCH  17  18
ENDBRANCH  14  15
ENDBRANCH   5  14
TORSDOF 7
ENDMDL
MODEL 6
REMARK VINA RESULT:      -6.1      2.754      6.517
REMARK  Name = 
REMARK  7 active torsions:
REMARK  status: ('A' for Active; 'I' for Inactive)
REMARK    1  A    between atoms: C_2  and  C_3
REMARK    2  A    between atoms: C_3  and  N_4
REMARK    3  A    between atoms: N_4  and  C_5
REMARK    4  A    between atoms: C_8  and  C_21
REMARK    5  A    between atoms: C_9  and  C_10
REMARK    6  A    between atoms: C_10  and  C_11
REMARK    7  A    between atoms: N_13  and  C_14
REMARK                            x       y       z     vdW  Elec       q    Type
REMARK                         _______ _______ _______ _____ _____    ______ ____
ROOT
ATOM      1  C   UNL     1       5.865  -3.595  24.880  0.00  0.00    +0.000 C 
ATOM      2  C   UNL     1       6.158  -2.408  25.892  0.00  0.00    +0.000 C 
ATOM      3  C   UNL     1       7.751  -2.656  26.152  0.00  0.00    +0.000 C 
ATOM      4  C   UNL     1       8.305  -3.371  25.032  0.00  0.00    +0.000 C 
ATOM      5  C   UNL     1       7.108  -3.923  24.158  0.00  0.00    +0.000 C 
ATOM      6 CL   UNL     1       8.404  -1.051  26.520  0.00  0.00    +0.000 Cl
ENDROOT
BRANCH   4   7
ATOM      7  C   UNL     1       9.117  -4.628  25.411  0.00  0.00    +0.000 C 
ATOM      8  O   UNL     1      10.160  -4.781  24.845  0.00  0.00    +0.000 OA
ATOM      9  N   UNL     1       9.010  -4.637  26.756  0.00  0.00    +0.000 NA
ENDBRANCH   4   7
BRANCH   1  10
ATOM     10  N   UNL     1       5.541  -4.742  25.750  0.00  0.00    +0.000 NA
BRANCH  10  11
ATOM     11  C   UNL     1       4.815  -5.679  24.960  0.00  0.00    +0.000 C 
BRANCH  11  13
ATOM     12  O   UNL     1       5.362  -6.945  26.882  0.00  0.00    +0.000 OA
ATOM     13  C   UNL     1       4.467  -6.904  25.797  0.00  0.00    +0.000 C 
ENDBRANCH  11  13
ENDBRANCH  10  11
ENDBRANCH   1  10
BRANCH   5  14
ATOM     14  C   UNL     1       7.244  -4.181  22.793  0.00  0.00    +0.000 C 
BRANCH  14  15
ATOM     15  C   UNL     1       6.817  -2.927  21.991  0.00  0.00    +0.000 C 
ATOM     16  O   UNL     1       5.677  -2.931  21.528  0.00  0.00    +0.000 OA
ATOM     17  N   UNL     1       7.323  -1.772  22.471  0.00  0.00    +0.000 NA
BRANCH  17  18
ATOM     18  C   UNL     1       7.313  -0.569  21.689  0.00  0.00    +0.000 C 
ATOM     19  C   UNL     1       8.537  -0.496  20.792  0.00  0.00    +0.000 C 
ATOM     20  C   UNL     1       9.780  -0.385  21.656  0.00  0.00    +0.000 C 
ATOM     21  C   UNL     1       9.723   0.790  22.567  0.00  0.00    +0.000 C 
ATOM     22  C   UNL     1       8.453   0.999  23.288  0.00  0.00    +0.000 C 
ATOM     23  C   UNL     1       7.207   0.667  22.534  0.00  0.00    +0.000 C 
ATOM     24  O   UNL     1      10.126   1.948  21.903  0.00  0.00    +0.000 OA
ENDBRANCH  17  18
ENDBRANCH  14  15
ENDBRANCH   5  14
TORSDOF 7
ENDMDL
MODEL 7
REMARK VINA RESULT:      -6.0      2.604      3.815
REMARK  Name = 
REMARK  7 active torsions:
REMARK  status: ('A' for Active; 'I' for Inactive)
REMARK    1  A    between atoms: C_2  and  C_3
REMARK    2  A    between atoms: C_3  and  N_4
REMARK    3  A    between atoms: N_4  and  C_5
REMARK    4  A    between atoms: C_8  and  C_21
REMARK    5  A    between atoms: C_9  and  C_10
REMARK    6  A    between atoms: C_10  and  C_11
REMARK    7  A    between atoms: N_13  and  C_14
REMARK                            x       y       z     vdW  Elec       q    Type
REMARK                         _______ _______ _______ _____ _____    ______ ____
ROOT
ATOM      1  C   UNL     1       7.198  -0.701  23.284  0.00  0.00    +0.000 C 
ATOM      2  C   UNL     1       6.706  -0.694  21.775  0.00  0.00    +0.000 C 
ATOM      3  C   UNL     1       7.668   0.482  21.178  0.00  0.00    +0.000 C 
ATOM      4  C   UNL     1       8.844   0.590  22.001  0.00  0.00    +0.000 C 
ATOM      5  C   UNL     1       8.592  -0.225  23.332  0.00  0.00    +0.000 C 
ATOM      6 CL   UNL     1       7.883   0.065  19.469  0.00  0.00    +0.000 Cl
ENDROOT
BRANCH   4   7
ATOM      7  C   UNL     1       9.163   2.022  22.480  0.00  0.00    +0.000 C 
ATOM      8  O   UNL     1      10.305   2.369  22.407  0.00  0.00    +0.000 OA
ATOM      9  N   UNL     1       8.150   2.732  21.939  0.00  0.00    +0.000 NA
ENDBRANCH   4   7
BRANCH   1  10
ATOM     10  N   UNL     1       6.358   0.317  23.944  0.00  0.00    +0.000 NA
BRANCH  10  11
ATOM     11  C   UNL     1       5.712  -0.318  25.043  0.00  0.00    +0.000 C 
BRANCH  11  13
ATOM     12  O   UNL     1       7.167  -1.137  26.719  0.00  0.00    +0.000 OA
ATOM     13  C   UNL     1       6.448   0.011  26.337  0.00  0.00    +0.000 C 
ENDBRANCH  11  13
ENDBRANCH  10  11
ENDBRANCH   1  10
BRANCH   5  14
ATOM     14  C   UNL     1       9.639  -0.766  24.079  0.00  0.00    +0.000 C 
BRANCH  14  15
ATOM     15  C   UNL     1       9.764  -2.278  23.766  0.00  0.00    +0.000 C 
ATOM     16  O   UNL     1      10.715  -2.617  23.063  0.00  0.00    +0.000 OA
ATOM     17  N   UNL     1       9.383  -3.081  24.781  0.00  0.00    +0.000 NA
BRANCH  17  18
ATOM     18  C   UNL     1       9.119  -4.475  24.573  0.00  0.00    +0.000 C 
ATOM     19  C   UNL     1       7.750  -4.679  23.945  0.00  0.00    +0.000 C 
ATOM     20  C   UNL     1       6.682  -4.225  24.924  0.00  0.00    +0.000 C 
ATOM     21  C   UNL     1       6.777  -4.941  26.224  0.00  0.00    +0.000 C 
ATOM     22  C   UNL     1       8.128  -5.068  26.805  0.00  0.00    +0.000 C 
ATOM     23  C   UNL     1       9.243  -5.280  25.834  0.00  0.00    +0.000 C 
ATOM     24  O   UNL     1       6.135  -6.177  26.155  0.00  0.00    +0.000 OA
ENDBRANCH  17  18
ENDBRANCH  14  15
ENDBRANCH   5  14
TORSDOF 7
ENDMDL
MODEL 8
REMARK VINA RESULT:      -6.0      3.000      6.453
REMARK  Name = 
REMARK  7 active torsions:
REMARK  status: ('A' for Active; 'I' for Inactive)
REMARK    1  A    between atoms: C_2  and  C_3
REMARK    2  A    between atoms: C_3  and  N_4
REMARK    3  A    between atoms: N_4  and  C_5
REMARK    4  A    between atoms: C_8  and  C_21
REMARK    5  A    between atoms: C_9  and  C_10
REMARK    6  A    between atoms: C_10  and  C_11
REMARK    7  A    between atoms: N_13  and  C_14
REMARK                            x       y       z     vdW  Elec       q    Type
REMARK                         _______ _______ _______ _____ _____    ______ ____
ROOT
ATOM      1  C   UNL     1       5.475  -4.736  23.790  0.00  0.00    +0.000 C 
ATOM      2  C   UNL     1       4.611  -3.524  24.340  0.00  0.00    +0.000 C 
ATOM      3  C   UNL     1       5.326  -3.315  25.793  0.00  0.00    +0.000 C 
ATOM      4  C   UNL     1       6.668  -3.836  25.736  0.00  0.00    +0.000 C 
ATOM      5  C   UNL     1       6.808  -4.695  24.416  0.00  0.00    +0.000 C 
ATOM      6 CL   UNL     1       5.116  -1.594  26.158  0.00  0.00    +0.000 Cl
ENDROOT
BRANCH   4   7
ATOM      7  C   UNL     1       7.025  -4.816  26.874  0.00  0.00    +0.000 C 
ATOM      8  O   UNL     1       8.177  -4.870  27.191  0.00  0.00    +0.000 OA
ATOM      9  N   UNL     1       6.035  -4.588  27.763  0.00  0.00    +0.000 NA
ENDBRANCH   4   7
BRANCH   1  10
ATOM     10  N   UNL     1       4.782  -5.936  24.299  0.00  0.00    +0.000 NA
BRANCH  10  11
ATOM     11  C   UNL     1       3.654  -6.160  23.459  0.00  0.00    +0.000 C 
BRANCH  11  13
ATOM     12  O   UNL     1       3.090  -8.231  24.455  0.00  0.00    +0.000 OA
ATOM     13  C   UNL     1       2.586  -6.938  24.220  0.00  0.00    +0.000 C 
ENDBRANCH  11  13
ENDBRANCH  10  11
ENDBRANCH   1  10
BRANCH   5  14
ATOM     14  C   UNL     1       8.038  -4.892  23.787  0.00  0.00    +0.000 C 
BRANCH  14  15
ATOM     15  C   UNL     1       8.909  -3.622  23.958  0.00  0.00    +0.000 C 
ATOM     16  O   UNL     1      10.031  -3.784  24.437  0.00  0.00    +0.000 OA
ATOM     17  N   UNL     1       8.742  -2.709  22.979  0.00  0.00    +0.000 NA
BRANCH  17  18
ATOM     18  C   UNL     1       9.201  -1.358  23.130  0.00  0.00    +0.000 C 
ATOM     19  C   UNL     1       8.156  -0.506  23.831  0.00  0.00    +0.000 C 
ATOM     20  C   UNL     1       6.927  -0.400  22.946  0.00  0.00    +0.000 C 
ATOM     21  C   UNL     1       7.251   0.160  21.607  0.00  0.00    +0.000 C 
ATOM     22  C   UNL     1       8.444  -0.393  20.937  0.00  0.00    +0.000 C 
ATOM     23  C   UNL     1       9.596  -0.734  21.824  0.00  0.00    +0.000 C 
ATOM     24  O   UNL     1       7.293   1.552  21.652  0.00  0.00    +0.000 OA
ENDBRANCH  17  18
ENDBRANCH  14  15
ENDBRANCH   5  14
TORSDOF 7
ENDMDL
MODEL 9
REMARK VINA RESULT:      -6.0      2.717      4.526
REMARK  Name = 
REMARK  7 active torsions:
REMARK  status: ('A' for Active; 'I' for Inactive)
REMARK    1  A    between atoms: C_2  and  C_3
REMARK    2  A    between atoms: C_3  and  N_4
REMARK    3  A    between atoms: N_4  and  C_5
REMARK    4  A    between atoms: C_8  and  C_21
REMARK    5  A    between atoms: C_9  and  C_10
REMARK    6  A    between atoms: C_10  and  C_11
REMARK    7  A    between atoms: N_13  and  C_14
REMARK                            x       y       z     vdW  Elec       q    Type
REMARK                         _______ _______ _______ _____ _____    ______ ____
ROOT
ATOM      1  C   UNL     1       8.492  -0.543  22.730  0.00  0.00    +0.000 C 
ATOM      2  C   UNL     1       8.536   1.040  22.630  0.00  0.00    +0.000 C 
ATOM      3  C   UNL     1       7.569   1.260  21.333  0.00  0.00    +0.000 C 
ATOM      4  C   UNL     1       6.690   0.127  21.204  0.00  0.00    +0.000 C 
ATOM      5  C   UNL     1       7.224  -1.022  22.150  0.00  0.00    +0.000 C 
ATOM      6 CL   UNL     1       6.839   2.856  21.580  0.00  0.00    +0.000 Cl
ENDROOT
BRANCH   4   7
ATOM      7  C   UNL     1       6.667  -0.510  19.798  0.00  0.00    +0.000 C 
ATOM      8  O   UNL     1       5.590  -0.762  19.343  0.00  0.00    +0.000 OA
ATOM      9  N   UNL     1       7.581   0.231  19.138  0.00  0.00    +0.000 NA
ENDBRANCH   4   7
BRANCH   1  10
ATOM     10  N   UNL     1       9.583  -0.993  21.843  0.00  0.00    +0.000 NA
BRANCH  10  11
ATOM     11  C   UNL     1      10.552  -1.641  22.662  0.00  0.00    +0.000 C 
BRANCH  11  13
ATOM     12  O   UNL     1      10.080  -3.511  24.033  0.00  0.00    +0.000 OA
ATOM     13  C   UNL     1       9.901  -2.117  23.956  0.00  0.00    +0.000 C 
ENDBRANCH  11  13
ENDBRANCH  10  11
ENDBRANCH   1  10
BRANCH   5  14
ATOM     14  C   UNL     1       6.382  -2.006  22.669  0.00  0.00    +0.000 C 
BRANCH  14  15
ATOM     15  C   UNL     1       6.251  -1.812  24.200  0.00  0.00    +0.000 C 
ATOM     16  O   UNL     1       5.460  -0.949  24.580  0.00  0.00    +0.000 OA
ATOM     17  N   UNL     1       6.360  -2.956  24.908  0.00  0.00    +0.000 NA
BRANCH  17  18
ATOM     18  C   UNL     1       6.590  -2.941  26.324  0.00  0.00    +0.000 C 
ATOM     19  C   UNL     1       7.915  -3.605  26.663  0.00  0.00    +0.000 C 
ATOM     20  C   UNL     1       7.839  -5.077  26.299  0.00  0.00    +0.000 C 
ATOM     21  C   UNL     1       6.714  -5.765  26.987  0.00  0.00    +0.000 C 
ATOM     22  C   UNL     1       5.415  -5.063  26.979  0.00  0.00    +0.000 C 
ATOM     23  C   UNL     1       5.472  -3.575  27.097  0.00  0.00    +0.000 C 
ATOM     24  O   UNL     1       7.080  -6.141  28.278  0.00  0.00    +0.000 OA
ENDBRANCH  17  18
ENDBRANCH  14  15
ENDBRANCH   5  14
TORSDOF 7
ENDMDL
