MODEL 1
REMARK VINA RESULT:      -7.4      0.000      0.000
REMARK  Name = 
REMARK  9 active torsions:
REMARK  status: ('A' for Active; 'I' for Inactive)
REMARK    1  A    between atoms: C_2  and  O_3
REMARK    2  A    between atoms: O_3  and  C_4
REMARK    3  A    between atoms: C_9  and  C_10
REMARK    4  A    between atoms: C_10  and  C_11
REMARK    5  A    between atoms: N_13  and  C_14
REMARK    6  A    between atoms: N_13  and  C_24
REMARK    7  A    between atoms: C_19  and  C_20
REMARK    8  A    between atoms: C_24  and  C_25
REMARK    9  A    between atoms: C_30  and  C_31
REMARK                            x       y       z     vdW  Elec       q    Type
REMARK                         _______ _______ _______ _____ _____    ______ ____
ROOT
ATOM      1  C   UNL     1       9.685  -1.845  23.462  0.00  0.00    +0.000 C 
ATOM      2  O   UNL     1      10.611  -2.624  23.229  0.00  0.00    +0.000 OA
ATOM      3  N   UNL     1       8.456  -2.137  23.039  0.00  0.00    +0.000 N 
ENDROOT
BRANCH   3   4
ATOM      4  C   UNL     1       7.790  -2.875  23.982  0.00  0.00    +0.000 A 
ATOM      5  C   UNL     1       6.534  -1.817  24.445  0.00  0.00    +0.000 A 
ATOM      6  C   UNL     1       5.251  -2.550  24.163  0.00  0.00    +0.000 A 
ATOM      7  C   UNL     1       4.809  -3.924  23.797  0.00  0.00    +0.000 A 
ATOM      8  C   UNL     1       5.981  -4.781  23.332  0.00  0.00    +0.000 A 
ATOM      9  C   UNL     1       7.301  -4.205  23.806  0.00  0.00    +0.000 A 
ATOM     10  C   UNL     1       5.881  -6.128  22.947  0.00  0.00    +0.000 C 
BRANCH   9  11
ATOM     11  C   UNL     1       7.780  -5.192  24.828  0.00  0.00    +0.000 C 
ATOM     12  O   UNL     1       7.481  -5.011  25.988  0.00  0.00    +0.000 OA
ATOM     13  N   UNL     1       9.100  -5.336  24.497  0.00  0.00    +0.000 NA
ENDBRANCH   9  11
ENDBRANCH   3   4
BRANCH   1  14
ATOM     14  C   UNL     1       9.999  -0.342  23.495  0.00  0.00    +0.000 C 
BRANCH  14  20
ATOM     15  C   UNL     1       8.677   1.508  24.739  0.00  0.00    +0.000 A 
ATOM     16  C   UNL     1       7.468   1.587  25.462  0.00  0.00    +0.000 A 
ATOM     17  C   UNL     1       7.225   0.966  26.925  0.00  0.00    +0.000 A 
ATOM     18  C   UNL     1       8.240  -0.161  26.856  0.00  0.00    +0.000 A 
ATOM     19  C   UNL     1       9.329  -0.323  26.002  0.00  0.00    +0.000 A 
ATOM     20  C   UNL     1       9.598   0.277  24.729  0.00  0.00    +0.000 A 
ATOM     21  F   UNL     1       8.585  -0.447  28.115  0.00  0.00    +0.000 F 
BRANCH  15  22
ATOM     22  O   UNL     1       9.452   2.665  24.534  0.00  0.00    +0.000 OA
BRANCH  22  24
ATOM     23  C   UNL     1       9.728   4.888  23.880  0.00  0.00    +0.000 C 
ATOM     24  C   UNL     1       8.790   3.884  24.555  0.00  0.00    +0.000 C 
ENDBRANCH  22  24
ENDBRANCH  15  22
ENDBRANCH  14  20
ENDBRANCH   1  14
BRANCH   3  25
ATOM     25  C   UNL     1       8.128  -2.199  21.669  0.00  0.00    +0.000 C 
BRANCH  25  26
ATOM     26  C   UNL     1       7.208  -1.044  21.285  0.00  0.00    +0.000 A 
ATOM     27  C   UNL     1       5.872  -1.864  20.614  0.00  0.00    +0.000 A 
ATOM     28  N   UNL     1       5.812  -1.395  19.341  0.00  0.00    +0.000 NA
ATOM     29  C   UNL     1       6.132  -0.406  18.576  0.00  0.00    +0.000 A 
ATOM     30  C   UNL     1       7.420   0.408  19.002  0.00  0.00    +0.000 A 
ATOM     31  C   UNL     1       7.567   0.115  20.513  0.00  0.00    +0.000 A 
BRANCH  31  32
ATOM     32  C   UNL     1       7.375   1.418  21.155  0.00  0.00    +0.000 C 
ATOM     33  O   UNL     1       6.413   1.662  21.828  0.00  0.00    +0.000 OA
ATOM     34  O   UNL     1       8.567   1.991  21.370  0.00  0.00    +0.000 OA
ENDBRANCH  31  32
ENDBRANCH  25  26
ENDBRANCH   3  25
TORSDOF 9
ENDMDL
MODEL 2
REMARK VINA RESULT:      -6.8      2.765      7.156
REMARK  Name = 
REMARK  9 active torsions:
REMARK  status: ('A' for Active; 'I' for Inactive)
REMARK    1  A    between atoms: C_2  and  O_3
REMARK    2  A    between atoms: O_3  and  C_4
REMARK    3  A    between atoms: C_9  and  C_10
REMARK    4  A    between atoms: C_10  and  C_11
REMARK    5  A    between atoms: N_13  and  C_14
REMARK    6  A    between atoms: N_13  and  C_24
REMARK    7  A    between atoms: C_19  and  C_20
REMARK    8  A    between atoms: C_24  and  C_25
REMARK    9  A    between atoms: C_30  and  C_31
REMARK                            x       y       z     vdW  Elec       q    Type
REMARK                         _______ _______ _______ _____ _____    ______ ____
ROOT
ATOM      1  C   UNL     1       6.048  -2.114  22.757  0.00  0.00    +0.000 C 
ATOM      2  O   UNL     1       5.980  -2.524  21.597  0.00  0.00    +0.000 OA
ATOM      3  N   UNL     1       7.212  -1.678  23.236  0.00  0.00    +0.000 N 
ENDROOT
BRANCH   3   4
ATOM      4  C   UNL     1       7.361  -0.339  22.979  0.00  0.00    +0.000 A 
ATOM      5  C   UNL     1       6.248   0.360  24.067  0.00  0.00    +0.000 A 
ATOM      6  C   UNL     1       7.050   1.284  24.943  0.00  0.00    +0.000 A 
ATOM      7  C   UNL     1       8.421   1.861  24.992  0.00  0.00    +0.000 A 
ATOM      8  C   UNL     1       9.366   1.136  24.041  0.00  0.00    +0.000 A 
ATOM      9  C   UNL     1       8.596   0.377  22.979  0.00  0.00    +0.000 A 
ATOM     10  C   UNL     1      10.717   1.470  23.849  0.00  0.00    +0.000 C 
BRANCH   9  11
ATOM     11  C   UNL     1       8.887   1.129  21.715  0.00  0.00    +0.000 C 
ATOM     12  O   UNL     1       8.293   2.164  21.510  0.00  0.00    +0.000 OA
ATOM     13  N   UNL     1       8.841   0.139  20.771  0.00  0.00    +0.000 NA
ENDBRANCH   9  11
ENDBRANCH   3   4
BRANCH   1  14
ATOM     14  C   UNL     1       5.144  -2.774  23.810  0.00  0.00    +0.000 C 
BRANCH  14  20
ATOM     15  C   UNL     1       5.675  -5.308  23.942  0.00  0.00    +0.000 A 
ATOM     16  C   UNL     1       5.183  -6.416  24.664  0.00  0.00    +0.000 A 
ATOM     17  C   UNL     1       3.758  -7.119  24.419  0.00  0.00    +0.000 A 
ATOM     18  C   UNL     1       3.013  -5.918  23.865  0.00  0.00    +0.000 A 
ATOM     19  C   UNL     1       3.514  -4.735  23.326  0.00  0.00    +0.000 A 
ATOM     20  C   UNL     1       4.805  -4.129  23.472  0.00  0.00    +0.000 A 
ATOM     21  F   UNL     1       2.021  -6.394  23.109  0.00  0.00    +0.000 F 
BRANCH  15  22
ATOM     22  O   UNL     1       6.753  -5.468  23.051  0.00  0.00    +0.000 OA
BRANCH  22  24
ATOM     23  C   UNL     1       6.250  -5.832  20.803  0.00  0.00    +0.000 C 
ATOM     24  C   UNL     1       6.659  -6.493  22.121  0.00  0.00    +0.000 C 
ENDBRANCH  22  24
ENDBRANCH  15  22
ENDBRANCH  14  20
ENDBRANCH   1  14
BRANCH   3  25
ATOM     25  C   UNL     1       8.318  -2.533  23.419  0.00  0.00    +0.000 C 
BRANCH  25  26
ATOM     26  C   UNL     1       8.679  -2.634  24.898  0.00  0.00    +0.000 A 
ATOM     27  C   UNL     1       9.542  -4.103  24.952  0.00  0.00    +0.000 A 
ATOM     28  N   UNL     1       8.820  -4.869  25.810  0.00  0.00    +0.000 NA
ATOM     29  C   UNL     1       7.981  -4.833  26.790  0.00  0.00    +0.000 A 
ATOM     30  C   UNL     1       7.024  -3.573  26.833  0.00  0.00    +0.000 A 
ATOM     31  C   UNL     1       7.777  -2.502  26.009  0.00  0.00    +0.000 A 
BRANCH  31  32
ATOM     32  C   UNL     1       8.076  -1.445  26.979  0.00  0.00    +0.000 C 
ATOM     33  O   UNL     1       9.132  -0.878  26.998  0.00  0.00    +0.000 OA
ATOM     34  O   UNL     1       6.936  -0.856  27.364  0.00  0.00    +0.000 OA
ENDBRANCH  31  32
ENDBRANCH  25  26
ENDBRANCH   3  25
TORSDOF 9
ENDMDL
MODEL 3
REMARK VINA RESULT:      -6.7      3.044      6.007
REMARK  Name = 
REMARK  9 active torsions:
REMARK  status: ('A' for Active; 'I' for Inactive)
REMARK    1  A    between atoms: C_2  and  O_3
REMARK    2  A    between atoms: O_3  and  C_4
REMARK    3  A    between atoms: C_9  and  C_10
REMARK    4  A    between atoms: C_10  and  C_11
REMARK    5  A    between atoms: N_13  and  C_14
REMARK    6  A    between atoms: N_13  and  C_24
REMARK    7  A    between atoms: C_19  and  C_20
REMARK    8  A    between atoms: C_24  and  C_25
REMARK    9  A    between atoms: C_30  and  C_31
REMARK                            x       y       z     vdW  Elec       q    Type
REMARK                         _______ _______ _______ _____ _____    ______ ____
ROOT
ATOM      1  C   UNL     1       5.939  -1.731  24.200  0.00  0.00    +0.000 C 
ATOM      2  O   UNL     1       6.578  -0.705  24.439  0.00  0.00    +0.000 OA
ATOM      3  N   UNL     1       5.809  -2.662  25.145  0.00  0.00    +0.000 N 
ENDROOT
BRANCH   3   4
ATOM      4  C   UNL     1       4.705  -2.407  25.917  0.00  0.00    +0.000 A 
ATOM      5  C   UNL     1       3.466  -3.184  25.037  0.00  0.00    +0.000 A 
ATOM      6  C   UNL     1       2.865  -4.195  25.974  0.00  0.00    +0.000 A 
ATOM      7  C   UNL     1       2.921  -4.546  27.420  0.00  0.00    +0.000 A 
ATOM      8  C   UNL     1       4.095  -3.864  28.115  0.00  0.00    +0.000 A 
ATOM      9  C   UNL     1       4.586  -2.674  27.314  0.00  0.00    +0.000 A 
ATOM     10  C   UNL     1       4.391  -3.983  29.482  0.00  0.00    +0.000 C 
BRANCH   9  11
ATOM     11  C   UNL     1       4.198  -1.492  28.150  0.00  0.00    +0.000 C 
ATOM     12  O   UNL     1       3.069  -1.064  28.055  0.00  0.00    +0.000 OA
ATOM     13  N   UNL     1       5.250  -0.639  27.952  0.00  0.00    +0.000 NA
ENDBRANCH   9  11
ENDBRANCH   3   4
BRANCH   1  14
ATOM     14  C   UNL     1       5.976  -2.288  22.770  0.00  0.00    +0.000 C 
BRANCH  14  20
ATOM     15  C   UNL     1       7.150  -0.541  21.258  0.00  0.00    +0.000 A 
ATOM     16  C   UNL     1       8.111   0.478  21.434  0.00  0.00    +0.000 A 
ATOM     17  C   UNL     1       9.676   0.233  21.710  0.00  0.00    +0.000 A 
ATOM     18  C   UNL     1       9.570  -1.124  22.382  0.00  0.00    +0.000 A 
ATOM     19  C   UNL     1       8.527  -2.047  22.359  0.00  0.00    +0.000 A 
ATOM     20  C   UNL     1       7.141  -1.863  22.044  0.00  0.00    +0.000 A 
ATOM     21  F   UNL     1      10.743  -1.737  22.200  0.00  0.00    +0.000 F 
BRANCH  15  22
ATOM     22  O   UNL     1       6.570  -0.751  19.994  0.00  0.00    +0.000 OA
BRANCH  22  24
ATOM     23  C   UNL     1       5.823   0.570  18.222  0.00  0.00    +0.000 C 
ATOM     24  C   UNL     1       7.053   0.010  18.940  0.00  0.00    +0.000 C 
ENDBRANCH  22  24
ENDBRANCH  15  22
ENDBRANCH  14  20
ENDBRANCH   1  14
BRANCH   3  25
ATOM     25  C   UNL     1       6.909  -3.398  25.630  0.00  0.00    +0.000 C 
BRANCH  25  26
ATOM     26  C   UNL     1       6.813  -4.856  25.192  0.00  0.00    +0.000 A 
ATOM     27  C   UNL     1       8.352  -5.122  24.508  0.00  0.00    +0.000 A 
ATOM     28  N   UNL     1       8.079  -5.461  23.221  0.00  0.00    +0.000 NA
ATOM     29  C   UNL     1       7.177  -5.950  22.439  0.00  0.00    +0.000 A 
ATOM     30  C   UNL     1       5.676  -5.704  22.877  0.00  0.00    +0.000 A 
ATOM     31  C   UNL     1       5.768  -5.445  24.400  0.00  0.00    +0.000 A 
BRANCH  31  32
ATOM     32  C   UNL     1       5.035  -6.562  25.001  0.00  0.00    +0.000 C 
ATOM     33  O   UNL     1       4.560  -7.442  24.339  0.00  0.00    +0.000 OA
ATOM     34  O   UNL     1       5.466  -6.757  26.254  0.00  0.00    +0.000 OA
ENDBRANCH  31  32
ENDBRANCH  25  26
ENDBRANCH   3  25
TORSDOF 9
ENDMDL
MODEL 4
REMARK VINA RESULT:      -6.6      2.621      4.535
REMARK  Name = 
REMARK  9 active torsions:
REMARK  status: ('A' for Active; 'I' for Inactive)
REMARK    1  A    between atoms: C_2  and  O_3
REMARK    2  A    between atoms: O_3  and  C_4
REMARK    3  A    between atoms: C_9  and  C_10
REMARK    4  A    between atoms: C_10  and  C_11
REMARK    5  A    between atoms: N_13  and  C_14
REMARK    6  A    between atoms: N_13  and  C_24
REMARK    7  A    between atoms: C_19  and  C_20
REMARK    8  A    between atoms: C_24  and  C_25
REMARK    9  A    between atoms: C_30  and  C_31
REMARK                            x       y       z     vdW  Elec       q    Type
REMARK                         _______ _______ _______ _____ _____    ______ ____
ROOT
ATOM      1  C   UNL     1       8.067  -2.085  22.845  0.00  0.00    +0.000 C 
ATOM      2  O   UNL     1       7.821  -1.783  21.676  0.00  0.00    +0.000 OA
ATOM      3  N   UNL     1       7.115  -2.630  23.600  0.00  0.00    +0.000 N 
ENDROOT
BRANCH   3   4
ATOM      4  C   UNL     1       7.125  -3.994  23.469  0.00  0.00    +0.000 A 
ATOM      5  C   UNL     1       7.888  -4.487  24.914  0.00  0.00    +0.000 A 
ATOM      6  C   UNL     1       6.908  -5.390  25.612  0.00  0.00    +0.000 A 
ATOM      7  C   UNL     1       5.621  -6.078  25.318  0.00  0.00    +0.000 A 
ATOM      8  C   UNL     1       4.974  -5.532  24.050  0.00  0.00    +0.000 A 
ATOM      9  C   UNL     1       5.990  -4.813  23.184  0.00  0.00    +0.000 A 
ATOM     10  C   UNL     1       3.767  -6.000  23.505  0.00  0.00    +0.000 C 
BRANCH   9  11
ATOM     11  C   UNL     1       6.141  -5.703  21.989  0.00  0.00    +0.000 C 
ATOM     12  O   UNL     1       7.081  -6.467  21.953  0.00  0.00    +0.000 OA
ATOM     13  N   UNL     1       5.955  -4.831  20.951  0.00  0.00    +0.000 NA
ENDBRANCH   9  11
ENDBRANCH   3   4
BRANCH   1  14
ATOM     14  C   UNL     1       9.061  -1.208  23.622  0.00  0.00    +0.000 C 
BRANCH  14  20
ATOM     15  C   UNL     1       8.030   1.167  23.737  0.00  0.00    +0.000 A 
ATOM     16  C   UNL     1       8.376   2.401  24.327  0.00  0.00    +0.000 A 
ATOM     17  C   UNL     1       9.567   3.360  23.828  0.00  0.00    +0.000 A 
ATOM     18  C   UNL     1      10.459   2.299  23.210  0.00  0.00    +0.000 A 
ATOM     19  C   UNL     1      10.147   1.003  22.806  0.00  0.00    +0.000 A 
ATOM     20  C   UNL     1       9.051   0.159  23.181  0.00  0.00    +0.000 A 
ATOM     21  F   UNL     1      11.205   2.911  22.287  0.00  0.00    +0.000 F 
BRANCH  15  22
ATOM     22  O   UNL     1       6.822   1.040  23.025  0.00  0.00    +0.000 OA
BRANCH  22  24
ATOM     23  C   UNL     1       6.632   1.359  20.722  0.00  0.00    +0.000 C 
ATOM     24  C   UNL     1       6.527   2.026  22.095  0.00  0.00    +0.000 C 
ENDBRANCH  22  24
ENDBRANCH  15  22
ENDBRANCH  14  20
ENDBRANCH   1  14
BRANCH   3  25
ATOM     25  C   UNL     1       5.954  -1.921  23.973  0.00  0.00    +0.000 C 
BRANCH  25  26
ATOM     26  C   UNL     1       5.926  -1.695  25.482  0.00  0.00    +0.000 A 
ATOM     27  C   UNL     1       4.397  -2.321  25.905  0.00  0.00    +0.000 A 
ATOM     28  N   UNL     1       3.754  -1.258  26.453  0.00  0.00    +0.000 NA
ATOM     29  C   UNL     1       3.927  -0.123  27.044  0.00  0.00    +0.000 A 
ATOM     30  C   UNL     1       5.261   0.647  26.683  0.00  0.00    +0.000 A 
ATOM     31  C   UNL     1       6.208  -0.463  26.168  0.00  0.00    +0.000 A 
BRANCH  31  32
ATOM     32  C   UNL     1       7.300  -0.488  27.144  0.00  0.00    +0.000 C 
ATOM     33  O   UNL     1       8.322  -1.082  26.941  0.00  0.00    +0.000 OA
ATOM     34  O   UNL     1       7.248   0.615  27.902  0.00  0.00    +0.000 OA
ENDBRANCH  31  32
ENDBRANCH  25  26
ENDBRANCH   3  25
TORSDOF 9
ENDMDL
MODEL 5
REMARK VINA RESULT:      -6.6      2.625      4.928
REMARK  Name = 
REMARK  9 active torsions:
REMARK  status: ('A' for Active; 'I' for Inactive)
REMARK    1  A    between atoms: C_2  and  O_3
REMARK    2  A    between atoms: O_3  and  C_4
REMARK    3  A    between atoms: C_9  and  C_10
REMARK    4  A    between atoms: C_10  and  C_11
REMARK    5  A    between atoms: N_13  and  C_14
REMARK    6  A    between atoms: N_13  and  C_24
REMARK    7  A    between atoms: C_19  and  C_20
REMARK    8  A    between atoms: C_24  and  C_25
REMARK    9  A    between atoms: C_30  and  C_31
REMARK                            x       y       z     vdW  Elec       q    Type
REMARK                         _______ _______ _______ _____ _____    ______ ____
ROOT
ATOM      1  C   UNL     1       7.327  -2.786  22.308  0.00  0.00    +0.000 C 
ATOM      2  O   UNL     1       6.609  -2.678  21.313  0.00  0.00    +0.000 OA
ATOM      3  N   UNL     1       6.782  -2.749  23.523  0.00  0.00    +0.000 N 
ENDROOT
BRANCH   3   4
ATOM      4  C   UNL     1       6.410  -4.009  23.916  0.00  0.00    +0.000 A 
ATOM      5  C   UNL     1       7.771  -4.520  24.810  0.00  0.00    +0.000 A 
ATOM      6  C   UNL     1       7.264  -4.837  26.191  0.00  0.00    +0.000 A 
ATOM      7  C   UNL     1       5.960  -4.999  26.889  0.00  0.00    +0.000 A 
ATOM      8  C   UNL     1       4.807  -4.456  26.051  0.00  0.00    +0.000 A 
ATOM      9  C   UNL     1       5.198  -4.348  24.590  0.00  0.00    +0.000 A 
ATOM     10  C   UNL     1       3.456  -4.493  26.434  0.00  0.00    +0.000 C 
BRANCH   9  11
ATOM     11  C   UNL     1       4.379  -5.407  23.918  0.00  0.00    +0.000 C 
ATOM     12  O   UNL     1       4.811  -6.539  23.890  0.00  0.00    +0.000 OA
ATOM     13  N   UNL     1       4.030  -4.802  22.741  0.00  0.00    +0.000 NA
ENDBRANCH   9  11
ENDBRANCH   3   4
BRANCH   1  14
ATOM     14  C   UNL     1       8.747  -2.204  22.239  0.00  0.00    +0.000 C 
BRANCH  14  20
ATOM     15  C   UNL     1       7.479  -0.146  21.304  0.00  0.00    +0.000 A 
ATOM     16  C   UNL     1       7.181   1.159  21.753  0.00  0.00    +0.000 A 
ATOM     17  C   UNL     1       8.247   2.356  21.881  0.00  0.00    +0.000 A 
ATOM     18  C   UNL     1       9.494   1.518  22.101  0.00  0.00    +0.000 A 
ATOM     19  C   UNL     1       9.715   0.169  21.830  0.00  0.00    +0.000 A 
ATOM     20  C   UNL     1       8.778  -0.898  21.639  0.00  0.00    +0.000 A 
ATOM     21  F   UNL     1      10.531   2.254  21.694  0.00  0.00    +0.000 F 
BRANCH  15  22
ATOM     22  O   UNL     1       6.997  -0.590  20.059  0.00  0.00    +0.000 OA
BRANCH  22  24
ATOM     23  C   UNL     1       5.990   0.624  18.339  0.00  0.00    +0.000 C 
ATOM     24  C   UNL     1       7.320   0.172  18.946  0.00  0.00    +0.000 C 
ENDBRANCH  22  24
ENDBRANCH  15  22
ENDBRANCH  14  20
ENDBRANCH   1  14
BRANCH   3  25
ATOM     25  C   UNL     1       6.160  -1.591  24.033  0.00  0.00    +0.000 C 
BRANCH  25  26
ATOM     26  C   UNL     1       6.929  -1.057  25.238  0.00  0.00    +0.000 A 
ATOM     27  C   UNL     1       5.669  -0.684  26.324  0.00  0.00    +0.000 A 
ATOM     28  N   UNL     1       5.815   0.648  26.542  0.00  0.00    +0.000 NA
ATOM     29  C   UNL     1       6.660   1.624  26.520  0.00  0.00    +0.000 A 
ATOM     30  C   UNL     1       7.849   1.484  25.485  0.00  0.00    +0.000 A 
ATOM     31  C   UNL     1       7.942  -0.037  25.224  0.00  0.00    +0.000 A 
BRANCH  31  32
ATOM     32  C   UNL     1       9.261  -0.412  25.740  0.00  0.00    +0.000 C 
ATOM     33  O   UNL     1      10.273   0.072  25.315  0.00  0.00    +0.000 OA
ATOM     34  O   UNL     1       9.143  -0.837  27.005  0.00  0.00    +0.000 OA
ENDBRANCH  31  32
ENDBRANCH  25  26
ENDBRANCH   3  25
TORSDOF 9
ENDMDL
MODEL 6
REMARK VINA RESULT:      -6.4      2.383      5.564
REMARK  Name = 
REMARK  9 active torsions:
REMARK  status: ('A' for Active; 'I' for Inactive)
REMARK    1  A    between atoms: C_2  and  O_3
REMARK    2  A    between atoms: O_3  and  C_4
REMARK    3  A    between atoms: C_9  and  C_10
REMARK    4  A    between atoms: C_10  and  C_11
REMARK    5  A    between atoms: N_13  and  C_14
REMARK    6  A    between atoms: N_13  and  C_24
REMARK    7  A    between atoms: C_19  and  C_20
REMARK    8  A    between atoms: C_24  and  C_25
REMARK    9  A    between atoms: C_30  and  C_31
REMARK                            x       y       z     vdW  Elec       q    Type
REMARK                         _______ _______ _______ _____ _____    ______ ____
ROOT
ATOM      1  C   UNL     1       8.293  -2.314  23.013  0.00  0.00    +0.000 C 
ATOM      2  O   UNL     1       9.015  -3.220  23.433  0.00  0.00    +0.000 OA
ATOM      3  N   UNL     1       7.112  -2.091  23.587  0.00  0.00    +0.000 N 
ENDROOT
BRANCH   3   4
ATOM      4  C   UNL     1       7.247  -1.212  24.630  0.00  0.00    +0.000 A 
ATOM      5  C   UNL     1       6.513   0.197  24.009  0.00  0.00    +0.000 A 
ATOM      6  C   UNL     1       5.393   0.532  24.955  0.00  0.00    +0.000 A 
ATOM      7  C   UNL     1       4.904   0.112  26.297  0.00  0.00    +0.000 A 
ATOM      8  C   UNL     1       5.560  -1.189  26.747  0.00  0.00    +0.000 A 
ATOM      9  C   UNL     1       6.841  -1.449  25.978  0.00  0.00    +0.000 A 
ATOM     10  C   UNL     1       5.320  -1.820  27.978  0.00  0.00    +0.000 C 
BRANCH   9  11
ATOM     11  C   UNL     1       7.920  -1.268  27.002  0.00  0.00    +0.000 C 
ATOM     12  O   UNL     1       8.205  -0.141  27.346  0.00  0.00    +0.000 OA
ATOM     13  N   UNL     1       8.908  -2.088  26.531  0.00  0.00    +0.000 NA
ENDBRANCH   9  11
ENDBRANCH   3   4
BRANCH   1  14
ATOM     14  C   UNL     1       8.331  -2.000  21.510  0.00  0.00    +0.000 C 
BRANCH  14  20
ATOM     15  C   UNL     1       7.796   0.385  20.651  0.00  0.00    +0.000 A 
ATOM     16  C   UNL     1       7.541   1.645  21.233  0.00  0.00    +0.000 A 
ATOM     17  C   UNL     1       8.642   2.568  21.955  0.00  0.00    +0.000 A 
ATOM     18  C   UNL     1       9.590   1.470  22.402  0.00  0.00    +0.000 A 
ATOM     19  C   UNL     1       9.704   0.157  21.948  0.00  0.00    +0.000 A 
ATOM     20  C   UNL     1       8.763  -0.657  21.238  0.00  0.00    +0.000 A 
ATOM     21  F   UNL     1      10.797   2.029  22.528  0.00  0.00    +0.000 F 
BRANCH  15  22
ATOM     22  O   UNL     1       7.747   0.232  19.252  0.00  0.00    +0.000 OA
BRANCH  22  24
ATOM     23  C   UNL     1       5.955   0.984  17.962  0.00  0.00    +0.000 C 
ATOM     24  C   UNL     1       6.553  -0.213  18.705  0.00  0.00    +0.000 C 
ENDBRANCH  22  24
ENDBRANCH  15  22
ENDBRANCH  14  20
ENDBRANCH   1  14
BRANCH   3  25
ATOM     25  C   UNL     1       6.059  -3.027  23.527  0.00  0.00    +0.000 C 
BRANCH  25  26
ATOM     26  C   UNL     1       6.512  -4.379  24.071  0.00  0.00    +0.000 A 
ATOM     27  C   UNL     1       6.045  -5.438  22.819  0.00  0.00    +0.000 A 
ATOM     28  N   UNL     1       5.177  -6.289  23.424  0.00  0.00    +0.000 NA
ATOM     29  C   UNL     1       4.830  -6.794  24.559  0.00  0.00    +0.000 A 
ATOM     30  C   UNL     1       5.102  -5.890  25.830  0.00  0.00    +0.000 A 
ATOM     31  C   UNL     1       6.217  -4.922  25.368  0.00  0.00    +0.000 A 
BRANCH  31  32
ATOM     32  C   UNL     1       7.362  -5.259  26.218  0.00  0.00    +0.000 C 
ATOM     33  O   UNL     1       8.469  -5.387  25.774  0.00  0.00    +0.000 OA
ATOM     34  O   UNL     1       7.133  -4.833  27.467  0.00  0.00    +0.000 OA
ENDBRANCH  31  32
ENDBRANCH  25  26
ENDBRANCH   3  25
TORSDOF 9
ENDMDL
MODEL 7
REMARK VINA RESULT:      -6.3      3.152      5.501
REMARK  Name = 
REMARK  9 active torsions:
REMARK  status: ('A' for Active; 'I' for Inactive)
REMARK    1  A    between atoms: C_2  and  O_3
REMARK    2  A    between atoms: O_3  and  C_4
REMARK    3  A    between atoms: C_9  and  C_10
REMARK    4  A    between atoms: C_10  and  C_11
REMARK    5  A    between atoms: N_13  and  C_14
REMARK    6  A    between atoms: N_13  and  C_24
REMARK    7  A    between atoms: C_19  and  C_20
REMARK    8  A    between atoms: C_24  and  C_25
REMARK    9  A    between atoms: C_30  and  C_31
REMARK                            x       y       z     vdW  Elec       q    Type
REMARK                         _______ _______ _______ _____ _____    ______ ____
ROOT
ATOM      1  C   UNL     1       6.191  -3.943  23.017  0.00  0.00    +0.000 C 
ATOM      2  O   UNL     1       5.497  -3.701  22.029  0.00  0.00    +0.000 OA
ATOM      3  N   UNL     1       5.638  -3.939  24.229  0.00  0.00    +0.000 N 
ENDROOT
BRANCH   3   4
ATOM      4  C   UNL     1       5.147  -5.182  24.533  0.00  0.00    +0.000 A 
ATOM      5  C   UNL     1       6.281  -5.746  25.677  0.00  0.00    +0.000 A 
ATOM      6  C   UNL     1       5.498  -6.039  26.927  0.00  0.00    +0.000 A 
ATOM      7  C   UNL     1       4.074  -6.149  27.350  0.00  0.00    +0.000 A 
ATOM      8  C   UNL     1       3.134  -5.562  26.303  0.00  0.00    +0.000 A 
ATOM      9  C   UNL     1       3.812  -5.471  24.950  0.00  0.00    +0.000 A 
ATOM     10  C   UNL     1       1.734  -5.544  26.409  0.00  0.00    +0.000 C 
BRANCH   9  11
ATOM     11  C   UNL     1       3.102  -6.499  24.121  0.00  0.00    +0.000 C 
ATOM     12  O   UNL     1       3.498  -7.643  24.159  0.00  0.00    +0.000 OA
ATOM     13  N   UNL     1       2.999  -5.873  22.909  0.00  0.00    +0.000 NA
ENDBRANCH   9  11
ENDBRANCH   3   4
BRANCH   1  14
ATOM     14  C   UNL     1       7.660  -3.494  22.995  0.00  0.00    +0.000 C 
BRANCH  14  20
ATOM     15  C   UNL     1       9.183  -1.468  22.452  0.00  0.00    +0.000 A 
ATOM     16  C   UNL     1       9.503  -0.712  21.305  0.00  0.00    +0.000 A 
ATOM     17  C   UNL     1       8.514   0.327  20.579  0.00  0.00    +0.000 A 
ATOM     18  C   UNL     1       7.195  -0.306  20.984  0.00  0.00    +0.000 A 
ATOM     19  C   UNL     1       6.922  -1.210  22.008  0.00  0.00    +0.000 A 
ATOM     20  C   UNL     1       7.802  -2.091  22.718  0.00  0.00    +0.000 A 
ATOM     21  F   UNL     1       6.277   0.664  20.958  0.00  0.00    +0.000 F 
BRANCH  15  22
ATOM     22  O   UNL     1       9.803  -1.180  23.682  0.00  0.00    +0.000 OA
BRANCH  22  24
ATOM     23  C   UNL     1       9.572   1.029  24.397  0.00  0.00    +0.000 C 
ATOM     24  C   UNL     1      10.519   0.005  23.768  0.00  0.00    +0.000 C 
ENDBRANCH  22  24
ENDBRANCH  15  22
ENDBRANCH  14  20
ENDBRANCH   1  14
BRANCH   3  25
ATOM     25  C   UNL     1       5.122  -2.765  24.816  0.00  0.00    +0.000 C 
BRANCH  25  26
ATOM     26  C   UNL     1       5.933  -2.382  26.051  0.00  0.00    +0.000 A 
ATOM     27  C   UNL     1       4.725  -2.287  27.250  0.00  0.00    +0.000 A 
ATOM     28  N   UNL     1       4.800  -1.001  27.682  0.00  0.00    +0.000 NA
ATOM     29  C   UNL     1       5.578   0.024  27.779  0.00  0.00    +0.000 A 
ATOM     30  C   UNL     1       6.703   0.145  26.673  0.00  0.00    +0.000 A 
ATOM     31  C   UNL     1       6.876  -1.302  26.154  0.00  0.00    +0.000 A 
BRANCH  31  32
ATOM     32  C   UNL     1       8.247  -1.659  26.528  0.00  0.00    +0.000 C 
ATOM     33  O   UNL     1       8.924  -0.951  27.220  0.00  0.00    +0.000 OA
ATOM     34  O   UNL     1       8.383  -2.992  26.512  0.00  0.00    +0.000 OA
ENDBRANCH  31  32
ENDBRANCH  25  26
ENDBRANCH   3  25
TORSDOF 9
ENDMDL
MODEL 8
REMARK VINA RESULT:      -6.2      2.454      5.403
REMARK  Name = 
REMARK  9 active torsions:
REMARK  status: ('A' for Active; 'I' for Inactive)
REMARK    1  A    between atoms: C_2  and  O_3
REMARK    2  A    between atoms: O_3  and  C_4
REMARK    3  A    between atoms: C_9  and  C_10
REMARK    4  A    between atoms: C_10  and  C_11
REMARK    5  A    between atoms: N_13  and  C_14
REMARK    6  A    between atoms: N_13  and  C_24
REMARK    7  A    between atoms: C_19  and  C_20
REMARK    8  A    between atoms: C_24  and  C_25
REMARK    9  A    between atoms: C_30  and  C_31
REMARK                            x       y       z     vdW  Elec       q    Type
REMARK                         _______ _______ _______ _____ _____    ______ ____
ROOT
ATOM      1  C   UNL     1       8.690  -2.272  23.628  0.00  0.00    +0.000 C 
ATOM      2  O   UNL     1       9.864  -2.077  23.946  0.00  0.00    +0.000 OA
ATOM      3  N   UNL     1       7.933  -3.086  24.363  0.00  0.00    +0.000 N 
ENDROOT
BRANCH   3   4
ATOM      4  C   UNL     1       7.322  -2.387  25.372  0.00  0.00    +0.000 A 
ATOM      5  C   UNL     1       8.490  -2.456  26.614  0.00  0.00    +0.000 A 
ATOM      6  C   UNL     1       8.824  -1.028  26.948  0.00  0.00    +0.000 A 
ATOM      7  C   UNL     1       8.310   0.337  26.647  0.00  0.00    +0.000 A 
ATOM      8  C   UNL     1       7.325   0.317  25.483  0.00  0.00    +0.000 A 
ATOM      9  C   UNL     1       6.769  -1.075  25.261  0.00  0.00    +0.000 A 
ATOM     10  C   UNL     1       6.655   1.447  24.986  0.00  0.00    +0.000 C 
BRANCH   9  11
ATOM     11  C   UNL     1       5.333  -0.961  25.673  0.00  0.00    +0.000 C 
ATOM     12  O   UNL     1       5.070  -0.967  26.856  0.00  0.00    +0.000 OA
ATOM     13  N   UNL     1       4.722  -1.870  24.852  0.00  0.00    +0.000 NA
ENDBRANCH   9  11
ENDBRANCH   3   4
BRANCH   1  14
ATOM     14  C   UNL     1       8.337  -2.265  22.133  0.00  0.00    +0.000 C 
BRANCH  14  20
ATOM     15  C   UNL     1       7.252  -0.109  21.189  0.00  0.00    +0.000 A 
ATOM     16  C   UNL     1       7.053   1.214  21.639  0.00  0.00    +0.000 A 
ATOM     17  C   UNL     1       8.209   2.321  21.789  0.00  0.00    +0.000 A 
ATOM     18  C   UNL     1       9.381   1.385  22.023  0.00  0.00    +0.000 A 
ATOM     19  C   UNL     1       9.497   0.024  21.749  0.00  0.00    +0.000 A 
ATOM     20  C   UNL     1       8.481  -0.964  21.539  0.00  0.00    +0.000 A 
ATOM     21  F   UNL     1      10.479   2.038  21.635  0.00  0.00    +0.000 F 
BRANCH  15  22
ATOM     22  O   UNL     1       6.754  -0.509  19.935  0.00  0.00    +0.000 OA
BRANCH  22  24
ATOM     23  C   UNL     1       5.908   0.683  18.116  0.00  0.00    +0.000 C 
ATOM     24  C   UNL     1       7.178   0.209  18.826  0.00  0.00    +0.000 C 
ENDBRANCH  22  24
ENDBRANCH  15  22
ENDBRANCH  14  20
ENDBRANCH   1  14
BRANCH   3  25
ATOM     25  C   UNL     1       8.191  -4.469  24.458  0.00  0.00    +0.000 C 
BRANCH  25  26
ATOM     26  C   UNL     1       7.042  -5.271  23.853  0.00  0.00    +0.000 A 
ATOM     27  C   UNL     1       7.831  -6.145  22.621  0.00  0.00    +0.000 A 
ATOM     28  N   UNL     1       7.203  -5.743  21.486  0.00  0.00    +0.000 NA
ATOM     29  C   UNL     1       6.107  -5.245  21.020  0.00  0.00    +0.000 A 
ATOM     30  C   UNL     1       5.293  -4.317  22.009  0.00  0.00    +0.000 A 
ATOM     31  C   UNL     1       5.775  -4.752  23.413  0.00  0.00    +0.000 A 
BRANCH  31  32
ATOM     32  C   UNL     1       4.579  -5.309  24.050  0.00  0.00    +0.000 C 
ATOM     33  O   UNL     1       4.561  -5.628  25.206  0.00  0.00    +0.000 OA
ATOM     34  O   UNL     1       3.487  -4.874  23.407  0.00  0.00    +0.000 OA
ENDBRANCH  31  32
ENDBRANCH  25  26
ENDBRANCH   3  25
TORSDOF 9
ENDMDL
MODEL 9
REMARK VINA RESULT:      -6.2      2.541      6.401
REMARK  Name = 
REMARK  9 active torsions:
REMARK  status: ('A' for Active; 'I' for Inactive)
REMARK    1  A    between atoms: C_2  and  O_3
REMARK    2  A    between atoms: O_3  and  C_4
REMARK    3  A    between atoms: C_9  and  C_10
REMARK    4  A    between atoms: C_10  and  C_11
REMARK    5  A    between atoms: N_13  and  C_14
REMARK    6  A    between atoms: N_13  and  C_24
REMARK    7  A    between atoms: C_19  and  C_20
REMARK    8  A    between atoms: C_24  and  C_25
REMARK    9  A    between atoms: C_30  and  C_31
REMARK                            x       y       z     vdW  Elec       q    Type
REMARK                         _______ _______ _______ _____ _____    ______ ____
ROOT
ATOM      1  C   UNL     1       6.248   0.028  25.165  0.00  0.00    +0.000 C 
ATOM      2  O   UNL     1       5.107  -0.433  25.131  0.00  0.00    +0.000 OA
ATOM      3  N   UNL     1       6.649   0.870  24.213  0.00  0.00    +0.000 N 
ENDROOT
BRANCH   3   4
ATOM      4  C   UNL     1       6.345   2.161  24.559  0.00  0.00    +0.000 A 
ATOM      5  C   UNL     1       7.430   2.452  25.843  0.00  0.00    +0.000 A 
ATOM      6  C   UNL     1       8.259   3.635  25.424  0.00  0.00    +0.000 A 
ATOM      7  C   UNL     1       8.264   4.670  24.354  0.00  0.00    +0.000 A 
ATOM      8  C   UNL     1       7.320   4.299  23.216  0.00  0.00    +0.000 A 
ATOM      9  C   UNL     1       6.298   3.274  23.666  0.00  0.00    +0.000 A 
ATOM     10  C   UNL     1       7.092   5.091  22.079  0.00  0.00    +0.000 C 
BRANCH   9  11
ATOM     11  C   UNL     1       5.005   4.032  23.673  0.00  0.00    +0.000 C 
ATOM     12  O   UNL     1       4.767   4.758  24.614  0.00  0.00    +0.000 OA
ATOM     13  N   UNL     1       4.099   3.064  23.336  0.00  0.00    +0.000 NA
ENDBRANCH   9  11
ENDBRANCH   3   4
BRANCH   1  14
ATOM     14  C   UNL     1       7.368  -0.858  25.732  0.00  0.00    +0.000 C 
BRANCH  14  20
ATOM     15  C   UNL     1       7.502  -3.097  24.434  0.00  0.00    +0.000 A 
ATOM     16  C   UNL     1       8.256  -4.286  24.527  0.00  0.00    +0.000 A 
ATOM     17  C   UNL     1       8.080  -5.402  25.671  0.00  0.00    +0.000 A 
ATOM     18  C   UNL     1       7.546  -4.506  26.773  0.00  0.00    +0.000 A 
ATOM     19  C   UNL     1       6.974  -3.238  26.687  0.00  0.00    +0.000 A 
ATOM     20  C   UNL     1       7.059  -2.258  25.645  0.00  0.00    +0.000 A 
ATOM     21  F   UNL     1       6.839  -5.284  27.596  0.00  0.00    +0.000 F 
BRANCH  15  22
ATOM     22  O   UNL     1       6.568  -2.935  23.394  0.00  0.00    +0.000 OA
BRANCH  22  24
ATOM     23  C   UNL     1       4.543  -4.059  23.677  0.00  0.00    +0.000 C 
ATOM     24  C   UNL     1       5.896  -4.069  22.962  0.00  0.00    +0.000 C 
ENDBRANCH  22  24
ENDBRANCH  15  22
ENDBRANCH  14  20
ENDBRANCH   1  14
BRANCH   3  25
ATOM     25  C   UNL     1       6.795   0.469  22.869  0.00  0.00    +0.000 C 
BRANCH  25  26
ATOM     26  C   UNL     1       8.255   0.570  22.436  0.00  0.00    +0.000 A 
ATOM     27  C   UNL     1       8.365  -0.670  21.271  0.00  0.00    +0.000 A 
ATOM     28  N   UNL     1       9.315  -1.500  21.773  0.00  0.00    +0.000 NA
ATOM     29  C   UNL     1      10.336  -1.564  22.560  0.00  0.00    +0.000 A 
ATOM     30  C   UNL     1      10.344  -0.540  23.766  0.00  0.00    +0.000 A 
ATOM     31  C   UNL     1       9.404   0.597  23.299  0.00  0.00    +0.000 A 
BRANCH  31  32
ATOM     32  C   UNL     1      10.276   1.769  23.199  0.00  0.00    +0.000 C 
ATOM     33  O   UNL     1      11.142   1.990  23.999  0.00  0.00    +0.000 OA
ATOM     34  O   UNL     1      10.366   2.153  21.919  0.00  0.00    +0.000 OA
ENDBRANCH  31  32
ENDBRANCH  25  26
ENDBRANCH   3  25
TORSDOF 9
ENDMDL
