MODEL 1
REMARK VINA RESULT:      -6.9      0.000      0.000
REMARK  Name = 
REMARK  3 active torsions:
REMARK  status: ('A' for Active; 'I' for Inactive)
REMARK    1  A    between atoms: C_2  and  C_3
REMARK    2  A    between atoms: C_2  and  S_22
REMARK    3  A    between atoms: C_9  and  S_13
REMARK                            x       y       z     vdW  Elec       q    Type
REMARK                         _______ _______ _______ _____ _____    ______ ____
ROOT
ATOM      1  C   UNL     1       7.526  -1.309  23.302  0.00  0.00    +0.000 C 
ATOM      2  C   UNL     1       6.187  -1.937  23.612  0.00  0.00    +0.000 C 
ATOM      3  C   UNL     1       7.201  -0.329  22.154  0.00  0.00    +0.000 C 
ATOM      4  C   UNL     1       6.870   0.857  23.192  0.00  0.00    +0.000 C 
ATOM      5  C   UNL     1       8.243   1.000  23.977  0.00  0.00    +0.000 C 
ATOM      6  C   UNL     1       8.117  -0.409  24.251  0.00  0.00    +0.000 C 
ATOM      7  C   UNL     1       9.635  -0.591  24.855  0.00  0.00    +0.000 C 
ATOM      8  C   UNL     1       9.844   0.416  23.690  0.00  0.00    +0.000 C 
ATOM      9  C   UNL     1      10.735   1.492  24.046  0.00  0.00    +0.000 C 
ATOM     10  C   UNL     1       8.530   2.108  23.069  0.00  0.00    +0.000 C 
ATOM     11  C   UNL     1       8.737   1.667  21.696  0.00  0.00    +0.000 C 
ATOM     12  C   UNL     1       8.310   0.189  21.362  0.00  0.00    +0.000 C 
ATOM     13  C   UNL     1       7.783   0.331  19.885  0.00  0.00    +0.000 C 
ATOM     14  O   UNL     1       9.517  -0.446  21.280  0.00  0.00    +0.000 OA
ENDROOT
BRANCH   6  15
ATOM     15  S   UNL     1       7.209  -0.568  25.520  0.00  0.00    +0.000 S 
ATOM     16  O   UNL     1       8.198  -0.871  26.467  0.00  0.00    +0.000 OA
ATOM     17  O   UNL     1       6.082  -1.442  25.403  0.00  0.00    +0.000 OA
ATOM     18  N   UNL     1       6.565   0.935  25.793  0.00  0.00    +0.000 NA
ENDBRANCH   6  15
BRANCH   1  20
ATOM     19  O   UNL     1       9.072  -2.133  22.240  0.00  0.00    +0.000 OA
ATOM     20  C   UNL     1       8.486  -2.065  23.734  0.00  0.00    +0.000 C 
BRANCH  20  21
ATOM     21  S   UNL     1       8.646  -3.566  24.331  0.00  0.00    +0.000 S 
ATOM     22  O   UNL     1       7.885  -4.387  23.429  0.00  0.00    +0.000 OA
ATOM     23  O   UNL     1      10.096  -3.845  24.364  0.00  0.00    +0.000 OA
ATOM     24  N   UNL     1       8.164  -3.700  25.903  0.00  0.00    +0.000 NA
ENDBRANCH  20  21
ENDBRANCH   1  20
TORSDOF 3
ENDMDL
MODEL 2
REMARK VINA RESULT:      -6.9      1.791      3.589
REMARK  Name = 
REMARK  3 active torsions:
REMARK  status: ('A' for Active; 'I' for Inactive)
REMARK    1  A    between atoms: C_2  and  C_3
REMARK    2  A    between atoms: C_2  and  S_22
REMARK    3  A    between atoms: C_9  and  S_13
REMARK                            x       y       z     vdW  Elec       q    Type
REMARK                         _______ _______ _______ _____ _____    ______ ____
ROOT
ATOM      1  C   UNL     1       7.949  -0.498  24.435  0.00  0.00    +0.000 C 
ATOM      2  C   UNL     1       8.446  -1.220  25.665  0.00  0.00    +0.000 C 
ATOM      3  C   UNL     1       8.700   0.849  24.487  0.00  0.00    +0.000 C 
ATOM      4  C   UNL     1       9.938   0.250  23.649  0.00  0.00    +0.000 C 
ATOM      5  C   UNL     1       9.233  -0.202  22.299  0.00  0.00    +0.000 C 
ATOM      6  C   UNL     1       8.343  -0.965  23.136  0.00  0.00    +0.000 C 
ATOM      7  C   UNL     1       7.279  -1.338  21.941  0.00  0.00    +0.000 C 
ATOM      8  C   UNL     1       7.687   0.121  21.598  0.00  0.00    +0.000 C 
ATOM      9  C   UNL     1       7.916   0.313  20.187  0.00  0.00    +0.000 C 
ATOM     10  C   UNL     1       9.701   1.069  21.750  0.00  0.00    +0.000 C 
ATOM     11  C   UNL     1       9.034   2.217  22.349  0.00  0.00    +0.000 C 
ATOM     12  C   UNL     1       8.204   1.942  23.658  0.00  0.00    +0.000 C 
ATOM     13  C   UNL     1       8.438   3.270  24.473  0.00  0.00    +0.000 C 
ATOM     14  O   UNL     1       6.919   1.994  23.199  0.00  0.00    +0.000 OA
ENDROOT
BRANCH   6  15
ATOM     15  S   UNL     1       9.036  -2.340  23.438  0.00  0.00    +0.000 S 
ATOM     16  O   UNL     1       8.197  -3.180  22.693  0.00  0.00    +0.000 OA
ATOM     17  O   UNL     1       9.275  -2.656  24.812  0.00  0.00    +0.000 OA
ATOM     18  N   UNL     1      10.539  -2.238  22.748  0.00  0.00    +0.000 NA
ENDBRANCH   6  15
BRANCH   1  20
ATOM     19  O   UNL     1       6.129   0.430  24.270  0.00  0.00    +0.000 OA
ATOM     20  C   UNL     1       6.820  -1.003  24.045  0.00  0.00    +0.000 C 
BRANCH  20  21
ATOM     21  S   UNL     1       5.748  -2.092  24.592  0.00  0.00    +0.000 S 
ATOM     22  O   UNL     1       4.796  -1.309  25.331  0.00  0.00    +0.000 OA
ATOM     23  O   UNL     1       5.209  -2.776  23.398  0.00  0.00    +0.000 OA
ATOM     24  N   UNL     1       6.437  -3.298  25.482  0.00  0.00    +0.000 NA
ENDBRANCH  20  21
ENDBRANCH   1  20
TORSDOF 3
ENDMDL
MODEL 3
REMARK VINA RESULT:      -6.7      2.114      3.410
REMARK  Name = 
REMARK  3 active torsions:
REMARK  status: ('A' for Active; 'I' for Inactive)
REMARK    1  A    between atoms: C_2  and  C_3
REMARK    2  A    between atoms: C_2  and  S_22
REMARK    3  A    between atoms: C_9  and  S_13
REMARK                            x       y       z     vdW  Elec       q    Type
REMARK                         _______ _______ _______ _____ _____    ______ ____
ROOT
ATOM      1  C   UNL     1       9.269  -0.267  22.945  0.00  0.00    +0.000 C 
ATOM      2  C   UNL     1      10.042  -1.205  22.048  0.00  0.00    +0.000 C 
ATOM      3  C   UNL     1       9.814   1.123  22.557  0.00  0.00    +0.000 C 
ATOM      4  C   UNL     1       8.704   1.294  21.403  0.00  0.00    +0.000 C 
ATOM      5  C   UNL     1       7.352   1.185  22.228  0.00  0.00    +0.000 C 
ATOM      6  C   UNL     1       7.866  -0.070  22.714  0.00  0.00    +0.000 C 
ATOM      7  C   UNL     1       6.715  -0.278  23.869  0.00  0.00    +0.000 C 
ATOM      8  C   UNL     1       6.978   1.253  23.914  0.00  0.00    +0.000 C 
ATOM      9  C   UNL     1       5.761   2.018  24.026  0.00  0.00    +0.000 C 
ATOM     10  C   UNL     1       7.344   2.646  22.211  0.00  0.00    +0.000 C 
ATOM     11  C   UNL     1       8.418   3.221  23.008  0.00  0.00    +0.000 C 
ATOM     12  C   UNL     1       9.558   2.236  23.464  0.00  0.00    +0.000 C 
ATOM     13  C   UNL     1      10.829   3.165  23.410  0.00  0.00    +0.000 C 
ATOM     14  O   UNL     1       9.270   2.057  24.787  0.00  0.00    +0.000 OA
ENDROOT
BRANCH   6  15
ATOM     15  S   UNL     1       7.511  -1.172  21.656  0.00  0.00    +0.000 S 
ATOM     16  O   UNL     1       6.347  -1.683  22.248  0.00  0.00    +0.000 OA
ATOM     17  O   UNL     1       8.553  -2.084  21.298  0.00  0.00    +0.000 OA
ATOM     18  N   UNL     1       7.157  -0.348  20.263  0.00  0.00    +0.000 NA
ENDBRANCH   6  15
BRANCH   1  20
ATOM     19  O   UNL     1       9.723  -0.014  24.927  0.00  0.00    +0.000 OA
ATOM     20  C   UNL     1       8.798  -0.912  23.967  0.00  0.00    +0.000 C 
BRANCH  20  21
ATOM     21  S   UNL     1       8.880  -2.417  24.569  0.00  0.00    +0.000 S 
ATOM     22  O   UNL     1      10.107  -2.943  24.038  0.00  0.00    +0.000 OA
ATOM     23  O   UNL     1       8.841  -2.276  26.039  0.00  0.00    +0.000 OA
ATOM     24  N   UNL     1       7.560  -3.339  24.208  0.00  0.00    +0.000 NA
ENDBRANCH  20  21
ENDBRANCH   1  20
TORSDOF 3
ENDMDL
MODEL 4
REMARK VINA RESULT:      -6.7      2.566      4.930
REMARK  Name = 
REMARK  3 active torsions:
REMARK  status: ('A' for Active; 'I' for Inactive)
REMARK    1  A    between atoms: C_2  and  C_3
REMARK    2  A    between atoms: C_2  and  S_22
REMARK    3  A    between atoms: C_9  and  S_13
REMARK                            x       y       z     vdW  Elec       q    Type
REMARK                         _______ _______ _______ _____ _____    ______ ____
ROOT
ATOM      1  C   UNL     1       7.718  -2.562  22.775  0.00  0.00    +0.000 C 
ATOM      2  C   UNL     1       9.202  -2.332  22.614  0.00  0.00    +0.000 C 
ATOM      3  C   UNL     1       7.554  -4.062  22.453  0.00  0.00    +0.000 C 
ATOM      4  C   UNL     1       7.797  -4.472  23.991  0.00  0.00    +0.000 C 
ATOM      5  C   UNL     1       6.624  -3.696  24.729  0.00  0.00    +0.000 C 
ATOM      6  C   UNL     1       7.138  -2.513  24.088  0.00  0.00    +0.000 C 
ATOM      7  C   UNL     1       5.867  -1.550  24.486  0.00  0.00    +0.000 C 
ATOM      8  C   UNL     1       5.186  -2.912  24.177  0.00  0.00    +0.000 C 
ATOM      9  C   UNL     1       4.156  -3.242  25.131  0.00  0.00    +0.000 C 
ATOM     10  C   UNL     1       5.898  -4.964  24.686  0.00  0.00    +0.000 C 
ATOM     11  C   UNL     1       5.523  -5.349  23.333  0.00  0.00    +0.000 C 
ATOM     12  C   UNL     1       6.213  -4.556  22.161  0.00  0.00    +0.000 C 
ATOM     13  C   UNL     1       6.374  -5.675  21.064  0.00  0.00    +0.000 C 
ATOM     14  O   UNL     1       5.204  -3.741  21.733  0.00  0.00    +0.000 OA
ENDROOT
BRANCH   6  15
ATOM     15  S   UNL     1       8.300  -1.955  24.981  0.00  0.00    +0.000 S 
ATOM     16  O   UNL     1       7.700  -0.762  25.410  0.00  0.00    +0.000 OA
ATOM     17  O   UNL     1       9.599  -1.891  24.386  0.00  0.00    +0.000 OA
ATOM     18  N   UNL     1       8.449  -3.029  26.234  0.00  0.00    +0.000 NA
ENDBRANCH   6  15
BRANCH   1  20
ATOM     19  O   UNL     1       6.268  -2.037  21.426  0.00  0.00    +0.000 OA
ATOM     20  C   UNL     1       7.078  -1.438  22.678  0.00  0.00    +0.000 C 
BRANCH  20  21
ATOM     21  S   UNL     1       7.419   0.098  22.279  0.00  0.00    +0.000 S 
ATOM     22  O   UNL     1       7.204   0.149  20.859  0.00  0.00    +0.000 OA
ATOM     23  O   UNL     1       6.513   0.944  23.083  0.00  0.00    +0.000 OA
ATOM     24  N   UNL     1       8.934   0.571  22.731  0.00  0.00    +0.000 NA
ENDBRANCH  20  21
ENDBRANCH   1  20
TORSDOF 3
ENDMDL
MODEL 5
REMARK VINA RESULT:      -6.6      2.086      2.652
REMARK  Name = 
REMARK  3 active torsions:
REMARK  status: ('A' for Active; 'I' for Inactive)
REMARK    1  A    between atoms: C_2  and  C_3
REMARK    2  A    between atoms: C_2  and  S_22
REMARK    3  A    between atoms: C_9  and  S_13
REMARK                            x       y       z     vdW  Elec       q    Type
REMARK                         _______ _______ _______ _____ _____    ______ ____
ROOT
ATOM      1  C   UNL     1       7.994  -3.186  23.704  0.00  0.00    +0.000 C 
ATOM      2  C   UNL     1       7.284  -4.278  22.940  0.00  0.00    +0.000 C 
ATOM      3  C   UNL     1       8.073  -2.032  22.683  0.00  0.00    +0.000 C 
ATOM      4  C   UNL     1       6.647  -1.450  23.152  0.00  0.00    +0.000 C 
ATOM      5  C   UNL     1       6.903  -1.152  24.691  0.00  0.00    +0.000 C 
ATOM      6  C   UNL     1       7.316  -2.529  24.786  0.00  0.00    +0.000 C 
ATOM      7  C   UNL     1       7.930  -2.408  26.305  0.00  0.00    +0.000 C 
ATOM      8  C   UNL     1       8.329  -1.052  25.662  0.00  0.00    +0.000 C 
ATOM      9  C   UNL     1       8.130   0.063  26.556  0.00  0.00    +0.000 C 
ATOM     10  C   UNL     1       7.137   0.230  24.279  0.00  0.00    +0.000 C 
ATOM     11  C   UNL     1       8.352   0.381  23.491  0.00  0.00    +0.000 C 
ATOM     12  C   UNL     1       9.007  -0.944  22.950  0.00  0.00    +0.000 C 
ATOM     13  C   UNL     1       9.572  -0.479  21.554  0.00  0.00    +0.000 C 
ATOM     14  O   UNL     1      10.088  -1.086  23.773  0.00  0.00    +0.000 OA
ENDROOT
BRANCH   6  15
ATOM     15  S   UNL     1       6.027  -3.400  24.991  0.00  0.00    +0.000 S 
ATOM     16  O   UNL     1       6.110  -3.598  26.376  0.00  0.00    +0.000 OA
ATOM     17  O   UNL     1       5.877  -4.542  24.143  0.00  0.00    +0.000 OA
ATOM     18  N   UNL     1       4.758  -2.406  24.608  0.00  0.00    +0.000 NA
ENDBRANCH   6  15
BRANCH   1  20
ATOM     19  O   UNL     1      10.016  -3.160  24.036  0.00  0.00    +0.000 OA
ATOM     20  C   UNL     1       8.653  -3.692  24.700  0.00  0.00    +0.000 C 
BRANCH  20  21
ATOM     21  S   UNL     1       8.998  -5.171  25.274  0.00  0.00    +0.000 S 
ATOM     22  O   UNL     1       9.171  -5.974  24.095  0.00  0.00    +0.000 OA
ATOM     23  O   UNL     1      10.204  -5.017  26.112  0.00  0.00    +0.000 OA
ATOM     24  N   UNL     1       7.851  -5.757  26.304  0.00  0.00    +0.000 NA
ENDBRANCH  20  21
ENDBRANCH   1  20
TORSDOF 3
ENDMDL
MODEL 6
REMARK VINA RESULT:      -6.6      2.730      4.264
REMARK  Name = 
REMARK  3 active torsions:
REMARK  status: ('A' for Active; 'I' for Inactive)
REMARK    1  A    between atoms: C_2  and  C_3
REMARK    2  A    between atoms: C_2  and  S_22
REMARK    3  A    between atoms: C_9  and  S_13
REMARK                            x       y       z     vdW  Elec       q    Type
REMARK                         _______ _______ _______ _____ _____    ______ ____
ROOT
ATOM      1  C   UNL     1       6.848  -3.086  25.080  0.00  0.00    +0.000 C 
ATOM      2  C   UNL     1       6.546  -4.070  26.185  0.00  0.00    +0.000 C 
ATOM      3  C   UNL     1       7.404  -1.862  25.837  0.00  0.00    +0.000 C 
ATOM      4  C   UNL     1       8.908  -2.431  25.759  0.00  0.00    +0.000 C 
ATOM      5  C   UNL     1       9.134  -2.550  24.191  0.00  0.00    +0.000 C 
ATOM      6  C   UNL     1       7.936  -3.350  24.181  0.00  0.00    +0.000 C 
ATOM      7  C   UNL     1       7.778  -3.382  22.545  0.00  0.00    +0.000 C 
ATOM      8  C   UNL     1       8.284  -1.938  22.817  0.00  0.00    +0.000 C 
ATOM      9  C   UNL     1       9.291  -1.520  21.873  0.00  0.00    +0.000 C 
ATOM     10  C   UNL     1       9.812  -1.260  24.294  0.00  0.00    +0.000 C 
ATOM     11  C   UNL     1       8.900  -0.174  24.626  0.00  0.00    +0.000 C 
ATOM     12  C   UNL     1       7.467  -0.589  25.127  0.00  0.00    +0.000 C 
ATOM     13  C   UNL     1       7.157   0.535  26.187  0.00  0.00    +0.000 C 
ATOM     14  O   UNL     1       6.692  -0.314  24.037  0.00  0.00    +0.000 OA
ENDROOT
BRANCH   6  15
ATOM     15  S   UNL     1       8.346  -4.825  24.526  0.00  0.00    +0.000 S 
ATOM     16  O   UNL     1       8.128  -5.416  23.274  0.00  0.00    +0.000 OA
ATOM     17  O   UNL     1       7.733  -5.413  25.677  0.00  0.00    +0.000 OA
ATOM     18  N   UNL     1       9.963  -4.762  24.881  0.00  0.00    +0.000 NA
ENDBRANCH   6  15
BRANCH   1  20
ATOM     19  O   UNL     1       5.517  -1.919  24.050  0.00  0.00    +0.000 OA
ATOM     20  C   UNL     1       6.170  -3.386  24.016  0.00  0.00    +0.000 C 
BRANCH  20  21
ATOM     21  S   UNL     1       4.959  -4.391  23.617  0.00  0.00    +0.000 S 
ATOM     22  O   UNL     1       3.815  -3.850  24.297  0.00  0.00    +0.000 OA
ATOM     23  O   UNL     1       4.880  -4.375  22.142  0.00  0.00    +0.000 OA
ATOM     24  N   UNL     1       5.265  -5.967  23.997  0.00  0.00    +0.000 NA
ENDBRANCH  20  21
ENDBRANCH   1  20
TORSDOF 3
ENDMDL
MODEL 7
REMARK VINA RESULT:      -6.6      2.603      4.465
REMARK  Name = 
REMARK  3 active torsions:
REMARK  status: ('A' for Active; 'I' for Inactive)
REMARK    1  A    between atoms: C_2  and  C_3
REMARK    2  A    between atoms: C_2  and  S_22
REMARK    3  A    between atoms: C_9  and  S_13
REMARK                            x       y       z     vdW  Elec       q    Type
REMARK                         _______ _______ _______ _____ _____    ______ ____
ROOT
ATOM      1  C   UNL     1       8.847  -0.751  22.660  0.00  0.00    +0.000 C 
ATOM      2  C   UNL     1       9.978  -0.412  21.718  0.00  0.00    +0.000 C 
ATOM      3  C   UNL     1       9.513  -1.687  23.690  0.00  0.00    +0.000 C 
ATOM      4  C   UNL     1       9.936  -0.445  24.624  0.00  0.00    +0.000 C 
ATOM      5  C   UNL     1       8.528   0.211  24.957  0.00  0.00    +0.000 C 
ATOM      6  C   UNL     1       8.329   0.266  23.531  0.00  0.00    +0.000 C 
ATOM      7  C   UNL     1       6.739   0.676  23.607  0.00  0.00    +0.000 C 
ATOM      8  C   UNL     1       6.895  -0.327  24.784  0.00  0.00    +0.000 C 
ATOM      9  C   UNL     1       6.200   0.104  25.972  0.00  0.00    +0.000 C 
ATOM     10  C   UNL     1       8.595  -0.533  26.213  0.00  0.00    +0.000 C 
ATOM     11  C   UNL     1       8.487  -1.972  26.018  0.00  0.00    +0.000 C 
ATOM     12  C   UNL     1       8.647  -2.494  24.542  0.00  0.00    +0.000 C 
ATOM     13  C   UNL     1       9.384  -3.869  24.763  0.00  0.00    +0.000 C 
ATOM     14  O   UNL     1       7.359  -2.799  24.205  0.00  0.00    +0.000 OA
ENDROOT
BRANCH   6  15
ATOM     15  S   UNL     1       9.010   1.579  23.006  0.00  0.00    +0.000 S 
ATOM     16  O   UNL     1       7.872   2.390  22.893  0.00  0.00    +0.000 OA
ATOM     17  O   UNL     1       9.874   1.450  21.875  0.00  0.00    +0.000 OA
ATOM     18  N   UNL     1       9.986   2.094  24.242  0.00  0.00    +0.000 NA
ENDBRANCH   6  15
BRANCH   1  20
ATOM     19  O   UNL     1       7.380  -2.112  22.222  0.00  0.00    +0.000 OA
ATOM     20  C   UNL     1       7.705  -0.545  22.082  0.00  0.00    +0.000 C 
BRANCH  20  21
ATOM     21  S   UNL     1       7.173  -0.121  20.608  0.00  0.00    +0.000 S 
ATOM     22  O   UNL     1       8.350  -0.160  19.785  0.00  0.00    +0.000 OA
ATOM     23  O   UNL     1       6.123  -1.097  20.252  0.00  0.00    +0.000 OA
ATOM     24  N   UNL     1       6.404   1.339  20.585  0.00  0.00    +0.000 NA
ENDBRANCH  20  21
ENDBRANCH   1  20
TORSDOF 3
ENDMDL
MODEL 8
REMARK VINA RESULT:      -6.5      2.507      4.758
REMARK  Name = 
REMARK  3 active torsions:
REMARK  status: ('A' for Active; 'I' for Inactive)
REMARK    1  A    between atoms: C_2  and  C_3
REMARK    2  A    between atoms: C_2  and  S_22
REMARK    3  A    between atoms: C_9  and  S_13
REMARK                            x       y       z     vdW  Elec       q    Type
REMARK                         _______ _______ _______ _____ _____    ______ ____
ROOT
ATOM      1  C   UNL     1       8.612  -1.947  24.617  0.00  0.00    +0.000 C 
ATOM      2  C   UNL     1       8.913  -0.740  25.474  0.00  0.00    +0.000 C 
ATOM      3  C   UNL     1       8.188  -3.015  25.646  0.00  0.00    +0.000 C 
ATOM      4  C   UNL     1       6.646  -2.557  25.564  0.00  0.00    +0.000 C 
ATOM      5  C   UNL     1       6.319  -2.778  24.026  0.00  0.00    +0.000 C 
ATOM      6  C   UNL     1       7.457  -1.934  23.765  0.00  0.00    +0.000 C 
ATOM      7  C   UNL     1       7.514  -2.235  22.150  0.00  0.00    +0.000 C 
ATOM      8  C   UNL     1       7.125  -3.616  22.747  0.00  0.00    +0.000 C 
ATOM      9  C   UNL     1       6.093  -4.275  21.984  0.00  0.00    +0.000 C 
ATOM     10  C   UNL     1       5.738  -4.054  24.438  0.00  0.00    +0.000 C 
ATOM     11  C   UNL     1       6.739  -4.996  24.918  0.00  0.00    +0.000 C 
ATOM     12  C   UNL     1       8.168  -4.409  25.217  0.00  0.00    +0.000 C 
ATOM     13  C   UNL     1       8.618  -5.270  26.458  0.00  0.00    +0.000 C 
ATOM     14  O   UNL     1       8.894  -4.863  24.153  0.00  0.00    +0.000 OA
ENDROOT
BRANCH   6  15
ATOM     15  S   UNL     1       6.970  -0.444  23.832  0.00  0.00    +0.000 S 
ATOM     16  O   UNL     1       6.717  -0.231  22.469  0.00  0.00    +0.000 OA
ATOM     17  O   UNL     1       7.812   0.480  24.525  0.00  0.00    +0.000 OA
ATOM     18  N   UNL     1       5.559  -0.480  24.700  0.00  0.00    +0.000 NA
ENDBRANCH   6  15
BRANCH   1  20
ATOM     19  O   UNL     1      10.079  -3.138  23.824  0.00  0.00    +0.000 OA
ATOM     20  C   UNL     1       9.203  -1.839  23.468  0.00  0.00    +0.000 C 
BRANCH  20  21
ATOM     21  S   UNL     1      10.230  -0.809  22.747  0.00  0.00    +0.000 S 
ATOM     22  O   UNL     1      10.830  -0.089  23.836  0.00  0.00    +0.000 OA
ATOM     23  O   UNL     1      11.159  -1.640  21.954  0.00  0.00    +0.000 OA
ATOM     24  N   UNL     1       9.501   0.170  21.636  0.00  0.00    +0.000 NA
ENDBRANCH  20  21
ENDBRANCH   1  20
TORSDOF 3
ENDMDL
