MODEL 1
REMARK VINA RESULT:      -6.1      0.000      0.000
REMARK  Name = 
REMARK  3 active torsions:
REMARK  status: ('A' for Active; 'I' for Inactive)
REMARK    1  A    between atoms: C_2  and  C_4
REMARK    2  A    between atoms: C_4  and  C_5
REMARK    3  A    between atoms: C_13  and  C_17
REMARK                            x       y       z     vdW  Elec       q    Type
REMARK                         _______ _______ _______ _____ _____    ______ ____
ROOT
ATOM      1  C   UNL     1       8.217   0.075  22.845  0.00  0.00    +0.000 C 
ATOM      2  C   UNL     1       6.848   0.677  23.201  0.00  0.00    +0.000 C 
ATOM      3  C   UNL     1       9.214   1.220  23.093  0.00  0.00    +0.000 C 
ATOM      4  C   UNL     1      10.175   1.493  22.052  0.00  0.00    +0.000 C 
ATOM      5  O   UNL     1       8.611   2.261  23.678  0.00  0.00    +0.000 OA
ATOM      6  C   UNL     1       8.352   2.084  25.034  0.00  0.00    +0.000 C 
ATOM      7  C   UNL     1       7.929   0.656  25.282  0.00  0.00    +0.000 C 
ATOM      8  C   UNL     1       9.231  -0.188  25.022  0.00  0.00    +0.000 C 
ATOM      9  C   UNL     1       8.872  -0.941  23.551  0.00  0.00    +0.000 C 
ATOM     10  C   UNL     1       8.043  -2.014  24.390  0.00  0.00    +0.000 C 
ATOM     11  C   UNL     1       9.034  -1.498  25.631  0.00  0.00    +0.000 C 
ATOM     12  C   UNL     1       7.950  -1.364  26.759  0.00  0.00    +0.000 C 
ATOM     13  C   UNL     1      10.200   0.641  24.385  0.00  0.00    +0.000 C 
ENDROOT
BRANCH   9  14
ATOM     14  C   UNL     1      10.044  -1.626  23.087  0.00  0.00    +0.000 C 
ATOM     15  O   UNL     1      10.247  -1.556  21.905  0.00  0.00    +0.000 OA
ATOM     16  O   UNL     1      10.116  -2.820  23.743  0.00  0.00    +0.000 OA
ENDBRANCH   9  14
BRANCH   1  17
ATOM     17  C   UNL     1       7.526  -1.093  22.186  0.00  0.00    +0.000 C 
BRANCH  17  19
ATOM     18  O   UNL     1       6.126  -1.704  20.686  0.00  0.00    +0.000 OA
ATOM     19  C   UNL     1       7.100  -0.828  20.928  0.00  0.00    +0.000 C 
ATOM     20  O   UNL     1       7.698  -0.243  20.081  0.00  0.00    +0.000 OA
ENDBRANCH  17  19
ENDBRANCH   1  17
TORSDOF 3
ENDMDL
MODEL 2
REMARK VINA RESULT:      -5.9      1.537      3.823
REMARK  Name = 
REMARK  3 active torsions:
REMARK  status: ('A' for Active; 'I' for Inactive)
REMARK    1  A    between atoms: C_2  and  C_4
REMARK    2  A    between atoms: C_4  and  C_5
REMARK    3  A    between atoms: C_13  and  C_17
REMARK                            x       y       z     vdW  Elec       q    Type
REMARK                         _______ _______ _______ _____ _____    ______ ____
ROOT
ATOM      1  C   UNL     1       8.185  -0.020  22.173  0.00  0.00    +0.000 C 
ATOM      2  C   UNL     1       9.414  -0.793  21.667  0.00  0.00    +0.000 C 
ATOM      3  C   UNL     1       7.842  -0.684  23.517  0.00  0.00    +0.000 C 
ATOM      4  C   UNL     1       6.464  -1.050  23.739  0.00  0.00    +0.000 C 
ATOM      5  O   UNL     1       8.788  -1.561  23.873  0.00  0.00    +0.000 OA
ATOM      6  C   UNL     1       9.952  -0.979  24.365  0.00  0.00    +0.000 C 
ATOM      7  C   UNL     1      10.260   0.273  23.577  0.00  0.00    +0.000 C 
ATOM      8  C   UNL     1       9.120   1.279  23.983  0.00  0.00    +0.000 C 
ATOM      9  C   UNL     1       8.173   1.320  22.583  0.00  0.00    +0.000 C 
ATOM     10  C   UNL     1       9.227   2.361  21.992  0.00  0.00    +0.000 C 
ATOM     11  C   UNL     1       9.562   2.617  23.607  0.00  0.00    +0.000 C 
ATOM     12  C   UNL     1      11.130   2.619  23.527  0.00  0.00    +0.000 C 
ATOM     13  C   UNL     1       8.100   0.567  24.678  0.00  0.00    +0.000 C 
ENDROOT
BRANCH   9  14
ATOM     14  C   UNL     1       6.984   2.075  22.853  0.00  0.00    +0.000 C 
ATOM     15  O   UNL     1       5.977   1.643  22.361  0.00  0.00    +0.000 OA
ATOM     16  O   UNL     1       7.301   3.398  22.759  0.00  0.00    +0.000 OA
ENDBRANCH   9  14
BRANCH   1  17
ATOM     17  C   UNL     1       8.017   0.598  20.807  0.00  0.00    +0.000 C 
BRANCH  17  19
ATOM     18  O   UNL     1       7.744   0.207  18.720  0.00  0.00    +0.000 OA
ATOM     19  C   UNL     1       7.366  -0.202  19.930  0.00  0.00    +0.000 C 
ATOM     20  O   UNL     1       6.384  -0.843  20.142  0.00  0.00    +0.000 OA
ENDBRANCH  17  19
ENDBRANCH   1  17
TORSDOF 3
ENDMDL
MODEL 3
REMARK VINA RESULT:      -5.9      1.999      4.385
REMARK  Name = 
REMARK  3 active torsions:
REMARK  status: ('A' for Active; 'I' for Inactive)
REMARK    1  A    between atoms: C_2  and  C_4
REMARK    2  A    between atoms: C_4  and  C_5
REMARK    3  A    between atoms: C_13  and  C_17
REMARK                            x       y       z     vdW  Elec       q    Type
REMARK                         _______ _______ _______ _____ _____    ______ ____
ROOT
ATOM      1  C   UNL     1       8.124   0.042  23.722  0.00  0.00    +0.000 C 
ATOM      2  C   UNL     1       7.718  -1.433  23.569  0.00  0.00    +0.000 C 
ATOM      3  C   UNL     1       9.659   0.010  23.802  0.00  0.00    +0.000 C 
ATOM      4  C   UNL     1      10.279   0.762  24.866  0.00  0.00    +0.000 C 
ATOM      5  O   UNL     1      10.126  -1.218  23.549  0.00  0.00    +0.000 OA
ATOM      6  C   UNL     1      10.109  -1.570  22.202  0.00  0.00    +0.000 C 
ATOM      7  C   UNL     1       8.855  -1.028  21.558  0.00  0.00    +0.000 C 
ATOM      8  C   UNL     1       9.062   0.532  21.549  0.00  0.00    +0.000 C 
ATOM      9  C   UNL     1       7.978   1.036  22.745  0.00  0.00    +0.000 C 
ATOM     10  C   UNL     1       6.831   0.930  21.642  0.00  0.00    +0.000 C 
ATOM     11  C   UNL     1       8.118   1.094  20.591  0.00  0.00    +0.000 C 
ATOM     12  C   UNL     1       7.727  -0.025  19.562  0.00  0.00    +0.000 C 
ATOM     13  C   UNL     1      10.169   0.856  22.386  0.00  0.00    +0.000 C 
ENDROOT
BRANCH   9  14
ATOM     14  C   UNL     1       8.170   2.437  22.979  0.00  0.00    +0.000 C 
ATOM     15  O   UNL     1       8.125   2.779  24.130  0.00  0.00    +0.000 OA
ATOM     16  O   UNL     1       7.484   3.118  22.016  0.00  0.00    +0.000 OA
ENDBRANCH   9  14
BRANCH   1  17
ATOM     17  C   UNL     1       6.689   0.400  24.024  0.00  0.00    +0.000 C 
BRANCH  17  19
ATOM     18  O   UNL     1       5.012  -0.041  25.277  0.00  0.00    +0.000 OA
ATOM     19  C   UNL     1       6.330   0.147  25.305  0.00  0.00    +0.000 C 
ATOM     20  O   UNL     1       6.945   0.424  26.286  0.00  0.00    +0.000 OA
ENDBRANCH  17  19
ENDBRANCH   1  17
TORSDOF 3
ENDMDL
MODEL 4
REMARK VINA RESULT:      -5.9      1.895      4.321
REMARK  Name = 
REMARK  3 active torsions:
REMARK  status: ('A' for Active; 'I' for Inactive)
REMARK    1  A    between atoms: C_2  and  C_4
REMARK    2  A    between atoms: C_4  and  C_5
REMARK    3  A    between atoms: C_13  and  C_17
REMARK                            x       y       z     vdW  Elec       q    Type
REMARK                         _______ _______ _______ _____ _____    ______ ____
ROOT
ATOM      1  C   UNL     1       8.477  -0.214  23.941  0.00  0.00    +0.000 C 
ATOM      2  C   UNL     1       6.963  -0.478  23.958  0.00  0.00    +0.000 C 
ATOM      3  C   UNL     1       8.984  -0.973  22.704  0.00  0.00    +0.000 C 
ATOM      4  C   UNL     1      10.139  -1.820  22.877  0.00  0.00    +0.000 C 
ATOM      5  O   UNL     1       7.962  -1.448  21.982  0.00  0.00    +0.000 OA
ATOM      6  C   UNL     1       7.302  -0.486  21.222  0.00  0.00    +0.000 C 
ATOM      7  C   UNL     1       7.214   0.800  22.008  0.00  0.00    +0.000 C 
ATOM      8  C   UNL     1       8.699   1.315  22.084  0.00  0.00    +0.000 C 
ATOM      9  C   UNL     1       9.089   1.023  23.703  0.00  0.00    +0.000 C 
ATOM     10  C   UNL     1       8.334   2.385  24.051  0.00  0.00    +0.000 C 
ATOM     11  C   UNL     1       8.655   2.726  22.448  0.00  0.00    +0.000 C 
ATOM     12  C   UNL     1       7.252   3.302  22.043  0.00  0.00    +0.000 C 
ATOM     13  C   UNL     1       9.573   0.271  21.663  0.00  0.00    +0.000 C 
ENDROOT
BRANCH   9  14
ATOM     14  C   UNL     1      10.485   1.288  23.894  0.00  0.00    +0.000 C 
ATOM     15  O   UNL     1      11.034   0.595  24.708  0.00  0.00    +0.000 OA
ATOM     16  O   UNL     1      10.657   2.642  23.894  0.00  0.00    +0.000 OA
ENDBRANCH   9  14
BRANCH   1  17
ATOM     17  C   UNL     1       8.396   0.316  25.352  0.00  0.00    +0.000 C 
BRANCH  17  19
ATOM     18  O   UNL     1       7.760  -0.066  27.359  0.00  0.00    +0.000 OA
ATOM     19  C   UNL     1       8.286  -0.657  26.287  0.00  0.00    +0.000 C 
ATOM     20  O   UNL     1       8.879  -1.689  26.316  0.00  0.00    +0.000 OA
ENDBRANCH  17  19
ENDBRANCH   1  17
TORSDOF 3
ENDMDL
MODEL 5
REMARK VINA RESULT:      -5.8      1.853      4.230
REMARK  Name = 
REMARK  3 active torsions:
REMARK  status: ('A' for Active; 'I' for Inactive)
REMARK    1  A    between atoms: C_2  and  C_4
REMARK    2  A    between atoms: C_4  and  C_5
REMARK    3  A    between atoms: C_13  and  C_17
REMARK                            x       y       z     vdW  Elec       q    Type
REMARK                         _______ _______ _______ _____ _____    ______ ____
ROOT
ATOM      1  C   UNL     1       9.009   1.711  22.898  0.00  0.00    +0.000 C 
ATOM      2  C   UNL     1      10.082   1.596  21.802  0.00  0.00    +0.000 C 
ATOM      3  C   UNL     1       7.682   1.468  22.161  0.00  0.00    +0.000 C 
ATOM      4  C   UNL     1       6.611   2.404  22.405  0.00  0.00    +0.000 C 
ATOM      5  O   UNL     1       7.899   1.079  20.900  0.00  0.00    +0.000 OA
ATOM      6  C   UNL     1       8.307  -0.245  20.771  0.00  0.00    +0.000 C 
ATOM      7  C   UNL     1       9.246  -0.593  21.901  0.00  0.00    +0.000 C 
ATOM      8  C   UNL     1       8.333  -0.591  23.182  0.00  0.00    +0.000 C 
ATOM      9  C   UNL     1       8.832   0.822  23.966  0.00  0.00    +0.000 C 
ATOM     10  C   UNL     1      10.061  -0.020  24.537  0.00  0.00    +0.000 C 
ATOM     11  C   UNL     1       9.047  -1.310  24.231  0.00  0.00    +0.000 C 
ATOM     12  C   UNL     1      10.086  -2.273  23.554  0.00  0.00    +0.000 C 
ATOM     13  C   UNL     1       7.081   0.006  22.857  0.00  0.00    +0.000 C 
ENDROOT
BRANCH   9  14
ATOM     14  C   UNL     1       7.966   1.059  25.084  0.00  0.00    +0.000 C 
ATOM     15  O   UNL     1       7.702   2.212  25.296  0.00  0.00    +0.000 OA
ATOM     16  O   UNL     1       8.353   0.229  26.094  0.00  0.00    +0.000 OA
ENDBRANCH   9  14
BRANCH   1  17
ATOM     17  C   UNL     1      10.031   2.320  23.827  0.00  0.00    +0.000 C 
BRANCH  17  19
ATOM     18  O   UNL     1      11.608   3.743  23.568  0.00  0.00    +0.000 OA
ATOM     19  C   UNL     1      10.282   3.625  23.571  0.00  0.00    +0.000 C 
ATOM     20  O   UNL     1       9.530   4.538  23.718  0.00  0.00    +0.000 OA
ENDBRANCH  17  19
ENDBRANCH   1  17
TORSDOF 3
ENDMDL
MODEL 6
REMARK VINA RESULT:      -5.8      1.885      3.477
REMARK  Name = 
REMARK  3 active torsions:
REMARK  status: ('A' for Active; 'I' for Inactive)
REMARK    1  A    between atoms: C_2  and  C_4
REMARK    2  A    between atoms: C_4  and  C_5
REMARK    3  A    between atoms: C_13  and  C_17
REMARK                            x       y       z     vdW  Elec       q    Type
REMARK                         _______ _______ _______ _____ _____    ______ ____
ROOT
ATOM      1  C   UNL     1       7.871   1.241  23.686  0.00  0.00    +0.000 C 
ATOM      2  C   UNL     1       8.359   0.854  25.092  0.00  0.00    +0.000 C 
ATOM      3  C   UNL     1       8.745   2.444  23.296  0.00  0.00    +0.000 C 
ATOM      4  C   UNL     1       8.070   3.605  22.766  0.00  0.00    +0.000 C 
ATOM      5  O   UNL     1       9.717   2.642  24.194  0.00  0.00    +0.000 OA
ATOM      6  C   UNL     1      10.774   1.741  24.100  0.00  0.00    +0.000 C 
ATOM      7  C   UNL     1      10.236   0.368  23.773  0.00  0.00    +0.000 C 
ATOM      8  C   UNL     1       9.703   0.498  22.298  0.00  0.00    +0.000 C 
ATOM      9  C   UNL     1       8.028   0.472  22.526  0.00  0.00    +0.000 C 
ATOM     10  C   UNL     1       8.142  -1.117  22.611  0.00  0.00    +0.000 C 
ATOM     11  C   UNL     1       9.556  -0.850  21.764  0.00  0.00    +0.000 C 
ATOM     12  C   UNL     1      10.500  -1.811  22.571  0.00  0.00    +0.000 C 
ATOM     13  C   UNL     1       9.655   1.878  21.944  0.00  0.00    +0.000 C 
ENDROOT
BRANCH   9  14
ATOM     14  C   UNL     1       7.389   0.754  21.274  0.00  0.00    +0.000 C 
ATOM     15  O   UNL     1       6.501   1.562  21.319  0.00  0.00    +0.000 OA
ATOM     16  O   UNL     1       7.231  -0.428  20.611  0.00  0.00    +0.000 OA
ENDBRANCH   9  14
BRANCH   1  17
ATOM     17  C   UNL     1       6.658   0.362  23.871  0.00  0.00    +0.000 C 
BRANCH  17  19
ATOM     18  O   UNL     1       5.064  -0.033  25.243  0.00  0.00    +0.000 OA
ATOM     19  C   UNL     1       5.669   0.953  24.582  0.00  0.00    +0.000 C 
ATOM     20  O   UNL     1       5.176   2.017  24.372  0.00  0.00    +0.000 OA
ENDBRANCH  17  19
ENDBRANCH   1  17
TORSDOF 3
ENDMDL
MODEL 7
REMARK VINA RESULT:      -5.8      1.858      3.091
REMARK  Name = 
REMARK  3 active torsions:
REMARK  status: ('A' for Active; 'I' for Inactive)
REMARK    1  A    between atoms: C_2  and  C_4
REMARK    2  A    between atoms: C_4  and  C_5
REMARK    3  A    between atoms: C_13  and  C_17
REMARK                            x       y       z     vdW  Elec       q    Type
REMARK                         _______ _______ _______ _____ _____    ______ ____
ROOT
ATOM      1  C   UNL     1       7.273  -0.519  23.148  0.00  0.00    +0.000 C 
ATOM      2  C   UNL     1       6.687   0.699  23.882  0.00  0.00    +0.000 C 
ATOM      3  C   UNL     1       7.249  -0.120  21.664  0.00  0.00    +0.000 C 
ATOM      4  C   UNL     1       6.698  -1.075  20.733  0.00  0.00    +0.000 C 
ATOM      5  O   UNL     1       6.904   1.165  21.519  0.00  0.00    +0.000 OA
ATOM      6  C   UNL     1       7.917   2.067  21.829  0.00  0.00    +0.000 C 
ATOM      7  C   UNL     1       8.691   1.563  23.024  0.00  0.00    +0.000 C 
ATOM      8  C   UNL     1       9.451   0.293  22.490  0.00  0.00    +0.000 C 
ATOM      9  C   UNL     1       8.599  -0.964  23.233  0.00  0.00    +0.000 C 
ATOM     10  C   UNL     1       9.471  -0.682  24.538  0.00  0.00    +0.000 C 
ATOM     11  C   UNL     1      10.523  -0.005  23.432  0.00  0.00    +0.000 C 
ATOM     12  C   UNL     1      10.877   1.310  24.215  0.00  0.00    +0.000 C 
ATOM     13  C   UNL     1       8.916  -0.066  21.219  0.00  0.00    +0.000 C 
ENDROOT
BRANCH   9  14
ATOM     14  C   UNL     1       9.071  -2.212  22.708  0.00  0.00    +0.000 C 
ATOM     15  O   UNL     1       8.216  -3.007  22.423  0.00  0.00    +0.000 OA
ATOM     16  O   UNL     1      10.162  -2.585  23.436  0.00  0.00    +0.000 OA
ENDBRANCH   9  14
BRANCH   1  17
ATOM     17  C   UNL     1       7.121  -1.342  24.404  0.00  0.00    +0.000 C 
BRANCH  17  19
ATOM     18  O   UNL     1       5.665  -1.863  25.884  0.00  0.00    +0.000 OA
ATOM     19  C   UNL     1       5.876  -1.848  24.569  0.00  0.00    +0.000 C 
ATOM     20  O   UNL     1       5.264  -2.505  23.787  0.00  0.00    +0.000 OA
ENDBRANCH  17  19
ENDBRANCH   1  17
TORSDOF 3
ENDMDL
MODEL 8
REMARK VINA RESULT:      -5.7      3.000      4.568
REMARK  Name = 
REMARK  3 active torsions:
REMARK  status: ('A' for Active; 'I' for Inactive)
REMARK    1  A    between atoms: C_2  and  C_4
REMARK    2  A    between atoms: C_4  and  C_5
REMARK    3  A    between atoms: C_13  and  C_17
REMARK                            x       y       z     vdW  Elec       q    Type
REMARK                         _______ _______ _______ _____ _____    ______ ____
ROOT
ATOM      1  C   UNL     1       7.689  -3.851  23.560  0.00  0.00    +0.000 C 
ATOM      2  C   UNL     1       8.149  -2.987  22.374  0.00  0.00    +0.000 C 
ATOM      3  C   UNL     1       8.911  -3.902  24.492  0.00  0.00    +0.000 C 
ATOM      4  C   UNL     1       9.309  -5.198  24.987  0.00  0.00    +0.000 C 
ATOM      5  O   UNL     1       9.872  -3.072  24.068  0.00  0.00    +0.000 OA
ATOM      6  C   UNL     1       9.624  -1.728  24.333  0.00  0.00    +0.000 C 
ATOM      7  C   UNL     1       8.156  -1.440  24.136  0.00  0.00    +0.000 C 
ATOM      8  C   UNL     1       7.445  -2.205  25.312  0.00  0.00    +0.000 C 
ATOM      9  C   UNL     1       6.713  -3.496  24.500  0.00  0.00    +0.000 C 
ATOM     10  C   UNL     1       5.540  -2.487  24.113  0.00  0.00    +0.000 C 
ATOM     11  C   UNL     1       6.102  -1.654  25.447  0.00  0.00    +0.000 C 
ATOM     12  C   UNL     1       6.096  -0.205  24.840  0.00  0.00    +0.000 C 
ATOM     13  C   UNL     1       8.381  -3.091  25.920  0.00  0.00    +0.000 C 
ENDROOT
BRANCH   9  14
ATOM     14  C   UNL     1       6.156  -4.393  25.470  0.00  0.00    +0.000 C 
ATOM     15  O   UNL     1       6.331  -5.562  25.250  0.00  0.00    +0.000 OA
ATOM     16  O   UNL     1       4.925  -3.920  25.817  0.00  0.00    +0.000 OA
ENDBRANCH   9  14
BRANCH   1  17
ATOM     17  C   UNL     1       6.486  -4.293  22.765  0.00  0.00    +0.000 C 
BRANCH  17  19
ATOM     18  O   UNL     1       5.901  -5.075  20.860  0.00  0.00    +0.000 OA
ATOM     19  C   UNL     1       6.765  -5.258  21.857  0.00  0.00    +0.000 C 
ATOM     20  O   UNL     1       7.350  -6.276  22.055  0.00  0.00    +0.000 OA
ENDBRANCH  17  19
ENDBRANCH   1  17
TORSDOF 3
ENDMDL
MODEL 9
REMARK VINA RESULT:      -5.6      2.279      3.275
REMARK  Name = 
REMARK  3 active torsions:
REMARK  status: ('A' for Active; 'I' for Inactive)
REMARK    1  A    between atoms: C_2  and  C_4
REMARK    2  A    between atoms: C_4  and  C_5
REMARK    3  A    between atoms: C_13  and  C_17
REMARK                            x       y       z     vdW  Elec       q    Type
REMARK                         _______ _______ _______ _____ _____    ______ ____
ROOT
ATOM      1  C   UNL     1       6.928  -2.426  24.244  0.00  0.00    +0.000 C 
ATOM      2  C   UNL     1       5.431  -2.691  24.472  0.00  0.00    +0.000 C 
ATOM      3  C   UNL     1       7.233  -1.191  25.107  0.00  0.00    +0.000 C 
ATOM      4  C   UNL     1       7.966  -0.115  24.482  0.00  0.00    +0.000 C 
ATOM      5  O   UNL     1       6.184  -0.871  25.873  0.00  0.00    +0.000 OA
ATOM      6  C   UNL     1       6.009  -1.699  26.978  0.00  0.00    +0.000 C 
ATOM      7  C   UNL     1       6.331  -3.124  26.594  0.00  0.00    +0.000 C 
ATOM      8  C   UNL     1       7.886  -3.122  26.351  0.00  0.00    +0.000 C 
ATOM      9  C   UNL     1       7.978  -3.252  24.667  0.00  0.00    +0.000 C 
ATOM     10  C   UNL     1       7.756  -4.821  24.853  0.00  0.00    +0.000 C 
ATOM     11  C   UNL     1       8.337  -4.508  26.387  0.00  0.00    +0.000 C 
ATOM     12  C   UNL     1       7.297  -5.348  27.210  0.00  0.00    +0.000 C 
ATOM     13  C   UNL     1       8.343  -1.773  26.293  0.00  0.00    +0.000 C 
ENDROOT
BRANCH   9  14
ATOM     14  C   UNL     1       9.346  -3.093  24.268  0.00  0.00    +0.000 C 
ATOM     15  O   UNL     1       9.518  -2.480  23.249  0.00  0.00    +0.000 OA
ATOM     16  O   UNL     1       9.986  -4.277  24.493  0.00  0.00    +0.000 OA
ENDBRANCH   9  14
BRANCH   1  17
ATOM     17  C   UNL     1       6.912  -3.375  23.071  0.00  0.00    +0.000 C 
BRANCH  17  19
ATOM     18  O   UNL     1       5.773  -3.863  21.326  0.00  0.00    +0.000 OA
ATOM     19  C   UNL     1       6.356  -2.844  21.957  0.00  0.00    +0.000 C 
ATOM     20  O   UNL     1       6.647  -1.814  21.435  0.00  0.00    +0.000 OA
ENDBRANCH  17  19
ENDBRANCH   1  17
TORSDOF 3
ENDMDL
