MODEL 1
REMARK VINA RESULT:      -6.4      0.000      0.000
REMARK  Name = 
REMARK  4 active torsions:
REMARK  status: ('A' for Active; 'I' for Inactive)
REMARK    1  A    between atoms: C_2  and  C_3
REMARK    2  A    between atoms: C_7  and  C_16
REMARK    3  A    between atoms: C_9  and  C_10
REMARK    4  A    between atoms: C_10  and  C_11
REMARK                            x       y       z     vdW  Elec       q    Type
REMARK                         _______ _______ _______ _____ _____    ______ ____
ROOT
ATOM      1  C   UNL     1       9.882   0.449  22.593  0.00  0.00    +0.000 A 
ATOM      2  C   UNL     1      10.118  -1.116  22.653  0.00  0.00    +0.000 A 
ATOM      3  O   UNL     1      10.838  -1.989  22.328  0.00  0.00    +0.000 OA
ATOM      4  N   UNL     1       8.996  -1.593  23.371  0.00  0.00    +0.000 NA
ATOM      5  C   UNL     1       7.677  -1.500  23.028  0.00  0.00    +0.000 A 
ATOM      6  C   UNL     1       7.154  -0.173  22.728  0.00  0.00    +0.000 A 
ATOM      7  C   UNL     1       8.436   0.751  22.460  0.00  0.00    +0.000 A 
ENDROOT
BRANCH   5   8
ATOM      8  C   UNL     1       7.347  -2.744  22.324  0.00  0.00    +0.000 C 
ATOM      9  C   UNL     1       5.890  -2.782  21.838  0.00  0.00    +0.000 C 
ATOM     10  C   UNL     1       5.150  -3.691  22.839  0.00  0.00    +0.000 C 
ATOM     11  C   UNL     1       5.993  -4.807  23.313  0.00  0.00    +0.000 C 
ATOM     12  S   UNL     1       7.463  -3.981  23.404  0.00  0.00    +0.000 S 
ENDBRANCH   5   8
BRANCH   1  14
ATOM     13  N   UNL     1       9.666   1.759  24.600  0.00  0.00    +0.000 NA
ATOM     14  C   UNL     1      10.611   0.856  23.996  0.00  0.00    +0.000 C 
ENDBRANCH   1  14
BRANCH   7  15
ATOM     15  C   UNL     1       8.072   1.775  21.343  0.00  0.00    +0.000 C 
BRANCH  15  16
ATOM     16  C   UNL     1       6.812   0.931  20.795  0.00  0.00    +0.000 A 
ATOM     17  C   UNL     1       5.680   1.704  20.358  0.00  0.00    +0.000 A 
ATOM     18  C   UNL     1       5.184   1.389  19.008  0.00  0.00    +0.000 A 
ATOM     19  C   UNL     1       6.185   0.748  18.200  0.00  0.00    +0.000 A 
ATOM     20  S   UNL     1       7.453   0.164  19.303  0.00  0.00    +0.000 S 
ENDBRANCH  15  16
ENDBRANCH   7  15
TORSDOF 4
ENDMDL
MODEL 2
REMARK VINA RESULT:      -6.2      2.859      5.231
REMARK  Name = 
REMARK  4 active torsions:
REMARK  status: ('A' for Active; 'I' for Inactive)
REMARK    1  A    between atoms: C_2  and  C_3
REMARK    2  A    between atoms: C_7  and  C_16
REMARK    3  A    between atoms: C_9  and  C_10
REMARK    4  A    between atoms: C_10  and  C_11
REMARK                            x       y       z     vdW  Elec       q    Type
REMARK                         _______ _______ _______ _____ _____    ______ ____
ROOT
ATOM      1  C   UNL     1       9.384   2.484  23.998  0.00  0.00    +0.000 A 
ATOM      2  C   UNL     1       7.908   2.759  23.493  0.00  0.00    +0.000 A 
ATOM      3  O   UNL     1       6.816   3.038  23.832  0.00  0.00    +0.000 OA
ATOM      4  N   UNL     1       7.997   2.570  22.093  0.00  0.00    +0.000 NA
ATOM      5  C   UNL     1       8.338   1.431  21.419  0.00  0.00    +0.000 A 
ATOM      6  C   UNL     1       9.603   0.798  21.772  0.00  0.00    +0.000 A 
ATOM      7  C   UNL     1      10.015   1.408  23.196  0.00  0.00    +0.000 A 
ENDROOT
BRANCH   5   8
ATOM      8  C   UNL     1       7.080   0.745  21.106  0.00  0.00    +0.000 C 
ATOM      9  C   UNL     1       7.243  -0.322  20.013  0.00  0.00    +0.000 C 
ATOM     10  C   UNL     1       6.681   0.320  18.729  0.00  0.00    +0.000 C 
ATOM     11  C   UNL     1       5.520   1.193  19.000  0.00  0.00    +0.000 C 
ATOM     12  S   UNL     1       6.048   1.855  20.461  0.00  0.00    +0.000 S 
ENDBRANCH   5   8
BRANCH   1  14
ATOM     13  N   UNL     1      11.314   3.764  23.347  0.00  0.00    +0.000 NA
ATOM     14  C   UNL     1       9.980   3.995  23.833  0.00  0.00    +0.000 C 
ENDBRANCH   1  14
BRANCH   7  15
ATOM     15  C   UNL     1      10.712   0.286  24.022  0.00  0.00    +0.000 C 
BRANCH  15  16
ATOM     16  C   UNL     1       9.604  -0.836  23.684  0.00  0.00    +0.000 A 
ATOM     17  C   UNL     1      10.097  -2.178  23.525  0.00  0.00    +0.000 A 
ATOM     18  C   UNL     1       9.413  -3.201  24.334  0.00  0.00    +0.000 A 
ATOM     19  C   UNL     1       8.741  -2.632  25.471  0.00  0.00    +0.000 A 
ATOM     20  S   UNL     1       8.604  -0.882  25.175  0.00  0.00    +0.000 S 
ENDBRANCH  15  16
ENDBRANCH   7  15
TORSDOF 4
ENDMDL
MODEL 3
REMARK VINA RESULT:      -6.2      2.738      6.353
REMARK  Name = 
REMARK  4 active torsions:
REMARK  status: ('A' for Active; 'I' for Inactive)
REMARK    1  A    between atoms: C_2  and  C_3
REMARK    2  A    between atoms: C_7  and  C_16
REMARK    3  A    between atoms: C_9  and  C_10
REMARK    4  A    between atoms: C_10  and  C_11
REMARK                            x       y       z     vdW  Elec       q    Type
REMARK                         _______ _______ _______ _____ _____    ______ ____
ROOT
ATOM      1  C   UNL     1       7.491  -1.753  21.517  0.00  0.00    +0.000 A 
ATOM      2  C   UNL     1       7.487  -0.486  20.566  0.00  0.00    +0.000 A 
ATOM      3  O   UNL     1       7.714  -0.107  19.476  0.00  0.00    +0.000 OA
ATOM      4  N   UNL     1       7.047   0.561  21.411  0.00  0.00    +0.000 NA
ATOM      5  C   UNL     1       7.646   1.036  22.543  0.00  0.00    +0.000 A 
ATOM      6  C   UNL     1       7.958   0.071  23.591  0.00  0.00    +0.000 A 
ATOM      7  C   UNL     1       7.897  -1.370  22.891  0.00  0.00    +0.000 A 
ENDROOT
BRANCH   5   8
ATOM      8  C   UNL     1       8.484   2.164  22.123  0.00  0.00    +0.000 C 
ATOM      9  C   UNL     1       9.984   1.838  22.166  0.00  0.00    +0.000 C 
ATOM     10  C   UNL     1      10.513   2.515  23.446  0.00  0.00    +0.000 C 
ATOM     11  C   UNL     1       9.841   3.802  23.718  0.00  0.00    +0.000 C 
ATOM     12  S   UNL     1       8.285   3.376  23.221  0.00  0.00    +0.000 S 
ENDBRANCH   5   8
BRANCH   1  14
ATOM     13  N   UNL     1       6.037  -3.661  21.333  0.00  0.00    +0.000 NA
ATOM     14  C   UNL     1       5.944  -2.225  21.292  0.00  0.00    +0.000 C 
ENDBRANCH   1  14
BRANCH   7  15
ATOM     15  C   UNL     1       8.995  -2.269  23.534  0.00  0.00    +0.000 C 
BRANCH  15  16
ATOM     16  C   UNL     1       7.956  -3.160  24.386  0.00  0.00    +0.000 A 
ATOM     17  C   UNL     1       8.099  -4.586  24.258  0.00  0.00    +0.000 A 
ATOM     18  C   UNL     1       8.204  -5.324  25.528  0.00  0.00    +0.000 A 
ATOM     19  C   UNL     1       8.636  -4.483  26.610  0.00  0.00    +0.000 A 
ATOM     20  S   UNL     1       8.407  -2.797  26.085  0.00  0.00    +0.000 S 
ENDBRANCH  15  16
ENDBRANCH   7  15
TORSDOF 4
ENDMDL
MODEL 4
REMARK VINA RESULT:      -6.2      1.927      2.288
REMARK  Name = 
REMARK  4 active torsions:
REMARK  status: ('A' for Active; 'I' for Inactive)
REMARK    1  A    between atoms: C_2  and  C_3
REMARK    2  A    between atoms: C_7  and  C_16
REMARK    3  A    between atoms: C_9  and  C_10
REMARK    4  A    between atoms: C_10  and  C_11
REMARK                            x       y       z     vdW  Elec       q    Type
REMARK                         _______ _______ _______ _____ _____    ______ ____
ROOT
ATOM      1  C   UNL     1       9.727   1.592  22.726  0.00  0.00    +0.000 A 
ATOM      2  C   UNL     1      10.424   0.989  24.015  0.00  0.00    +0.000 A 
ATOM      3  O   UNL     1      11.459   0.783  24.536  0.00  0.00    +0.000 OA
ATOM      4  N   UNL     1       9.336   0.524  24.792  0.00  0.00    +0.000 NA
ATOM      5  C   UNL     1       8.421  -0.438  24.466  0.00  0.00    +0.000 A 
ATOM      6  C   UNL     1       7.696  -0.275  23.212  0.00  0.00    +0.000 A 
ATOM      7  C   UNL     1       8.535   0.790  22.357  0.00  0.00    +0.000 A 
ENDROOT
BRANCH   5   8
ATOM      8  C   UNL     1       8.933  -1.697  25.017  0.00  0.00    +0.000 C 
ATOM      9  C   UNL     1       9.459  -2.648  23.933  0.00  0.00    +0.000 C 
ATOM     10  C   UNL     1       8.356  -3.709  23.750  0.00  0.00    +0.000 C 
ATOM     11  C   UNL     1       7.682  -4.043  25.021  0.00  0.00    +0.000 C 
ATOM     12  S   UNL     1       7.668  -2.498  25.703  0.00  0.00    +0.000 S 
ENDBRANCH   5   8
BRANCH   1  14
ATOM     13  N   UNL     1       8.083   3.329  22.985  0.00  0.00    +0.000 NA
ATOM     14  C   UNL     1       9.475   3.108  23.277  0.00  0.00    +0.000 C 
ENDBRANCH   1  14
BRANCH   7  15
ATOM     15  C   UNL     1       8.445   0.387  20.855  0.00  0.00    +0.000 C 
BRANCH  15  16
ATOM     16  C   UNL     1       6.834   0.414  20.806  0.00  0.00    +0.000 A 
ATOM     17  C   UNL     1       6.239   1.658  20.398  0.00  0.00    +0.000 A 
ATOM     18  C   UNL     1       5.259   1.559  19.303  0.00  0.00    +0.000 A 
ATOM     19  C   UNL     1       5.435   0.363  18.525  0.00  0.00    +0.000 A 
ATOM     20  S   UNL     1       6.448  -0.741  19.486  0.00  0.00    +0.000 S 
ENDBRANCH  15  16
ENDBRANCH   7  15
TORSDOF 4
ENDMDL
MODEL 5
REMARK VINA RESULT:      -6.0      3.058      4.530
REMARK  Name = 
REMARK  4 active torsions:
REMARK  status: ('A' for Active; 'I' for Inactive)
REMARK    1  A    between atoms: C_2  and  C_3
REMARK    2  A    between atoms: C_7  and  C_16
REMARK    3  A    between atoms: C_9  and  C_10
REMARK    4  A    between atoms: C_10  and  C_11
REMARK                            x       y       z     vdW  Elec       q    Type
REMARK                         _______ _______ _______ _____ _____    ______ ____
ROOT
ATOM      1  C   UNL     1       6.254  -1.686  21.958  0.00  0.00    +0.000 A 
ATOM      2  C   UNL     1       5.725  -3.154  22.233  0.00  0.00    +0.000 A 
ATOM      3  O   UNL     1       4.763  -3.804  22.426  0.00  0.00    +0.000 OA
ATOM      4  N   UNL     1       6.906  -3.933  22.258  0.00  0.00    +0.000 NA
ATOM      5  C   UNL     1       7.963  -3.828  23.117  0.00  0.00    +0.000 A 
ATOM      6  C   UNL     1       8.600  -2.522  23.240  0.00  0.00    +0.000 A 
ATOM      7  C   UNL     1       7.554  -1.468  22.637  0.00  0.00    +0.000 A 
ENDROOT
BRANCH   5   8
ATOM      8  C   UNL     1       7.703  -4.775  24.207  0.00  0.00    +0.000 C 
ATOM      9  C   UNL     1       6.762  -4.203  25.277  0.00  0.00    +0.000 C 
ATOM     10  C   UNL     1       7.674  -3.805  26.454  0.00  0.00    +0.000 C 
ATOM     11  C   UNL     1       8.806  -4.739  26.626  0.00  0.00    +0.000 C 
ATOM     12  S   UNL     1       9.125  -5.039  24.995  0.00  0.00    +0.000 S 
ENDBRANCH   5   8
BRANCH   1  14
ATOM     13  N   UNL     1       6.714  -0.418  19.966  0.00  0.00    +0.000 NA
ATOM     14  C   UNL     1       6.255  -1.733  20.326  0.00  0.00    +0.000 C 
ENDBRANCH   1  14
BRANCH   7  15
ATOM     15  C   UNL     1       7.656  -0.154  23.468  0.00  0.00    +0.000 C 
BRANCH  15  16
ATOM     16  C   UNL     1       9.198   0.126  23.086  0.00  0.00    +0.000 A 
ATOM     17  C   UNL     1       9.418   0.975  21.946  0.00  0.00    +0.000 A 
ATOM     18  C   UNL     1      10.326   2.112  22.173  0.00  0.00    +0.000 A 
ATOM     19  C   UNL     1      10.430   2.453  23.565  0.00  0.00    +0.000 A 
ATOM     20  S   UNL     1       9.800   1.069  24.491  0.00  0.00    +0.000 S 
ENDBRANCH  15  16
ENDBRANCH   7  15
TORSDOF 4
ENDMDL
MODEL 6
REMARK VINA RESULT:      -6.0      2.817      4.205
REMARK  Name = 
REMARK  4 active torsions:
REMARK  status: ('A' for Active; 'I' for Inactive)
REMARK    1  A    between atoms: C_2  and  C_3
REMARK    2  A    between atoms: C_7  and  C_16
REMARK    3  A    between atoms: C_9  and  C_10
REMARK    4  A    between atoms: C_10  and  C_11
REMARK                            x       y       z     vdW  Elec       q    Type
REMARK                         _______ _______ _______ _____ _____    ______ ____
ROOT
ATOM      1  C   UNL     1       8.013   0.147  20.612  0.00  0.00    +0.000 A 
ATOM      2  C   UNL     1       7.050  -0.985  21.162  0.00  0.00    +0.000 A 
ATOM      3  O   UNL     1       5.928  -1.265  21.378  0.00  0.00    +0.000 OA
ATOM      4  N   UNL     1       7.937  -2.024  21.532  0.00  0.00    +0.000 NA
ATOM      5  C   UNL     1       8.927  -1.988  22.473  0.00  0.00    +0.000 A 
ATOM      6  C   UNL     1       9.921  -0.928  22.359  0.00  0.00    +0.000 A 
ATOM      7  C   UNL     1       9.279   0.171  21.385  0.00  0.00    +0.000 A 
ENDROOT
BRANCH   5   8
ATOM      8  C   UNL     1       8.333  -2.493  23.715  0.00  0.00    +0.000 C 
ATOM      9  C   UNL     1       9.376  -2.732  24.816  0.00  0.00    +0.000 C 
ATOM     10  C   UNL     1       9.601  -4.257  24.843  0.00  0.00    +0.000 C 
ATOM     11  C   UNL     1       8.361  -5.011  24.568  0.00  0.00    +0.000 C 
ATOM     12  S   UNL     1       7.702  -3.982  23.403  0.00  0.00    +0.000 S 
ENDBRANCH   5   8
BRANCH   1  14
ATOM     13  N   UNL     1       7.102   0.486  18.412  0.00  0.00    +0.000 NA
ATOM     14  C   UNL     1       8.090  -0.339  19.056  0.00  0.00    +0.000 C 
ENDBRANCH   1  14
BRANCH   7  15
ATOM     15  C   UNL     1       9.728   1.579  21.878  0.00  0.00    +0.000 C 
BRANCH  15  16
ATOM     16  C   UNL     1       8.569   1.706  22.992  0.00  0.00    +0.000 A 
ATOM     17  C   UNL     1       9.018   1.896  24.346  0.00  0.00    +0.000 A 
ATOM     18  C   UNL     1       8.416   3.039  25.054  0.00  0.00    +0.000 A 
ATOM     19  C   UNL     1       7.892   4.023  24.147  0.00  0.00    +0.000 A 
ATOM     20  S   UNL     1       7.750   3.243  22.554  0.00  0.00    +0.000 S 
ENDBRANCH  15  16
ENDBRANCH   7  15
TORSDOF 4
ENDMDL
MODEL 7
REMARK VINA RESULT:      -5.8      2.926      5.761
REMARK  Name = 
REMARK  4 active torsions:
REMARK  status: ('A' for Active; 'I' for Inactive)
REMARK    1  A    between atoms: C_2  and  C_3
REMARK    2  A    between atoms: C_7  and  C_16
REMARK    3  A    between atoms: C_9  and  C_10
REMARK    4  A    between atoms: C_10  and  C_11
REMARK                            x       y       z     vdW  Elec       q    Type
REMARK                         _______ _______ _______ _____ _____    ______ ____
ROOT
ATOM      1  C   UNL     1       7.971  -3.470  24.954  0.00  0.00    +0.000 A 
ATOM      2  C   UNL     1       8.080  -2.094  25.731  0.00  0.00    +0.000 A 
ATOM      3  O   UNL     1       7.604  -1.435  26.581  0.00  0.00    +0.000 OA
ATOM      4  N   UNL     1       9.179  -1.451  25.113  0.00  0.00    +0.000 NA
ATOM      5  C   UNL     1       9.304  -1.070  23.807  0.00  0.00    +0.000 A 
ATOM      6  C   UNL     1       9.090  -2.090  22.788  0.00  0.00    +0.000 A 
ATOM      7  C   UNL     1       8.319  -3.287  23.523  0.00  0.00    +0.000 A 
ENDROOT
BRANCH   5   8
ATOM      8  C   UNL     1       8.866   0.328  23.743  0.00  0.00    +0.000 C 
ATOM      9  C   UNL     1       8.718   0.838  22.302  0.00  0.00    +0.000 C 
ATOM     10  C   UNL     1       9.971   1.697  22.041  0.00  0.00    +0.000 C 
ATOM     11  C   UNL     1      10.400   2.442  23.243  0.00  0.00    +0.000 C 
ATOM     12  S   UNL     1      10.055   1.260  24.399  0.00  0.00    +0.000 S 
ENDBRANCH   5   8
BRANCH   1  14
ATOM     13  N   UNL     1       9.870  -4.946  24.898  0.00  0.00    +0.000 NA
ATOM     14  C   UNL     1       8.997  -4.346  25.872  0.00  0.00    +0.000 C 
ENDBRANCH   1  14
BRANCH   7  15
ATOM     15  C   UNL     1       7.312  -3.911  22.511  0.00  0.00    +0.000 C 
BRANCH  15  16
ATOM     16  C   UNL     1       6.203  -4.265  23.626  0.00  0.00    +0.000 A 
ATOM     17  C   UNL     1       4.955  -3.557  23.519  0.00  0.00    +0.000 A 
ATOM     18  C   UNL     1       3.749  -4.402  23.514  0.00  0.00    +0.000 A 
ATOM     19  C   UNL     1       4.038  -5.755  23.122  0.00  0.00    +0.000 A 
ATOM     20  S   UNL     1       5.798  -5.977  23.268  0.00  0.00    +0.000 S 
ENDBRANCH  15  16
ENDBRANCH   7  15
TORSDOF 4
ENDMDL
MODEL 8
REMARK VINA RESULT:      -5.7      2.705      6.002
REMARK  Name = 
REMARK  4 active torsions:
REMARK  status: ('A' for Active; 'I' for Inactive)
REMARK    1  A    between atoms: C_2  and  C_3
REMARK    2  A    between atoms: C_7  and  C_16
REMARK    3  A    between atoms: C_9  and  C_10
REMARK    4  A    between atoms: C_10  and  C_11
REMARK                            x       y       z     vdW  Elec       q    Type
REMARK                         _______ _______ _______ _____ _____    ______ ____
ROOT
ATOM      1  C   UNL     1       7.376  -4.348  24.990  0.00  0.00    +0.000 A 
ATOM      2  C   UNL     1       7.297  -2.797  25.300  0.00  0.00    +0.000 A 
ATOM      3  O   UNL     1       6.824  -1.985  26.009  0.00  0.00    +0.000 OA
ATOM      4  N   UNL     1       8.120  -2.218  24.305  0.00  0.00    +0.000 NA
ATOM      5  C   UNL     1       7.957  -2.263  22.949  0.00  0.00    +0.000 A 
ATOM      6  C   UNL     1       7.819  -3.577  22.334  0.00  0.00    +0.000 A 
ATOM      7  C   UNL     1       7.451  -4.582  23.528  0.00  0.00    +0.000 A 
ENDROOT
BRANCH   5   8
ATOM      8  C   UNL     1       7.218  -1.050  22.584  0.00  0.00    +0.000 C 
ATOM      9  C   UNL     1       6.964  -0.942  21.073  0.00  0.00    +0.000 C 
ATOM     10  C   UNL     1       7.994   0.082  20.558  0.00  0.00    +0.000 C 
ATOM     11  C   UNL     1       8.242   1.166  21.530  0.00  0.00    +0.000 C 
ATOM     12  S   UNL     1       8.166   0.247  22.945  0.00  0.00    +0.000 S 
ENDBRANCH   5   8
BRANCH   1  14
ATOM     13  N   UNL     1       9.565  -5.345  24.926  0.00  0.00    +0.000 NA
ATOM     14  C   UNL     1       8.698  -4.704  25.879  0.00  0.00    +0.000 C 
ENDBRANCH   1  14
BRANCH   7  15
ATOM     15  C   UNL     1       6.463  -5.652  22.975  0.00  0.00    +0.000 C 
BRANCH  15  16
ATOM     16  C   UNL     1       5.244  -5.218  23.936  0.00  0.00    +0.000 A 
ATOM     17  C   UNL     1       4.172  -4.498  23.304  0.00  0.00    +0.000 A 
ATOM     18  C   UNL     1       2.823  -5.042  23.538  0.00  0.00    +0.000 A 
ATOM     19  C   UNL     1       2.858  -6.428  23.918  0.00  0.00    +0.000 A 
ATOM     20  S   UNL     1       4.526  -6.791  24.419  0.00  0.00    +0.000 S 
ENDBRANCH  15  16
ENDBRANCH   7  15
TORSDOF 4
ENDMDL
MODEL 9
REMARK VINA RESULT:      -5.5      3.779      5.787
REMARK  Name = 
REMARK  4 active torsions:
REMARK  status: ('A' for Active; 'I' for Inactive)
REMARK    1  A    between atoms: C_2  and  C_3
REMARK    2  A    between atoms: C_7  and  C_16
REMARK    3  A    between atoms: C_9  and  C_10
REMARK    4  A    between atoms: C_10  and  C_11
REMARK                            x       y       z     vdW  Elec       q    Type
REMARK                         _______ _______ _______ _____ _____    ______ ____
ROOT
ATOM      1  C   UNL     1       6.621  -4.545  22.369  0.00  0.00    +0.000 A 
ATOM      2  C   UNL     1       5.261  -5.064  22.993  0.00  0.00    +0.000 A 
ATOM      3  O   UNL     1       4.088  -5.013  22.910  0.00  0.00    +0.000 OA
ATOM      4  N   UNL     1       5.681  -5.888  24.064  0.00  0.00    +0.000 NA
ATOM      5  C   UNL     1       6.402  -5.529  25.168  0.00  0.00    +0.000 A 
ATOM      6  C   UNL     1       7.673  -4.851  24.947  0.00  0.00    +0.000 A 
ATOM      7  C   UNL     1       7.630  -4.325  23.433  0.00  0.00    +0.000 A 
ENDROOT
BRANCH   5   8
ATOM      8  C   UNL     1       5.424  -5.222  26.216  0.00  0.00    +0.000 C 
ATOM      9  C   UNL     1       6.079  -4.712  27.508  0.00  0.00    +0.000 C 
ATOM     10  C   UNL     1       6.056  -5.910  28.478  0.00  0.00    +0.000 C 
ATOM     11  C   UNL     1       4.840  -6.734  28.324  0.00  0.00    +0.000 C 
ATOM     12  S   UNL     1       4.685  -6.630  26.645  0.00  0.00    +0.000 S 
ENDBRANCH   5   8
BRANCH   1  14
ATOM     13  N   UNL     1       5.979  -5.471  20.243  0.00  0.00    +0.000 NA
ATOM     14  C   UNL     1       6.886  -5.769  21.320  0.00  0.00    +0.000 C 
ENDBRANCH   1  14
BRANCH   7  15
ATOM     15  C   UNL     1       8.370  -2.955  23.373  0.00  0.00    +0.000 C 
BRANCH  15  16
ATOM     16  C   UNL     1       7.027  -2.087  23.172  0.00  0.00    +0.000 A 
ATOM     17  C   UNL     1       6.549  -1.392  24.338  0.00  0.00    +0.000 A 
ATOM     18  C   UNL     1       6.292   0.047  24.152  0.00  0.00    +0.000 A 
ATOM     19  C   UNL     1       7.014   0.585  23.032  0.00  0.00    +0.000 A 
ATOM     20  S   UNL     1       7.544  -0.793  22.039  0.00  0.00    +0.000 S 
ENDBRANCH  15  16
ENDBRANCH   7  15
TORSDOF 4
ENDMDL
