MODEL 1
REMARK VINA RESULT:      -7.4      0.000      0.000
REMARK  Name = 
REMARK  10 active torsions:
REMARK  status: ('A' for Active; 'I' for Inactive)
REMARK    1  A    between atoms: C_2  and  N_3
REMARK    2  A    between atoms: N_3  and  C_4
REMARK    3  A    between atoms: C_9  and  C_10
REMARK    4  A    between atoms: C_10  and  N_11
REMARK    5  A    between atoms: N_11  and  C_12
REMARK    6  A    between atoms: C_12  and  C_13
REMARK    7  A    between atoms: C_12  and  C_31
REMARK    8  A    between atoms: C_19  and  C_23
REMARK    9  A    between atoms: C_31  and  C_32
REMARK   10  A    between atoms: C_33  and  C_34
REMARK                            x       y       z     vdW  Elec       q    Type
REMARK                         _______ _______ _______ _____ _____    ______ ____
ROOT
ATOM      1  C   UNL     1       7.347  -2.097  23.079  0.00  0.00    +0.000 C 
ENDROOT
BRANCH   1   2
ATOM      2  C   UNL     1       8.056  -1.049  22.336  0.00  0.00    +0.000 C 
ATOM      3  C   UNL     1       9.511  -1.570  22.119  0.00  0.00    +0.000 C 
ATOM      4  C   UNL     1       7.504  -0.592  21.074  0.00  0.00    +0.000 C 
ATOM      5  C   UNL     1       8.827   0.528  21.048  0.00  0.00    +0.000 C 
ATOM      6  C   UNL     1       8.143   1.389  22.240  0.00  0.00    +0.000 C 
ATOM      7  C   UNL     1       8.151   0.252  23.236  0.00  0.00    +0.000 C 
ATOM      8  C   UNL     1       9.553   0.260  23.891  0.00  0.00    +0.000 C 
ATOM      9  C   UNL     1      10.083   1.703  23.751  0.00  0.00    +0.000 C 
ATOM     10  C   UNL     1       9.219   2.385  22.671  0.00  0.00    +0.000 C 
ATOM     11  C   UNL     1       7.006   1.981  21.574  0.00  0.00    +0.000 C 
ATOM     12  C   UNL     1       6.837   1.596  20.080  0.00  0.00    +0.000 C 
ATOM     13  C   UNL     1       6.965   0.059  19.852  0.00  0.00    +0.000 C 
ATOM     14  C   UNL     1       5.609  -0.451  19.431  0.00  0.00    +0.000 C 
ATOM     15  O   UNL     1       7.871  -0.157  18.806  0.00  0.00    +0.000 OA
BRANCH   7  16
ATOM     16  C   UNL     1       7.123   0.314  24.245  0.00  0.00    +0.000 C 
ATOM     17  O   UNL     1       5.932   0.125  24.186  0.00  0.00    +0.000 OA
ATOM     18  O   UNL     1       7.742   0.194  25.444  0.00  0.00    +0.000 OA
ENDBRANCH   7  16
ENDBRANCH   1   2
BRANCH   1  19
ATOM     19  N   UNL     1       8.347  -3.054  23.584  0.00  0.00    +0.000 NA
BRANCH  19  20
ATOM     20  C   UNL     1       8.285  -3.186  24.952  0.00  0.00    +0.000 C 
BRANCH  20  26
ATOM     21  C   UNL     1       6.710  -5.025  25.665  0.00  0.00    +0.000 C 
ATOM     22  C   UNL     1       6.661  -5.468  27.126  0.00  0.00    +0.000 C 
ATOM     23  C   UNL     1       5.791  -4.515  27.907  0.00  0.00    +0.000 C 
ATOM     24  C   UNL     1       5.274  -3.346  27.287  0.00  0.00    +0.000 C 
ATOM     25  C   UNL     1       6.156  -2.692  26.347  0.00  0.00    +0.000 C 
ATOM     26  C   UNL     1       7.058  -3.525  25.651  0.00  0.00    +0.000 C 
ATOM     27  F   UNL     1       4.885  -2.463  28.215  0.00  0.00    +0.000 F 
BRANCH  21  28
ATOM     28  N   UNL     1       5.400  -5.185  25.079  0.00  0.00    +0.000 NA
BRANCH  28  30
ATOM     29  C   UNL     1       3.840  -6.854  24.271  0.00  0.00    +0.000 C 
ATOM     30  C   UNL     1       5.006  -6.558  25.202  0.00  0.00    +0.000 C 
ENDBRANCH  28  30
ENDBRANCH  21  28
ENDBRANCH  20  26
ENDBRANCH  19  20
ENDBRANCH   1  19
BRANCH   1  31
ATOM     31  C   UNL     1       6.245  -2.762  22.383  0.00  0.00    +0.000 C 
BRANCH  31  32
ATOM     32  C   UNL     1       6.563  -4.030  21.705  0.00  0.00    +0.000 C 
ATOM     33  C   UNL     1       6.202  -5.291  21.444  0.00  0.00    +0.000 C 
ATOM     34  F   UNL     1       5.990  -5.529  20.085  0.00  0.00    +0.000 F 
BRANCH  33  35
ATOM     35  C   UNL     1       6.851  -6.557  22.051  0.00  0.00    +0.000 C 
ATOM     36  O   UNL     1       8.086  -6.170  22.596  0.00  0.00    +0.000 OA
ENDBRANCH  33  35
ENDBRANCH  31  32
ENDBRANCH   1  31
TORSDOF 10
ENDMDL
MODEL 2
REMARK VINA RESULT:      -7.3      3.229      7.073
REMARK  Name = 
REMARK  10 active torsions:
REMARK  status: ('A' for Active; 'I' for Inactive)
REMARK    1  A    between atoms: C_2  and  N_3
REMARK    2  A    between atoms: N_3  and  C_4
REMARK    3  A    between atoms: C_9  and  C_10
REMARK    4  A    between atoms: C_10  and  N_11
REMARK    5  A    between atoms: N_11  and  C_12
REMARK    6  A    between atoms: C_12  and  C_13
REMARK    7  A    between atoms: C_12  and  C_31
REMARK    8  A    between atoms: C_19  and  C_23
REMARK    9  A    between atoms: C_31  and  C_32
REMARK   10  A    between atoms: C_33  and  C_34
REMARK                            x       y       z     vdW  Elec       q    Type
REMARK                         _______ _______ _______ _____ _____    ______ ____
ROOT
ATOM      1  C   UNL     1       8.070  -0.052  22.329  0.00  0.00    +0.000 C 
ENDROOT
BRANCH   1   2
ATOM      2  C   UNL     1       7.467  -0.859  23.396  0.00  0.00    +0.000 C 
ATOM      3  C   UNL     1       6.483   0.082  24.158  0.00  0.00    +0.000 C 
ATOM      4  C   UNL     1       6.792  -2.094  23.041  0.00  0.00    +0.000 C 
ATOM      5  C   UNL     1       6.548  -2.299  24.744  0.00  0.00    +0.000 C 
ATOM      6  C   UNL     1       8.122  -2.626  24.949  0.00  0.00    +0.000 C 
ATOM      7  C   UNL     1       8.596  -1.290  24.422  0.00  0.00    +0.000 C 
ATOM      8  C   UNL     1       8.537  -0.308  25.615  0.00  0.00    +0.000 C 
ATOM      9  C   UNL     1       8.645  -1.173  26.888  0.00  0.00    +0.000 C 
ATOM     10  C   UNL     1       8.331  -2.622  26.463  0.00  0.00    +0.000 C 
ATOM     11  C   UNL     1       8.248  -3.924  24.326  0.00  0.00    +0.000 C 
ATOM     12  C   UNL     1       6.943  -4.493  23.709  0.00  0.00    +0.000 C 
ATOM     13  C   UNL     1       6.206  -3.442  22.822  0.00  0.00    +0.000 C 
ATOM     14  C   UNL     1       6.283  -3.921  21.394  0.00  0.00    +0.000 C 
ATOM     15  O   UNL     1       4.862  -3.402  23.211  0.00  0.00    +0.000 OA
BRANCH   7  16
ATOM     16  C   UNL     1       9.914  -1.295  23.837  0.00  0.00    +0.000 C 
ATOM     17  O   UNL     1      10.364  -1.883  22.883  0.00  0.00    +0.000 OA
ATOM     18  O   UNL     1      10.533  -0.165  24.257  0.00  0.00    +0.000 OA
ENDBRANCH   7  16
ENDBRANCH   1   2
BRANCH   1  19
ATOM     19  N   UNL     1       7.632   1.343  22.511  0.00  0.00    +0.000 NA
BRANCH  19  20
ATOM     20  C   UNL     1       8.698   2.206  22.614  0.00  0.00    +0.000 C 
BRANCH  20  26
ATOM     21  C   UNL     1       9.473   4.528  23.230  0.00  0.00    +0.000 C 
ATOM     22  C   UNL     1       8.456   5.650  23.418  0.00  0.00    +0.000 C 
ATOM     23  C   UNL     1       7.861   5.558  24.801  0.00  0.00    +0.000 C 
ATOM     24  C   UNL     1       8.181   4.461  25.645  0.00  0.00    +0.000 C 
ATOM     25  C   UNL     1       8.325   3.183  24.987  0.00  0.00    +0.000 C 
ATOM     26  C   UNL     1       8.792   3.213  23.655  0.00  0.00    +0.000 C 
ATOM     27  F   UNL     1       7.277   4.353  26.627  0.00  0.00    +0.000 F 
BRANCH  21  28
ATOM     28  N   UNL     1      10.595   4.754  24.110  0.00  0.00    +0.000 NA
BRANCH  28  30
ATOM     29  C   UNL     1      12.797   5.102  23.160  0.00  0.00    +0.000 C 
ATOM     30  C   UNL     1      11.458   5.731  23.512  0.00  0.00    +0.000 C 
ENDBRANCH  28  30
ENDBRANCH  21  28
ENDBRANCH  20  26
ENDBRANCH  19  20
ENDBRANCH   1  19
BRANCH   1  31
ATOM     31  C   UNL     1       7.868  -0.522  20.958  0.00  0.00    +0.000 C 
BRANCH  31  32
ATOM     32  C   UNL     1       7.138   0.378  20.052  0.00  0.00    +0.000 C 
ATOM     33  C   UNL     1       5.977   0.691  19.466  0.00  0.00    +0.000 C 
ATOM     34  F   UNL     1       5.505   1.954  19.827  0.00  0.00    +0.000 F 
BRANCH  33  35
ATOM     35  C   UNL     1       5.632   0.465  17.975  0.00  0.00    +0.000 C 
ATOM     36  O   UNL     1       6.053  -0.833  17.644  0.00  0.00    +0.000 OA
ENDBRANCH  33  35
ENDBRANCH  31  32
ENDBRANCH   1  31
TORSDOF 10
ENDMDL
MODEL 3
REMARK VINA RESULT:      -7.3      1.248      2.079
REMARK  Name = 
REMARK  10 active torsions:
REMARK  status: ('A' for Active; 'I' for Inactive)
REMARK    1  A    between atoms: C_2  and  N_3
REMARK    2  A    between atoms: N_3  and  C_4
REMARK    3  A    between atoms: C_9  and  C_10
REMARK    4  A    between atoms: C_10  and  N_11
REMARK    5  A    between atoms: N_11  and  C_12
REMARK    6  A    between atoms: C_12  and  C_13
REMARK    7  A    between atoms: C_12  and  C_31
REMARK    8  A    between atoms: C_19  and  C_23
REMARK    9  A    between atoms: C_31  and  C_32
REMARK   10  A    between atoms: C_33  and  C_34
REMARK                            x       y       z     vdW  Elec       q    Type
REMARK                         _______ _______ _______ _____ _____    ______ ____
ROOT
ATOM      1  C   UNL     1       7.177  -2.086  23.013  0.00  0.00    +0.000 C 
ENDROOT
BRANCH   1   2
ATOM      2  C   UNL     1       7.948  -1.058  22.305  0.00  0.00    +0.000 C 
ATOM      3  C   UNL     1       9.384  -1.639  22.111  0.00  0.00    +0.000 C 
ATOM      4  C   UNL     1       7.446  -0.554  21.041  0.00  0.00    +0.000 C 
ATOM      5  C   UNL     1       8.816   0.507  21.066  0.00  0.00    +0.000 C 
ATOM      6  C   UNL     1       8.144   1.376  22.258  0.00  0.00    +0.000 C 
ATOM      7  C   UNL     1       8.080   0.221  23.232  0.00  0.00    +0.000 C 
ATOM      8  C   UNL     1       9.465   0.156  23.918  0.00  0.00    +0.000 C 
ATOM      9  C   UNL     1      10.061   1.575  23.817  0.00  0.00    +0.000 C 
ATOM     10  C   UNL     1       9.253   2.315  22.732  0.00  0.00    +0.000 C 
ATOM     11  C   UNL     1       7.049   2.029  21.579  0.00  0.00    +0.000 C 
ATOM     12  C   UNL     1       6.898   1.680  20.075  0.00  0.00    +0.000 C 
ATOM     13  C   UNL     1       6.964   0.142  19.819  0.00  0.00    +0.000 C 
ATOM     14  C   UNL     1       5.597  -0.299  19.359  0.00  0.00    +0.000 C 
ATOM     15  O   UNL     1       7.883  -0.094  18.790  0.00  0.00    +0.000 OA
BRANCH   7  16
ATOM     16  C   UNL     1       7.032   0.311  24.219  0.00  0.00    +0.000 C 
ATOM     17  O   UNL     1       5.835   0.184  24.128  0.00  0.00    +0.000 OA
ATOM     18  O   UNL     1       7.616   0.129  25.428  0.00  0.00    +0.000 OA
ENDBRANCH   7  16
ENDBRANCH   1   2
BRANCH   1  19
ATOM     19  N   UNL     1       8.129  -3.037  23.613  0.00  0.00    +0.000 NA
BRANCH  19  20
ATOM     20  C   UNL     1       7.917  -3.192  24.963  0.00  0.00    +0.000 C 
BRANCH  20  26
ATOM     21  C   UNL     1       5.616  -3.052  25.991  0.00  0.00    +0.000 C 
ATOM     22  C   UNL     1       4.386  -3.431  25.170  0.00  0.00    +0.000 C 
ATOM     23  C   UNL     1       4.223  -4.931  25.180  0.00  0.00    +0.000 C 
ATOM     24  C   UNL     1       5.213  -5.755  25.779  0.00  0.00    +0.000 C 
ATOM     25  C   UNL     1       6.580  -5.319  25.607  0.00  0.00    +0.000 C 
ATOM     26  C   UNL     1       6.785  -3.926  25.499  0.00  0.00    +0.000 C 
ATOM     27  F   UNL     1       5.093  -7.015  25.344  0.00  0.00    +0.000 F 
BRANCH  21  28
ATOM     28  N   UNL     1       5.375  -3.370  27.379  0.00  0.00    +0.000 NA
BRANCH  28  30
ATOM     29  C   UNL     1       5.114  -0.983  27.708  0.00  0.00    +0.000 C 
ATOM     30  C   UNL     1       4.519  -2.364  27.938  0.00  0.00    +0.000 C 
ENDBRANCH  28  30
ENDBRANCH  21  28
ENDBRANCH  20  26
ENDBRANCH  19  20
ENDBRANCH   1  19
BRANCH   1  31
ATOM     31  C   UNL     1       6.128  -2.761  22.247  0.00  0.00    +0.000 C 
BRANCH  31  32
ATOM     32  C   UNL     1       6.480  -4.058  21.647  0.00  0.00    +0.000 C 
ATOM     33  C   UNL     1       6.145  -5.337  21.448  0.00  0.00    +0.000 C 
ATOM     34  F   UNL     1       5.966  -5.652  20.099  0.00  0.00    +0.000 F 
BRANCH  33  35
ATOM     35  C   UNL     1       6.800  -6.557  22.137  0.00  0.00    +0.000 C 
ATOM     36  O   UNL     1       8.082  -6.161  22.550  0.00  0.00    +0.000 OA
ENDBRANCH  33  35
ENDBRANCH  31  32
ENDBRANCH   1  31
TORSDOF 10
ENDMDL
MODEL 4
REMARK VINA RESULT:      -7.0      2.380      7.441
REMARK  Name = 
REMARK  10 active torsions:
REMARK  status: ('A' for Active; 'I' for Inactive)
REMARK    1  A    between atoms: C_2  and  N_3
REMARK    2  A    between atoms: N_3  and  C_4
REMARK    3  A    between atoms: C_9  and  C_10
REMARK    4  A    between atoms: C_10  and  N_11
REMARK    5  A    between atoms: N_11  and  C_12
REMARK    6  A    between atoms: C_12  and  C_13
REMARK    7  A    between atoms: C_12  and  C_31
REMARK    8  A    between atoms: C_19  and  C_23
REMARK    9  A    between atoms: C_31  and  C_32
REMARK   10  A    between atoms: C_33  and  C_34
REMARK                            x       y       z     vdW  Elec       q    Type
REMARK                         _______ _______ _______ _____ _____    ______ ____
ROOT
ATOM      1  C   UNL     1       7.199  -1.778  25.598  0.00  0.00    +0.000 C 
ENDROOT
BRANCH   1   2
ATOM      2  C   UNL     1       7.397  -3.216  25.382  0.00  0.00    +0.000 C 
ATOM      3  C   UNL     1       8.923  -3.417  25.126  0.00  0.00    +0.000 C 
ATOM      4  C   UNL     1       6.942  -4.144  26.401  0.00  0.00    +0.000 C 
ATOM      5  C   UNL     1       7.479  -5.390  25.322  0.00  0.00    +0.000 C 
ATOM      6  C   UNL     1       6.236  -5.086  24.325  0.00  0.00    +0.000 C 
ATOM      7  C   UNL     1       6.636  -3.651  24.062  0.00  0.00    +0.000 C 
ATOM      8  C   UNL     1       7.679  -3.695  22.920  0.00  0.00    +0.000 C 
ATOM      9  C   UNL     1       7.409  -5.000  22.142  0.00  0.00    +0.000 C 
ATOM     10  C   UNL     1       6.542  -5.887  23.060  0.00  0.00    +0.000 C 
ATOM     11  C   UNL     1       5.109  -5.569  25.088  0.00  0.00    +0.000 C 
ATOM     12  C   UNL     1       5.451  -6.142  26.489  0.00  0.00    +0.000 C 
ATOM     13  C   UNL     1       6.392  -5.195  27.296  0.00  0.00    +0.000 C 
ATOM     14  C   UNL     1       5.600  -4.656  28.462  0.00  0.00    +0.000 C 
ATOM     15  O   UNL     1       7.460  -5.952  27.790  0.00  0.00    +0.000 OA
BRANCH   7  16
ATOM     16  C   UNL     1       5.551  -2.766  23.721  0.00  0.00    +0.000 C 
ATOM     17  O   UNL     1       4.593  -2.393  24.354  0.00  0.00    +0.000 OA
ATOM     18  O   UNL     1       5.972  -2.015  22.675  0.00  0.00    +0.000 OA
ENDBRANCH   7  16
ENDBRANCH   1   2
BRANCH   1  19
ATOM     19  N   UNL     1       8.402  -1.075  25.117  0.00  0.00    +0.000 NA
BRANCH  19  20
ATOM     20  C   UNL     1       8.123   0.218  24.740  0.00  0.00    +0.000 C 
BRANCH  20  26
ATOM     21  C   UNL     1       9.627   0.576  22.745  0.00  0.00    +0.000 C 
ATOM     22  C   UNL     1       9.533  -0.354  21.538  0.00  0.00    +0.000 C 
ATOM     23  C   UNL     1       8.384   0.081  20.662  0.00  0.00    +0.000 C 
ATOM     24  C   UNL     1       7.516   1.121  21.085  0.00  0.00    +0.000 C 
ATOM     25  C   UNL     1       7.215   1.152  22.498  0.00  0.00    +0.000 C 
ATOM     26  C   UNL     1       8.220   0.671  23.364  0.00  0.00    +0.000 C 
ATOM     27  F   UNL     1       6.372   1.082  20.390  0.00  0.00    +0.000 F 
BRANCH  21  28
ATOM     28  N   UNL     1      10.007   1.895  22.297  0.00  0.00    +0.000 NA
BRANCH  28  30
ATOM     29  C   UNL     1       9.810   3.834  23.737  0.00  0.00    +0.000 C 
ATOM     30  C   UNL     1      10.619   2.593  23.390  0.00  0.00    +0.000 C 
ENDBRANCH  28  30
ENDBRANCH  21  28
ENDBRANCH  20  26
ENDBRANCH  19  20
ENDBRANCH   1  19
BRANCH   1  31
ATOM     31  C   UNL     1       6.820  -1.365  26.950  0.00  0.00    +0.000 C 
BRANCH  31  32
ATOM     32  C   UNL     1       5.678  -0.444  27.063  0.00  0.00    +0.000 C 
ATOM     33  C   UNL     1       4.703   0.226  26.440  0.00  0.00    +0.000 C 
ATOM     34  F   UNL     1       3.425  -0.154  26.857  0.00  0.00    +0.000 F 
BRANCH  33  35
ATOM     35  C   UNL     1       4.681   1.751  26.181  0.00  0.00    +0.000 C 
ATOM     36  O   UNL     1       4.208   1.943  24.873  0.00  0.00    +0.000 OA
ENDBRANCH  33  35
ENDBRANCH  31  32
ENDBRANCH   1  31
TORSDOF 10
ENDMDL
MODEL 5
REMARK VINA RESULT:      -7.0      2.825      7.462
REMARK  Name = 
REMARK  10 active torsions:
REMARK  status: ('A' for Active; 'I' for Inactive)
REMARK    1  A    between atoms: C_2  and  N_3
REMARK    2  A    between atoms: N_3  and  C_4
REMARK    3  A    between atoms: C_9  and  C_10
REMARK    4  A    between atoms: C_10  and  N_11
REMARK    5  A    between atoms: N_11  and  C_12
REMARK    6  A    between atoms: C_12  and  C_13
REMARK    7  A    between atoms: C_12  and  C_31
REMARK    8  A    between atoms: C_19  and  C_23
REMARK    9  A    between atoms: C_31  and  C_32
REMARK   10  A    between atoms: C_33  and  C_34
REMARK                            x       y       z     vdW  Elec       q    Type
REMARK                         _______ _______ _______ _____ _____    ______ ____
ROOT
ATOM      1  C   UNL     1       7.510  -2.362  24.256  0.00  0.00    +0.000 C 
ENDROOT
BRANCH   1   2
ATOM      2  C   UNL     1       7.239  -3.758  24.617  0.00  0.00    +0.000 C 
ATOM      3  C   UNL     1       8.592  -4.522  24.472  0.00  0.00    +0.000 C 
ATOM      4  C   UNL     1       6.649  -4.043  25.912  0.00  0.00    +0.000 C 
ATOM      5  C   UNL     1       6.654  -5.700  25.407  0.00  0.00    +0.000 C 
ATOM      6  C   UNL     1       5.452  -5.403  24.360  0.00  0.00    +0.000 C 
ATOM      7  C   UNL     1       6.232  -4.381  23.563  0.00  0.00    +0.000 C 
ATOM      8  C   UNL     1       7.070  -5.179  22.537  0.00  0.00    +0.000 C 
ATOM      9  C   UNL     1       6.330  -6.516  22.325  0.00  0.00    +0.000 C 
ATOM     10  C   UNL     1       5.352  -6.668  23.508  0.00  0.00    +0.000 C 
ATOM     11  C   UNL     1       4.330  -5.177  25.240  0.00  0.00    +0.000 C 
ATOM     12  C   UNL     1       4.647  -5.267  26.756  0.00  0.00    +0.000 C 
ATOM     13  C   UNL     1       5.917  -4.448  27.140  0.00  0.00    +0.000 C 
ATOM     14  C   UNL     1       5.467  -3.291  27.998  0.00  0.00    +0.000 C 
ATOM     15  O   UNL     1       6.758  -5.270  27.899  0.00  0.00    +0.000 OA
BRANCH   7  16
ATOM     16  C   UNL     1       5.431  -3.385  22.895  0.00  0.00    +0.000 C 
ATOM     17  O   UNL     1       5.267  -3.144  21.723  0.00  0.00    +0.000 OA
ATOM     18  O   UNL     1       4.487  -2.984  23.780  0.00  0.00    +0.000 OA
ENDBRANCH   7  16
ENDBRANCH   1   2
BRANCH   1  19
ATOM     19  N   UNL     1       8.816  -2.313  23.576  0.00  0.00    +0.000 NA
BRANCH  19  20
ATOM     20  C   UNL     1       8.688  -2.019  22.239  0.00  0.00    +0.000 C 
BRANCH  20  26
ATOM     21  C   UNL     1       7.483  -0.159  21.031  0.00  0.00    +0.000 C 
ATOM     22  C   UNL     1       6.999   1.067  21.801  0.00  0.00    +0.000 C 
ATOM     23  C   UNL     1       8.150   2.026  21.984  0.00  0.00    +0.000 C 
ATOM     24  C   UNL     1       9.460   1.657  21.580  0.00  0.00    +0.000 C 
ATOM     25  C   UNL     1       9.816   0.273  21.793  0.00  0.00    +0.000 C 
ATOM     26  C   UNL     1       8.762  -0.663  21.724  0.00  0.00    +0.000 C 
ATOM     27  F   UNL     1      10.367   2.444  22.173  0.00  0.00    +0.000 F 
BRANCH  21  28
ATOM     28  N   UNL     1       7.830   0.234  19.685  0.00  0.00    +0.000 NA
BRANCH  28  30
ATOM     29  C   UNL     1       6.063   0.984  18.205  0.00  0.00    +0.000 C 
ATOM     30  C   UNL     1       6.797  -0.211  18.796  0.00  0.00    +0.000 C 
ENDBRANCH  28  30
ENDBRANCH  21  28
ENDBRANCH  20  26
ENDBRANCH  19  20
ENDBRANCH   1  19
BRANCH   1  31
ATOM     31  C   UNL     1       7.407  -1.376  25.332  0.00  0.00    +0.000 C 
BRANCH  31  32
ATOM     32  C   UNL     1       7.908  -0.023  25.037  0.00  0.00    +0.000 C 
ATOM     33  C   UNL     1       8.454   1.104  25.505  0.00  0.00    +0.000 C 
ATOM     34  F   UNL     1       9.708   1.374  24.954  0.00  0.00    +0.000 F 
BRANCH  33  35
ATOM     35  C   UNL     1       7.718   2.452  25.689  0.00  0.00    +0.000 C 
ATOM     36  O   UNL     1       8.580   3.461  25.232  0.00  0.00    +0.000 OA
ENDBRANCH  33  35
ENDBRANCH  31  32
ENDBRANCH   1  31
TORSDOF 10
ENDMDL
MODEL 6
REMARK VINA RESULT:      -6.9      3.384      6.715
REMARK  Name = 
REMARK  10 active torsions:
REMARK  status: ('A' for Active; 'I' for Inactive)
REMARK    1  A    between atoms: C_2  and  N_3
REMARK    2  A    between atoms: N_3  and  C_4
REMARK    3  A    between atoms: C_9  and  C_10
REMARK    4  A    between atoms: C_10  and  N_11
REMARK    5  A    between atoms: N_11  and  C_12
REMARK    6  A    between atoms: C_12  and  C_13
REMARK    7  A    between atoms: C_12  and  C_31
REMARK    8  A    between atoms: C_19  and  C_23
REMARK    9  A    between atoms: C_31  and  C_32
REMARK   10  A    between atoms: C_33  and  C_34
REMARK                            x       y       z     vdW  Elec       q    Type
REMARK                         _______ _______ _______ _____ _____    ______ ____
ROOT
ATOM      1  C   UNL     1       8.051  -0.061  22.278  0.00  0.00    +0.000 C 
ENDROOT
BRANCH   1   2
ATOM      2  C   UNL     1       7.471  -0.917  23.319  0.00  0.00    +0.000 C 
ATOM      3  C   UNL     1       6.436  -0.037  24.087  0.00  0.00    +0.000 C 
ATOM      4  C   UNL     1       6.856  -2.173  22.929  0.00  0.00    +0.000 C 
ATOM      5  C   UNL     1       6.599  -2.425  24.624  0.00  0.00    +0.000 C 
ATOM      6  C   UNL     1       8.184  -2.687  24.843  0.00  0.00    +0.000 C 
ATOM      7  C   UNL     1       8.605  -1.320  24.351  0.00  0.00    +0.000 C 
ATOM      8  C   UNL     1       8.487  -0.367  25.564  0.00  0.00    +0.000 C 
ATOM      9  C   UNL     1       8.617  -1.254  26.820  0.00  0.00    +0.000 C 
ATOM     10  C   UNL     1       8.373  -2.706  26.360  0.00  0.00    +0.000 C 
ATOM     11  C   UNL     1       8.375  -3.964  24.195  0.00  0.00    +0.000 C 
ATOM     12  C   UNL     1       7.105  -4.576  23.548  0.00  0.00    +0.000 C 
ATOM     13  C   UNL     1       6.333  -3.540  22.674  0.00  0.00    +0.000 C 
ATOM     14  C   UNL     1       6.450  -3.985  21.237  0.00  0.00    +0.000 C 
ATOM     15  O   UNL     1       4.984  -3.568  23.046  0.00  0.00    +0.000 OA
BRANCH   7  16
ATOM     16  C   UNL     1       9.929  -1.254  23.784  0.00  0.00    +0.000 C 
ATOM     17  O   UNL     1      10.425  -1.822  22.842  0.00  0.00    +0.000 OA
ATOM     18  O   UNL     1      10.476  -0.088  24.203  0.00  0.00    +0.000 OA
ENDBRANCH   7  16
ENDBRANCH   1   2
BRANCH   1  19
ATOM     19  N   UNL     1       7.514   1.299  22.455  0.00  0.00    +0.000 NA
BRANCH  19  20
ATOM     20  C   UNL     1       8.515   2.231  22.601  0.00  0.00    +0.000 C 
BRANCH  20  26
ATOM     21  C   UNL     1       6.943   3.643  23.981  0.00  0.00    +0.000 C 
ATOM     22  C   UNL     1       7.114   3.722  25.496  0.00  0.00    +0.000 C 
ATOM     23  C   UNL     1       8.192   4.724  25.825  0.00  0.00    +0.000 C 
ATOM     24  C   UNL     1       8.952   5.326  24.786  0.00  0.00    +0.000 C 
ATOM     25  C   UNL     1       9.274   4.469  23.668  0.00  0.00    +0.000 C 
ATOM     26  C   UNL     1       8.344   3.451  23.369  0.00  0.00    +0.000 C 
ATOM     27  F   UNL     1      10.079   5.851  25.280  0.00  0.00    +0.000 F 
BRANCH  21  28
ATOM     28  N   UNL     1       6.415   4.898  23.499  0.00  0.00    +0.000 NA
BRANCH  28  30
ATOM     29  C   UNL     1       4.616   3.332  23.067  0.00  0.00    +0.000 C 
ATOM     30  C   UNL     1       5.295   4.627  22.646  0.00  0.00    +0.000 C 
ENDBRANCH  28  30
ENDBRANCH  21  28
ENDBRANCH  20  26
ENDBRANCH  19  20
ENDBRANCH   1  19
BRANCH   1  31
ATOM     31  C   UNL     1       7.924  -0.532  20.898  0.00  0.00    +0.000 C 
BRANCH  31  32
ATOM     32  C   UNL     1       7.138   0.311  19.982  0.00  0.00    +0.000 C 
ATOM     33  C   UNL     1       5.974   0.516  19.357  0.00  0.00    +0.000 C 
ATOM     34  F   UNL     1       5.359   1.714  19.726  0.00  0.00    +0.000 F 
BRANCH  33  35
ATOM     35  C   UNL     1       5.710   0.293  17.850  0.00  0.00    +0.000 C 
ATOM     36  O   UNL     1       6.375   1.316  17.156  0.00  0.00    +0.000 OA
ENDBRANCH  33  35
ENDBRANCH  31  32
ENDBRANCH   1  31
TORSDOF 10
ENDMDL
MODEL 7
REMARK VINA RESULT:      -6.9      2.196      5.197
REMARK  Name = 
REMARK  10 active torsions:
REMARK  status: ('A' for Active; 'I' for Inactive)
REMARK    1  A    between atoms: C_2  and  N_3
REMARK    2  A    between atoms: N_3  and  C_4
REMARK    3  A    between atoms: C_9  and  C_10
REMARK    4  A    between atoms: C_10  and  N_11
REMARK    5  A    between atoms: N_11  and  C_12
REMARK    6  A    between atoms: C_12  and  C_13
REMARK    7  A    between atoms: C_12  and  C_31
REMARK    8  A    between atoms: C_19  and  C_23
REMARK    9  A    between atoms: C_31  and  C_32
REMARK   10  A    between atoms: C_33  and  C_34
REMARK                            x       y       z     vdW  Elec       q    Type
REMARK                         _______ _______ _______ _____ _____    ______ ____
ROOT
ATOM      1  C   UNL     1       8.298  -0.934  24.949  0.00  0.00    +0.000 C 
ENDROOT
BRANCH   1   2
ATOM      2  C   UNL     1       7.549  -0.105  23.999  0.00  0.00    +0.000 C 
ATOM      3  C   UNL     1       6.075  -0.619  24.031  0.00  0.00    +0.000 C 
ATOM      4  C   UNL     1       7.571   1.337  24.162  0.00  0.00    +0.000 C 
ATOM      5  C   UNL     1       6.608   1.386  22.721  0.00  0.00    +0.000 C 
ATOM      6  C   UNL     1       7.893   0.959  21.828  0.00  0.00    +0.000 C 
ATOM      7  C   UNL     1       8.105  -0.360  22.537  0.00  0.00    +0.000 C 
ATOM      8  C   UNL     1       7.159  -1.376  21.853  0.00  0.00    +0.000 C 
ATOM      9  C   UNL     1       6.905  -0.834  20.430  0.00  0.00    +0.000 C 
ATOM     10  C   UNL     1       7.323   0.651  20.444  0.00  0.00    +0.000 C 
ATOM     11  C   UNL     1       8.715   2.146  21.892  0.00  0.00    +0.000 C 
ATOM     12  C   UNL     1       8.139   3.308  22.743  0.00  0.00    +0.000 C 
ATOM     13  C   UNL     1       7.634   2.822  24.136  0.00  0.00    +0.000 C 
ATOM     14  C   UNL     1       8.547   3.416  25.180  0.00  0.00    +0.000 C 
ATOM     15  O   UNL     1       6.341   3.319  24.334  0.00  0.00    +0.000 OA
BRANCH   7  16
ATOM     16  C   UNL     1       9.461  -0.848  22.528  0.00  0.00    +0.000 C 
ATOM     17  O   UNL     1      10.451  -0.470  23.107  0.00  0.00    +0.000 OA
ATOM     18  O   UNL     1       9.413  -2.128  22.087  0.00  0.00    +0.000 OA
ENDBRANCH   7  16
ENDBRANCH   1   2
BRANCH   1  19
ATOM     19  N   UNL     1       7.448  -2.077  25.326  0.00  0.00    +0.000 NA
BRANCH  19  20
ATOM     20  C   UNL     1       8.022  -3.279  24.982  0.00  0.00    +0.000 C 
BRANCH  20  26
ATOM     21  C   UNL     1       5.825  -4.433  24.520  0.00  0.00    +0.000 C 
ATOM     22  C   UNL     1       5.053  -4.126  23.239  0.00  0.00    +0.000 C 
ATOM     23  C   UNL     1       5.635  -4.931  22.103  0.00  0.00    +0.000 C 
ATOM     24  C   UNL     1       6.809  -5.705  22.301  0.00  0.00    +0.000 C 
ATOM     25  C   UNL     1       7.805  -5.123  23.171  0.00  0.00    +0.000 C 
ATOM     26  C   UNL     1       7.325  -4.285  24.201  0.00  0.00    +0.000 C 
ATOM     27  F   UNL     1       7.371  -6.003  21.123  0.00  0.00    +0.000 F 
BRANCH  21  28
ATOM     28  N   UNL     1       5.583  -5.805  24.901  0.00  0.00    +0.000 NA
BRANCH  28  30
ATOM     29  C   UNL     1       4.994  -4.769  27.012  0.00  0.00    +0.000 C 
ATOM     30  C   UNL     1       5.718  -5.917  26.324  0.00  0.00    +0.000 C 
ENDBRANCH  28  30
ENDBRANCH  21  28
ENDBRANCH  20  26
ENDBRANCH  19  20
ENDBRANCH   1  19
BRANCH   1  31
ATOM     31  C   UNL     1       8.857  -0.251  26.117  0.00  0.00    +0.000 C 
BRANCH  31  32
ATOM     32  C   UNL     1       7.973  -0.110  27.285  0.00  0.00    +0.000 C 
ATOM     33  C   UNL     1       6.999   0.581  27.887  0.00  0.00    +0.000 C 
ATOM     34  F   UNL     1       5.839  -0.170  28.088  0.00  0.00    +0.000 F 
BRANCH  33  35
ATOM     35  C   UNL     1       7.179   1.512  29.109  0.00  0.00    +0.000 C 
ATOM     36  O   UNL     1       7.306   2.821  28.618  0.00  0.00    +0.000 OA
ENDBRANCH  33  35
ENDBRANCH  31  32
ENDBRANCH   1  31
TORSDOF 10
ENDMDL
MODEL 8
REMARK VINA RESULT:      -6.8      2.260      4.407
REMARK  Name = 
REMARK  10 active torsions:
REMARK  status: ('A' for Active; 'I' for Inactive)
REMARK    1  A    between atoms: C_2  and  N_3
REMARK    2  A    between atoms: N_3  and  C_4
REMARK    3  A    between atoms: C_9  and  C_10
REMARK    4  A    between atoms: C_10  and  N_11
REMARK    5  A    between atoms: N_11  and  C_12
REMARK    6  A    between atoms: C_12  and  C_13
REMARK    7  A    between atoms: C_12  and  C_31
REMARK    8  A    between atoms: C_19  and  C_23
REMARK    9  A    between atoms: C_31  and  C_32
REMARK   10  A    between atoms: C_33  and  C_34
REMARK                            x       y       z     vdW  Elec       q    Type
REMARK                         _______ _______ _______ _____ _____    ______ ____
ROOT
ATOM      1  C   UNL     1       8.170  -1.167  22.472  0.00  0.00    +0.000 C 
ENDROOT
BRANCH   1   2
ATOM      2  C   UNL     1       8.756  -0.566  23.675  0.00  0.00    +0.000 C 
ATOM      3  C   UNL     1       9.557  -1.700  24.389  0.00  0.00    +0.000 C 
ATOM      4  C   UNL     1       9.591   0.612  23.533  0.00  0.00    +0.000 C 
ATOM      5  C   UNL     1       9.698   0.588  25.262  0.00  0.00    +0.000 C 
ATOM      6  C   UNL     1       8.156   1.074  25.382  0.00  0.00    +0.000 C 
ATOM      7  C   UNL     1       7.590  -0.125  24.655  0.00  0.00    +0.000 C 
ATOM      8  C   UNL     1       7.432  -1.239  25.717  0.00  0.00    +0.000 C 
ATOM      9  C   UNL     1       7.301  -0.521  27.076  0.00  0.00    +0.000 C 
ATOM     10  C   UNL     1       7.809   0.920  26.862  0.00  0.00    +0.000 C 
ATOM     11  C   UNL     1       8.231   2.441  24.919  0.00  0.00    +0.000 C 
ATOM     12  C   UNL     1       9.641   2.918  24.482  0.00  0.00    +0.000 C 
ATOM     13  C   UNL     1      10.338   1.896  23.532  0.00  0.00    +0.000 C 
ATOM     14  C   UNL     1      10.446   2.544  22.173  0.00  0.00    +0.000 C 
ATOM     15  O   UNL     1      11.628   1.652  24.017  0.00  0.00    +0.000 OA
BRANCH   7  16
ATOM     16  C   UNL     1       6.340   0.105  23.974  0.00  0.00    +0.000 C 
ATOM     17  O   UNL     1       6.049   0.844  23.065  0.00  0.00    +0.000 OA
ATOM     18  O   UNL     1       5.563  -0.981  24.206  0.00  0.00    +0.000 OA
ENDBRANCH   7  16
ENDBRANCH   1   2
BRANCH   1  19
ATOM     19  N   UNL     1       8.193  -2.631  22.636  0.00  0.00    +0.000 NA
BRANCH  19  20
ATOM     20  C   UNL     1       7.020  -3.212  22.216  0.00  0.00    +0.000 C 
BRANCH  20  26
ATOM     21  C   UNL     1       6.650  -4.330  24.449  0.00  0.00    +0.000 C 
ATOM     22  C   UNL     1       5.297  -4.218  25.147  0.00  0.00    +0.000 C 
ATOM     23  C   UNL     1       4.348  -5.234  24.560  0.00  0.00    +0.000 C 
ATOM     24  C   UNL     1       4.738  -6.013  23.438  0.00  0.00    +0.000 C 
ATOM     25  C   UNL     1       5.546  -5.333  22.452  0.00  0.00    +0.000 C 
ATOM     26  C   UNL     1       6.389  -4.308  22.931  0.00  0.00    +0.000 C 
ATOM     27  F   UNL     1       3.660  -6.538  22.842  0.00  0.00    +0.000 F 
BRANCH  21  28
ATOM     28  N   UNL     1       7.249  -5.602  24.779  0.00  0.00    +0.000 NA
BRANCH  28  30
ATOM     29  C   UNL     1       8.766  -4.677  26.427  0.00  0.00    +0.000 C 
ATOM     30  C   UNL     1       8.633  -5.391  25.091  0.00  0.00    +0.000 C 
ENDBRANCH  28  30
ENDBRANCH  21  28
ENDBRANCH  20  26
ENDBRANCH  19  20
ENDBRANCH   1  19
BRANCH   1  31
ATOM     31  C   UNL     1       8.733  -0.744  21.189  0.00  0.00    +0.000 C 
BRANCH  31  32
ATOM     32  C   UNL     1       7.829  -0.024  20.277  0.00  0.00    +0.000 C 
ATOM     33  C   UNL     1       6.589   0.123  19.800  0.00  0.00    +0.000 C 
ATOM     34  F   UNL     1       6.046   1.383  20.065  0.00  0.00    +0.000 F 
BRANCH  33  35
ATOM     35  C   UNL     1       6.105  -0.316  18.399  0.00  0.00    +0.000 C 
ATOM     36  O   UNL     1       6.320   0.765  17.528  0.00  0.00    +0.000 OA
ENDBRANCH  33  35
ENDBRANCH  31  32
ENDBRANCH   1  31
TORSDOF 10
ENDMDL
MODEL 9
REMARK VINA RESULT:      -6.7      2.657      7.361
REMARK  Name = 
REMARK  10 active torsions:
REMARK  status: ('A' for Active; 'I' for Inactive)
REMARK    1  A    between atoms: C_2  and  N_3
REMARK    2  A    between atoms: N_3  and  C_4
REMARK    3  A    between atoms: C_9  and  C_10
REMARK    4  A    between atoms: C_10  and  N_11
REMARK    5  A    between atoms: N_11  and  C_12
REMARK    6  A    between atoms: C_12  and  C_13
REMARK    7  A    between atoms: C_12  and  C_31
REMARK    8  A    between atoms: C_19  and  C_23
REMARK    9  A    between atoms: C_31  and  C_32
REMARK   10  A    between atoms: C_33  and  C_34
REMARK                            x       y       z     vdW  Elec       q    Type
REMARK                         _______ _______ _______ _____ _____    ______ ____
ROOT
ATOM      1  C   UNL     1       7.737  -2.038  25.372  0.00  0.00    +0.000 C 
ENDROOT
BRANCH   1   2
ATOM      2  C   UNL     1       7.608  -3.483  25.153  0.00  0.00    +0.000 C 
ATOM      3  C   UNL     1       9.039  -4.008  24.820  0.00  0.00    +0.000 C 
ATOM      4  C   UNL     1       7.016  -4.298  26.198  0.00  0.00    +0.000 C 
ATOM      5  C   UNL     1       7.214  -5.623  25.099  0.00  0.00    +0.000 C 
ATOM      6  C   UNL     1       6.018  -5.051  24.166  0.00  0.00    +0.000 C 
ATOM      7  C   UNL     1       6.704  -3.735  23.876  0.00  0.00    +0.000 C 
ATOM      8  C   UNL     1       7.653  -3.996  22.682  0.00  0.00    +0.000 C 
ATOM      9  C   UNL     1       7.068  -5.207  21.925  0.00  0.00    +0.000 C 
ATOM     10  C   UNL     1       6.079  -5.891  22.891  0.00  0.00    +0.000 C 
ATOM     11  C   UNL     1       4.853  -5.284  24.988  0.00  0.00    +0.000 C 
ATOM     12  C   UNL     1       5.134  -5.926  26.372  0.00  0.00    +0.000 C 
ATOM     13  C   UNL     1       6.298  -5.210  27.125  0.00  0.00    +0.000 C 
ATOM     14  C   UNL     1       5.701  -4.520  28.328  0.00  0.00    +0.000 C 
ATOM     15  O   UNL     1       7.201  -6.184  27.567  0.00  0.00    +0.000 OA
BRANCH   7  16
ATOM     16  C   UNL     1       5.820  -2.634  23.586  0.00  0.00    +0.000 C 
ATOM     17  O   UNL     1       4.939  -2.123  24.235  0.00  0.00    +0.000 OA
ATOM     18  O   UNL     1       6.403  -1.913  22.599  0.00  0.00    +0.000 OA
ENDBRANCH   7  16
ENDBRANCH   1   2
BRANCH   1  19
ATOM     19  N   UNL     1       9.084  -1.629  24.937  0.00  0.00    +0.000 NA
BRANCH  19  20
ATOM     20  C   UNL     1       9.373  -0.337  25.307  0.00  0.00    +0.000 C 
BRANCH  20  26
ATOM     21  C   UNL     1       8.358   1.134  23.525  0.00  0.00    +0.000 C 
ATOM     22  C   UNL     1       8.094   2.611  23.810  0.00  0.00    +0.000 C 
ATOM     23  C   UNL     1       9.372   3.390  23.626  0.00  0.00    +0.000 C 
ATOM     24  C   UNL     1      10.593   2.712  23.369  0.00  0.00    +0.000 C 
ATOM     25  C   UNL     1      10.771   1.456  24.060  0.00  0.00    +0.000 C 
ATOM     26  C   UNL     1       9.598   0.723  24.341  0.00  0.00    +0.000 C 
ATOM     27  F   UNL     1      11.633   3.513  23.633  0.00  0.00    +0.000 F 
BRANCH  21  28
ATOM     28  N   UNL     1       8.671   0.971  22.125  0.00  0.00    +0.000 NA
BRANCH  28  30
ATOM     29  C   UNL     1       7.598   0.473  20.010  0.00  0.00    +0.000 C 
ATOM     30  C   UNL     1       7.472   1.160  21.361  0.00  0.00    +0.000 C 
ENDBRANCH  28  30
ENDBRANCH  21  28
ENDBRANCH  20  26
ENDBRANCH  19  20
ENDBRANCH   1  19
BRANCH   1  31
ATOM     31  C   UNL     1       7.415  -1.547  26.713  0.00  0.00    +0.000 C 
BRANCH  31  32
ATOM     32  C   UNL     1       6.347  -0.539  26.809  0.00  0.00    +0.000 C 
ATOM     33  C   UNL     1       5.933   0.697  26.513  0.00  0.00    +0.000 C 
ATOM     34  F   UNL     1       4.793   0.713  25.705  0.00  0.00    +0.000 F 
BRANCH  33  35
ATOM     35  C   UNL     1       5.822   1.873  27.511  0.00  0.00    +0.000 C 
ATOM     36  O   UNL     1       7.070   2.002  28.140  0.00  0.00    +0.000 OA
ENDBRANCH  33  35
ENDBRANCH  31  32
ENDBRANCH   1  31
TORSDOF 10
ENDMDL
