MODEL 1
REMARK VINA RESULT:      -6.6      0.000      0.000
REMARK  Name = 
REMARK  5 active torsions:
REMARK  status: ('A' for Active; 'I' for Inactive)
REMARK    1  A    between atoms: N_10  and  C_11
REMARK    2  A    between atoms: N_10  and  C_25
REMARK    3  A    between atoms: C_16  and  N_17
REMARK    4  A    between atoms: C_25  and  C_26
REMARK    5  A    between atoms: C_31  and  C_32
REMARK                            x       y       z     vdW  Elec       q    Type
REMARK                         _______ _______ _______ _____ _____    ______ ____
ROOT
ATOM      1  O   UNL     1       8.701   5.201  25.530  0.00  0.00    +0.000 OA
ATOM      2  C   UNL     1       9.222   5.598  24.289  0.00  0.00    +0.000 C 
ATOM      3  C   UNL     1      10.606   5.016  24.141  0.00  0.00    +0.000 C 
ATOM      4  C   UNL     1      10.600   3.785  23.258  0.00  0.00    +0.000 C 
ATOM      5  N   UNL     1       9.417   2.980  23.544  0.00  0.00    +0.000 N 
ATOM      6  C   UNL     1       8.112   3.579  23.343  0.00  0.00    +0.000 C 
ATOM      7  C   UNL     1       8.294   5.094  23.202  0.00  0.00    +0.000 C 
ATOM      8  C   UNL     1       9.549   1.806  24.190  0.00  0.00    +0.000 C 
ATOM      9  O   UNL     1      10.626   1.217  24.142  0.00  0.00    +0.000 OA
ATOM     10  N   UNL     1       8.419   1.190  24.370  0.00  0.00    +0.000 N 
ENDROOT
BRANCH  10  11
ATOM     11  C   UNL     1       8.118   1.040  25.739  0.00  0.00    +0.000 A 
ATOM     12  C   UNL     1       9.328  -0.048  26.185  0.00  0.00    +0.000 A 
ATOM     13  C   UNL     1       8.676  -1.284  26.679  0.00  0.00    +0.000 A 
ATOM     14  C   UNL     1       7.285  -1.836  26.778  0.00  0.00    +0.000 A 
ATOM     15  C   UNL     1       6.202  -0.833  26.403  0.00  0.00    +0.000 A 
ATOM     16  C   UNL     1       6.784   0.542  26.164  0.00  0.00    +0.000 A 
ATOM     17  C   UNL     1       5.080  -1.271  25.555  0.00  0.00    +0.000 C 
BRANCH  16  18
ATOM     18  N   UNL     1       6.173   1.453  27.104  0.00  0.00    +0.000 N 
ATOM     19  C   UNL     1       4.778   1.070  27.411  0.00  0.00    +0.000 C 
ATOM     20  C   UNL     1       3.871   1.717  26.399  0.00  0.00    +0.000 C 
ATOM     21  C   UNL     1       4.491   2.557  25.407  0.00  0.00    +0.000 C 
ATOM     22  C   UNL     1       5.704   3.320  25.671  0.00  0.00    +0.000 C 
ATOM     23  C   UNL     1       6.426   2.869  26.953  0.00  0.00    +0.000 C 
ATOM     24  O   UNL     1       4.301   2.192  24.100  0.00  0.00    +0.000 OA
ENDBRANCH  16  18
ENDBRANCH  10  11
BRANCH  10  25
ATOM     25  C   UNL     1       7.519   0.670  23.414  0.00  0.00    +0.000 C 
BRANCH  25  26
ATOM     26  C   UNL     1       8.144  -0.533  22.683  0.00  0.00    +0.000 A 
ATOM     27  C   UNL     1       7.127  -0.689  21.328  0.00  0.00    +0.000 A 
ATOM     28  N   UNL     1       6.554  -1.909  21.499  0.00  0.00    +0.000 NA
ATOM     29  C   UNL     1       6.767  -3.085  21.994  0.00  0.00    +0.000 A 
ATOM     30  C   UNL     1       7.638  -3.113  23.319  0.00  0.00    +0.000 A 
ATOM     31  C   UNL     1       8.455  -1.816  23.267  0.00  0.00    +0.000 A 
BRANCH  31  32
ATOM     32  C   UNL     1       9.871  -2.172  23.244  0.00  0.00    +0.000 C 
ATOM     33  O   UNL     1      10.208  -3.180  23.862  0.00  0.00    +0.000 OA
ATOM     34  O   UNL     1      10.522  -1.792  22.170  0.00  0.00    +0.000 OA
ENDBRANCH  31  32
ENDBRANCH  25  26
ENDBRANCH  10  25
TORSDOF 5
ENDMDL
MODEL 2
REMARK VINA RESULT:      -6.3      4.053      7.128
REMARK  Name = 
REMARK  5 active torsions:
REMARK  status: ('A' for Active; 'I' for Inactive)
REMARK    1  A    between atoms: N_10  and  C_11
REMARK    2  A    between atoms: N_10  and  C_25
REMARK    3  A    between atoms: C_16  and  N_17
REMARK    4  A    between atoms: C_25  and  C_26
REMARK    5  A    between atoms: C_31  and  C_32
REMARK                            x       y       z     vdW  Elec       q    Type
REMARK                         _______ _______ _______ _____ _____    ______ ____
ROOT
ATOM      1  O   UNL     1       7.846  -0.137  23.840  0.00  0.00    +0.000 OA
ATOM      2  C   UNL     1       8.646   0.262  24.922  0.00  0.00    +0.000 C 
ATOM      3  C   UNL     1       7.766   0.926  25.951  0.00  0.00    +0.000 C 
ATOM      4  C   UNL     1       7.443  -0.014  27.094  0.00  0.00    +0.000 C 
ATOM      5  N   UNL     1       7.201  -1.356  26.576  0.00  0.00    +0.000 N 
ATOM      6  C   UNL     1       8.269  -2.017  25.852  0.00  0.00    +0.000 C 
ATOM      7  C   UNL     1       9.325  -0.968  25.489  0.00  0.00    +0.000 C 
ATOM      8  C   UNL     1       5.950  -1.856  26.577  0.00  0.00    +0.000 C 
ATOM      9  O   UNL     1       5.131  -1.411  27.376  0.00  0.00    +0.000 OA
ATOM     10  N   UNL     1       5.880  -3.062  26.097  0.00  0.00    +0.000 N 
ENDROOT
BRANCH  10  11
ATOM     11  C   UNL     1       5.085  -3.116  24.935  0.00  0.00    +0.000 A 
ATOM     12  C   UNL     1       3.591  -2.676  25.584  0.00  0.00    +0.000 A 
ATOM     13  C   UNL     1       2.649  -3.800  25.371  0.00  0.00    +0.000 A 
ATOM     14  C   UNL     1       2.703  -5.205  24.852  0.00  0.00    +0.000 A 
ATOM     15  C   UNL     1       4.047  -5.578  24.240  0.00  0.00    +0.000 A 
ATOM     16  C   UNL     1       4.968  -4.381  24.163  0.00  0.00    +0.000 A 
ATOM     17  C   UNL     1       4.638  -6.891  24.549  0.00  0.00    +0.000 C 
BRANCH  16  18
ATOM     18  N   UNL     1       5.305  -4.167  22.775  0.00  0.00    +0.000 N 
ATOM     19  C   UNL     1       5.550  -5.442  22.067  0.00  0.00    +0.000 C 
ATOM     20  C   UNL     1       7.002  -5.807  22.226  0.00  0.00    +0.000 C 
ATOM     21  C   UNL     1       7.830  -4.887  22.962  0.00  0.00    +0.000 C 
ATOM     22  C   UNL     1       7.586  -3.451  22.978  0.00  0.00    +0.000 C 
ATOM     23  C   UNL     1       6.193  -3.075  22.443  0.00  0.00    +0.000 C 
ATOM     24  O   UNL     1       8.450  -5.389  24.075  0.00  0.00    +0.000 OA
ENDBRANCH  16  18
ENDBRANCH  10  11
BRANCH  10  25
ATOM     25  C   UNL     1       6.459  -4.255  26.582  0.00  0.00    +0.000 C 
BRANCH  25  26
ATOM     26  C   UNL     1       5.874  -4.618  27.960  0.00  0.00    +0.000 A 
ATOM     27  C   UNL     1       6.707  -6.053  28.331  0.00  0.00    +0.000 A 
ATOM     28  N   UNL     1       5.723  -6.989  28.382  0.00  0.00    +0.000 NA
ATOM     29  C   UNL     1       4.472  -7.150  28.669  0.00  0.00    +0.000 A 
ATOM     30  C   UNL     1       3.532  -5.925  28.307  0.00  0.00    +0.000 A 
ATOM     31  C   UNL     1       4.471  -4.713  28.291  0.00  0.00    +0.000 A 
BRANCH  31  32
ATOM     32  C   UNL     1       4.017  -3.772  29.310  0.00  0.00    +0.000 C 
ATOM     33  O   UNL     1       2.927  -3.231  29.130  0.00  0.00    +0.000 OA
ATOM     34  O   UNL     1       4.458  -4.010  30.523  0.00  0.00    +0.000 OA
ENDBRANCH  31  32
ENDBRANCH  25  26
ENDBRANCH  10  25
TORSDOF 5
ENDMDL
MODEL 3
REMARK VINA RESULT:      -6.2      2.163      6.571
REMARK  Name = 
REMARK  5 active torsions:
REMARK  status: ('A' for Active; 'I' for Inactive)
REMARK    1  A    between atoms: N_10  and  C_11
REMARK    2  A    between atoms: N_10  and  C_25
REMARK    3  A    between atoms: C_16  and  N_17
REMARK    4  A    between atoms: C_25  and  C_26
REMARK    5  A    between atoms: C_31  and  C_32
REMARK                            x       y       z     vdW  Elec       q    Type
REMARK                         _______ _______ _______ _____ _____    ______ ____
ROOT
ATOM      1  O   UNL     1       9.298  -4.432  23.884  0.00  0.00    +0.000 OA
ATOM      2  C   UNL     1       8.585  -5.072  24.910  0.00  0.00    +0.000 C 
ATOM      3  C   UNL     1       9.186  -4.670  26.234  0.00  0.00    +0.000 C 
ATOM      4  C   UNL     1       8.360  -3.600  26.917  0.00  0.00    +0.000 C 
ATOM      5  N   UNL     1       7.884  -2.639  25.927  0.00  0.00    +0.000 N 
ATOM      6  C   UNL     1       7.038  -3.121  24.852  0.00  0.00    +0.000 C 
ATOM      7  C   UNL     1       7.133  -4.650  24.814  0.00  0.00    +0.000 C 
ATOM      8  C   UNL     1       8.406  -1.399  25.895  0.00  0.00    +0.000 C 
ATOM      9  O   UNL     1       8.920  -0.942  26.913  0.00  0.00    +0.000 OA
ATOM     10  N   UNL     1       7.886  -0.646  24.973  0.00  0.00    +0.000 N 
ENDROOT
BRANCH  10  11
ATOM     11  C   UNL     1       8.844  -0.252  24.017  0.00  0.00    +0.000 A 
ATOM     12  C   UNL     1       9.830   0.721  24.979  0.00  0.00    +0.000 A 
ATOM     13  C   UNL     1       9.811   2.093  24.418  0.00  0.00    +0.000 A 
ATOM     14  C   UNL     1       9.088   2.833  23.332  0.00  0.00    +0.000 A 
ATOM     15  C   UNL     1       8.226   1.937  22.452  0.00  0.00    +0.000 A 
ATOM     16  C   UNL     1       8.426   0.477  22.791  0.00  0.00    +0.000 A 
ATOM     17  C   UNL     1       6.875   2.386  22.075  0.00  0.00    +0.000 C 
BRANCH  16  18
ATOM     18  N   UNL     1       8.911  -0.192  21.607  0.00  0.00    +0.000 N 
ATOM     19  C   UNL     1       8.113   0.158  20.412  0.00  0.00    +0.000 C 
ATOM     20  C   UNL     1       6.954  -0.798  20.314  0.00  0.00    +0.000 C 
ATOM     21  C   UNL     1       6.867  -1.825  21.320  0.00  0.00    +0.000 C 
ATOM     22  C   UNL     1       8.043  -2.402  21.958  0.00  0.00    +0.000 C 
ATOM     23  C   UNL     1       9.319  -1.576  21.716  0.00  0.00    +0.000 C 
ATOM     24  O   UNL     1       5.725  -1.835  22.077  0.00  0.00    +0.000 OA
ENDBRANCH  16  18
ENDBRANCH  10  11
BRANCH  10  25
ATOM     25  C   UNL     1       6.556  -0.191  24.832  0.00  0.00    +0.000 C 
BRANCH  25  26
ATOM     26  C   UNL     1       6.203   0.801  25.957  0.00  0.00    +0.000 A 
ATOM     27  C   UNL     1       4.698   0.211  26.487  0.00  0.00    +0.000 A 
ATOM     28  N   UNL     1       3.840   1.225  26.201  0.00  0.00    +0.000 NA
ATOM     29  C   UNL     1       3.768   2.512  26.097  0.00  0.00    +0.000 A 
ATOM     30  C   UNL     1       5.070   3.220  25.533  0.00  0.00    +0.000 A 
ATOM     31  C   UNL     1       6.207   2.241  25.853  0.00  0.00    +0.000 A 
BRANCH  31  32
ATOM     32  C   UNL     1       7.153   2.916  26.737  0.00  0.00    +0.000 C 
ATOM     33  O   UNL     1       7.599   3.999  26.362  0.00  0.00    +0.000 OA
ATOM     34  O   UNL     1       7.003   2.657  28.014  0.00  0.00    +0.000 OA
ENDBRANCH  31  32
ENDBRANCH  25  26
ENDBRANCH  10  25
TORSDOF 5
ENDMDL
MODEL 4
REMARK VINA RESULT:      -6.2      2.060      6.044
REMARK  Name = 
REMARK  5 active torsions:
REMARK  status: ('A' for Active; 'I' for Inactive)
REMARK    1  A    between atoms: N_10  and  C_11
REMARK    2  A    between atoms: N_10  and  C_25
REMARK    3  A    between atoms: C_16  and  N_17
REMARK    4  A    between atoms: C_25  and  C_26
REMARK    5  A    between atoms: C_31  and  C_32
REMARK                            x       y       z     vdW  Elec       q    Type
REMARK                         _______ _______ _______ _____ _____    ______ ____
ROOT
ATOM      1  O   UNL     1       5.929  -1.501  20.083  0.00  0.00    +0.000 OA
ATOM      2  C   UNL     1       6.297  -0.581  19.089  0.00  0.00    +0.000 C 
ATOM      3  C   UNL     1       5.353   0.593  19.148  0.00  0.00    +0.000 C 
ATOM      4  C   UNL     1       5.978   1.773  19.864  0.00  0.00    +0.000 C 
ATOM      5  N   UNL     1       6.747   1.302  21.011  0.00  0.00    +0.000 N 
ATOM      6  C   UNL     1       7.851   0.393  20.773  0.00  0.00    +0.000 C 
ATOM      7  C   UNL     1       7.727  -0.151  19.346  0.00  0.00    +0.000 C 
ATOM      8  C   UNL     1       6.291   1.528  22.258  0.00  0.00    +0.000 C 
ATOM      9  O   UNL     1       5.520   2.465  22.451  0.00  0.00    +0.000 OA
ATOM     10  N   UNL     1       7.077   1.065  23.183  0.00  0.00    +0.000 N 
ENDROOT
BRANCH  10  11
ATOM     11  C   UNL     1       6.447   0.066  23.952  0.00  0.00    +0.000 A 
ATOM     12  C   UNL     1       5.362   1.015  24.828  0.00  0.00    +0.000 A 
ATOM     13  C   UNL     1       5.678   0.865  26.268  0.00  0.00    +0.000 A 
ATOM     14  C   UNL     1       6.733   0.207  27.106  0.00  0.00    +0.000 A 
ATOM     15  C   UNL     1       7.686  -0.672  26.307  0.00  0.00    +0.000 A 
ATOM     16  C   UNL     1       7.244  -0.794  24.865  0.00  0.00    +0.000 A 
ATOM     17  C   UNL     1       9.130  -0.608  26.589  0.00  0.00    +0.000 C 
BRANCH  16  18
ATOM     18  N   UNL     1       7.007  -2.192  24.590  0.00  0.00    +0.000 N 
ATOM     19  C   UNL     1       7.872  -3.068  25.410  0.00  0.00    +0.000 C 
ATOM     20  C   UNL     1       9.170  -3.280  24.677  0.00  0.00    +0.000 C 
ATOM     21  C   UNL     1       9.301  -2.658  23.385  0.00  0.00    +0.000 C 
ATOM     22  C   UNL     1       8.164  -2.435  22.502  0.00  0.00    +0.000 C 
ATOM     23  C   UNL     1       6.811  -2.599  23.215  0.00  0.00    +0.000 C 
ATOM     24  O   UNL     1      10.336  -1.772  23.243  0.00  0.00    +0.000 OA
ENDBRANCH  16  18
ENDBRANCH  10  11
BRANCH  10  25
ATOM     25  C   UNL     1       8.404   1.432  23.500  0.00  0.00    +0.000 C 
BRANCH  25  26
ATOM     26  C   UNL     1       8.707   2.853  22.988  0.00  0.00    +0.000 A 
ATOM     27  C   UNL     1      10.307   2.695  22.434  0.00  0.00    +0.000 A 
ATOM     28  N   UNL     1      11.009   3.530  23.244  0.00  0.00    +0.000 NA
ATOM     29  C   UNL     1      10.911   4.629  23.920  0.00  0.00    +0.000 A 
ATOM     30  C   UNL     1       9.494   4.893  24.581  0.00  0.00    +0.000 A 
ATOM     31  C   UNL     1       8.514   4.081  23.723  0.00  0.00    +0.000 A 
BRANCH  31  32
ATOM     32  C   UNL     1       7.555   5.007  23.129  0.00  0.00    +0.000 C 
ATOM     33  O   UNL     1       7.447   4.995  21.904  0.00  0.00    +0.000 OA
ATOM     34  O   UNL     1       6.532   5.313  23.891  0.00  0.00    +0.000 OA
ENDBRANCH  31  32
ENDBRANCH  25  26
ENDBRANCH  10  25
TORSDOF 5
ENDMDL
MODEL 5
REMARK VINA RESULT:      -6.2      3.122      5.782
REMARK  Name = 
REMARK  5 active torsions:
REMARK  status: ('A' for Active; 'I' for Inactive)
REMARK    1  A    between atoms: N_10  and  C_11
REMARK    2  A    between atoms: N_10  and  C_25
REMARK    3  A    between atoms: C_16  and  N_17
REMARK    4  A    between atoms: C_25  and  C_26
REMARK    5  A    between atoms: C_31  and  C_32
REMARK                            x       y       z     vdW  Elec       q    Type
REMARK                         _______ _______ _______ _____ _____    ______ ____
ROOT
ATOM      1  O   UNL     1       3.775  -2.172  28.846  0.00  0.00    +0.000 OA
ATOM      2  C   UNL     1       3.554  -0.786  28.809  0.00  0.00    +0.000 C 
ATOM      3  C   UNL     1       4.787  -0.089  29.327  0.00  0.00    +0.000 C 
ATOM      4  C   UNL     1       5.635   0.453  28.195  0.00  0.00    +0.000 C 
ATOM      5  N   UNL     1       5.657  -0.505  27.094  0.00  0.00    +0.000 N 
ATOM      6  C   UNL     1       4.399  -0.862  26.468  0.00  0.00    +0.000 C 
ATOM      7  C   UNL     1       3.259  -0.391  27.376  0.00  0.00    +0.000 C 
ATOM      8  C   UNL     1       6.783  -1.198  26.834  0.00  0.00    +0.000 C 
ATOM      9  O   UNL     1       7.863  -0.736  27.193  0.00  0.00    +0.000 OA
ATOM     10  N   UNL     1       6.665  -2.006  25.823  0.00  0.00    +0.000 N 
ENDROOT
BRANCH  10  11
ATOM     11  C   UNL     1       6.833  -3.352  26.208  0.00  0.00    +0.000 A 
ATOM     12  C   UNL     1       8.474  -3.340  26.597  0.00  0.00    +0.000 A 
ATOM     13  C   UNL     1       9.166  -4.296  25.702  0.00  0.00    +0.000 A 
ATOM     14  C   UNL     1       8.821  -5.151  24.519  0.00  0.00    +0.000 A 
ATOM     15  C   UNL     1       7.333  -5.177  24.199  0.00  0.00    +0.000 A 
ATOM     16  C   UNL     1       6.530  -4.449  25.253  0.00  0.00    +0.000 A 
ATOM     17  C   UNL     1       6.898  -5.070  22.796  0.00  0.00    +0.000 C 
BRANCH  16  18
ATOM     18  N   UNL     1       5.600  -5.391  25.833  0.00  0.00    +0.000 N 
ATOM     19  C   UNL     1       5.364  -6.548  24.943  0.00  0.00    +0.000 C 
ATOM     20  C   UNL     1       4.233  -6.210  24.009  0.00  0.00    +0.000 C 
ATOM     21  C   UNL     1       3.614  -4.920  24.171  0.00  0.00    +0.000 C 
ATOM     22  C   UNL     1       3.523  -4.249  25.461  0.00  0.00    +0.000 C 
ATOM     23  C   UNL     1       4.440  -4.874  26.526  0.00  0.00    +0.000 C 
ATOM     24  O   UNL     1       3.649  -4.091  23.080  0.00  0.00    +0.000 OA
ENDBRANCH  16  18
ENDBRANCH  10  11
BRANCH  10  25
ATOM     25  C   UNL     1       6.419  -1.712  24.464  0.00  0.00    +0.000 C 
BRANCH  25  26
ATOM     26  C   UNL     1       7.601  -0.932  23.858  0.00  0.00    +0.000 A 
ATOM     27  C   UNL     1       6.828   0.449  23.233  0.00  0.00    +0.000 A 
ATOM     28  N   UNL     1       7.039   0.353  21.894  0.00  0.00    +0.000 NA
ATOM     29  C   UNL     1       7.881  -0.084  21.015  0.00  0.00    +0.000 A 
ATOM     30  C   UNL     1       8.634  -1.424  21.408  0.00  0.00    +0.000 A 
ATOM     31  C   UNL     1       8.585  -1.455  22.940  0.00  0.00    +0.000 A 
BRANCH  31  32
ATOM     32  C   UNL     1       9.957  -1.441  23.440  0.00  0.00    +0.000 C 
ATOM     33  O   UNL     1      10.156  -0.890  24.522  0.00  0.00    +0.000 OA
ATOM     34  O   UNL     1      10.700  -2.450  23.053  0.00  0.00    +0.000 OA
ENDBRANCH  31  32
ENDBRANCH  25  26
ENDBRANCH  10  25
TORSDOF 5
ENDMDL
MODEL 6
REMARK VINA RESULT:      -6.1      2.627      5.564
REMARK  Name = 
REMARK  5 active torsions:
REMARK  status: ('A' for Active; 'I' for Inactive)
REMARK    1  A    between atoms: N_10  and  C_11
REMARK    2  A    between atoms: N_10  and  C_25
REMARK    3  A    between atoms: C_16  and  N_17
REMARK    4  A    between atoms: C_25  and  C_26
REMARK    5  A    between atoms: C_31  and  C_32
REMARK                            x       y       z     vdW  Elec       q    Type
REMARK                         _______ _______ _______ _____ _____    ______ ____
ROOT
ATOM      1  O   UNL     1       5.630   2.424  26.761  0.00  0.00    +0.000 OA
ATOM      2  C   UNL     1       5.539   2.080  28.119  0.00  0.00    +0.000 C 
ATOM      3  C   UNL     1       4.375   1.138  28.298  0.00  0.00    +0.000 C 
ATOM      4  C   UNL     1       4.837  -0.300  28.410  0.00  0.00    +0.000 C 
ATOM      5  N   UNL     1       5.927  -0.542  27.471  0.00  0.00    +0.000 N 
ATOM      6  C   UNL     1       7.139   0.242  27.609  0.00  0.00    +0.000 C 
ATOM      7  C   UNL     1       6.843   1.429  28.532  0.00  0.00    +0.000 C 
ATOM      8  C   UNL     1       5.714  -1.303  26.381  0.00  0.00    +0.000 C 
ATOM      9  O   UNL     1       4.800  -2.124  26.396  0.00  0.00    +0.000 OA
ATOM     10  N   UNL     1       6.771  -1.443  25.638  0.00  0.00    +0.000 N 
ENDROOT
BRANCH  10  11
ATOM     11  C   UNL     1       6.584  -0.892  24.354  0.00  0.00    +0.000 A 
ATOM     12  C   UNL     1       5.503  -2.015  23.711  0.00  0.00    +0.000 A 
ATOM     13  C   UNL     1       6.138  -2.639  22.526  0.00  0.00    +0.000 A 
ATOM     14  C   UNL     1       7.474  -2.614  21.847  0.00  0.00    +0.000 A 
ATOM     15  C   UNL     1       8.429  -1.573  22.417  0.00  0.00    +0.000 A 
ATOM     16  C   UNL     1       7.743  -0.700  23.443  0.00  0.00    +0.000 A 
ATOM     17  C   UNL     1       9.838  -1.939  22.645  0.00  0.00    +0.000 C 
BRANCH  16  18
ATOM     18  N   UNL     1       7.810   0.667  22.981  0.00  0.00    +0.000 N 
ATOM     19  C   UNL     1       8.955   0.882  22.069  0.00  0.00    +0.000 C 
ATOM     20  C   UNL     1      10.162   1.241  22.893  0.00  0.00    +0.000 C 
ATOM     21  C   UNL     1       9.977   1.333  24.318  0.00  0.00    +0.000 C 
ATOM     22  C   UNL     1       8.718   1.747  24.922  0.00  0.00    +0.000 C 
ATOM     23  C   UNL     1       7.544   1.727  23.928  0.00  0.00    +0.000 C 
ATOM     24  O   UNL     1      10.747   0.497  25.083  0.00  0.00    +0.000 OA
ENDBRANCH  16  18
ENDBRANCH  10  11
BRANCH  10  25
ATOM     25  C   UNL     1       8.005  -2.058  25.942  0.00  0.00    +0.000 C 
BRANCH  25  26
ATOM     26  C   UNL     1       7.815  -3.571  26.158  0.00  0.00    +0.000 A 
ATOM     27  C   UNL     1       9.365  -4.052  26.668  0.00  0.00    +0.000 A 
ATOM     28  N   UNL     1       9.776  -4.895  25.685  0.00  0.00    +0.000 NA
ATOM     29  C   UNL     1       9.343  -5.749  24.815  0.00  0.00    +0.000 A 
ATOM     30  C   UNL     1       7.934  -5.405  24.174  0.00  0.00    +0.000 A 
ATOM     31  C   UNL     1       7.252  -4.502  25.209  0.00  0.00    +0.000 A 
BRANCH  31  32
ATOM     32  C   UNL     1       6.028  -5.164  25.653  0.00  0.00    +0.000 C 
ATOM     33  O   UNL     1       5.087  -5.194  24.863  0.00  0.00    +0.000 OA
ATOM     34  O   UNL     1       6.202  -6.124  26.530  0.00  0.00    +0.000 OA
ENDBRANCH  31  32
ENDBRANCH  25  26
ENDBRANCH  10  25
TORSDOF 5
ENDMDL
MODEL 7
REMARK VINA RESULT:      -5.6      2.630      6.781
REMARK  Name = 
REMARK  5 active torsions:
REMARK  status: ('A' for Active; 'I' for Inactive)
REMARK    1  A    between atoms: N_10  and  C_11
REMARK    2  A    between atoms: N_10  and  C_25
REMARK    3  A    between atoms: C_16  and  N_17
REMARK    4  A    between atoms: C_25  and  C_26
REMARK    5  A    between atoms: C_31  and  C_32
REMARK                            x       y       z     vdW  Elec       q    Type
REMARK                         _______ _______ _______ _____ _____    ______ ____
ROOT
ATOM      1  O   UNL     1       6.469  -5.042  23.950  0.00  0.00    +0.000 OA
ATOM      2  C   UNL     1       5.231  -5.201  24.592  0.00  0.00    +0.000 C 
ATOM      3  C   UNL     1       5.447  -5.111  26.082  0.00  0.00    +0.000 C 
ATOM      4  C   UNL     1       5.062  -3.748  26.618  0.00  0.00    +0.000 C 
ATOM      5  N   UNL     1       5.487  -2.713  25.682  0.00  0.00    +0.000 N 
ATOM      6  C   UNL     1       4.949  -2.740  24.335  0.00  0.00    +0.000 C 
ATOM      7  C   UNL     1       4.300  -4.109  24.104  0.00  0.00    +0.000 C 
ATOM      8  C   UNL     1       6.517  -1.906  26.001  0.00  0.00    +0.000 C 
ATOM      9  O   UNL     1       6.796  -1.735  27.184  0.00  0.00    +0.000 OA
ATOM     10  N   UNL     1       6.782  -1.026  25.082  0.00  0.00    +0.000 N 
ENDROOT
BRANCH  10  11
ATOM     11  C   UNL     1       8.075  -1.200  24.548  0.00  0.00    +0.000 A 
ATOM     12  C   UNL     1       8.999  -0.942  25.935  0.00  0.00    +0.000 A 
ATOM     13  C   UNL     1       9.876   0.228  25.693  0.00  0.00    +0.000 A 
ATOM     14  C   UNL     1      10.067   1.263  24.625  0.00  0.00    +0.000 A 
ATOM     15  C   UNL     1       9.251   1.001  23.367  0.00  0.00    +0.000 A 
ATOM     16  C   UNL     1       8.550  -0.338  23.435  0.00  0.00    +0.000 A 
ATOM     17  C   UNL     1       8.549   2.122  22.719  0.00  0.00    +0.000 C 
BRANCH  16  18
ATOM     18  N   UNL     1       9.016  -1.140  22.328  0.00  0.00    +0.000 N 
ATOM     19  C   UNL     1       9.514  -0.304  21.215  0.00  0.00    +0.000 C 
ATOM     20  C   UNL     1       8.356   0.029  20.312  0.00  0.00    +0.000 C 
ATOM     21  C   UNL     1       7.073  -0.522  20.664  0.00  0.00    +0.000 C 
ATOM     22  C   UNL     1       6.927  -1.800  21.348  0.00  0.00    +0.000 C 
ATOM     23  C   UNL     1       8.248  -2.307  21.953  0.00  0.00    +0.000 C 
ATOM     24  O   UNL     1       6.068   0.382  20.891  0.00  0.00    +0.000 OA
ENDBRANCH  16  18
ENDBRANCH  10  11
BRANCH  10  25
ATOM     25  C   UNL     1       5.982   0.032  24.597  0.00  0.00    +0.000 C 
BRANCH  25  26
ATOM     26  C   UNL     1       5.747   1.082  25.699  0.00  0.00    +0.000 A 
ATOM     27  C   UNL     1       4.638   2.134  24.954  0.00  0.00    +0.000 A 
ATOM     28  N   UNL     1       5.316   3.308  24.873  0.00  0.00    +0.000 NA
ATOM     29  C   UNL     1       6.222   4.015  25.469  0.00  0.00    +0.000 A 
ATOM     30  C   UNL     1       7.388   3.184  26.151  0.00  0.00    +0.000 A 
ATOM     31  C   UNL     1       6.771   1.805  26.416  0.00  0.00    +0.000 A 
BRANCH  31  32
ATOM     32  C   UNL     1       6.795   1.565  27.856  0.00  0.00    +0.000 C 
ATOM     33  O   UNL     1       7.486   2.318  28.541  0.00  0.00    +0.000 OA
ATOM     34  O   UNL     1       5.708   1.018  28.347  0.00  0.00    +0.000 OA
ENDBRANCH  31  32
ENDBRANCH  25  26
ENDBRANCH  10  25
TORSDOF 5
ENDMDL
MODEL 8
REMARK VINA RESULT:      -5.5      2.500      3.726
REMARK  Name = 
REMARK  5 active torsions:
REMARK  status: ('A' for Active; 'I' for Inactive)
REMARK    1  A    between atoms: N_10  and  C_11
REMARK    2  A    between atoms: N_10  and  C_25
REMARK    3  A    between atoms: C_16  and  N_17
REMARK    4  A    between atoms: C_25  and  C_26
REMARK    5  A    between atoms: C_31  and  C_32
REMARK                            x       y       z     vdW  Elec       q    Type
REMARK                         _______ _______ _______ _____ _____    ______ ____
ROOT
ATOM      1  O   UNL     1       7.953   2.165  22.532  0.00  0.00    +0.000 OA
ATOM      2  C   UNL     1       8.583   1.707  21.364  0.00  0.00    +0.000 C 
ATOM      3  C   UNL     1       9.865   1.012  21.751  0.00  0.00    +0.000 C 
ATOM      4  C   UNL     1       9.706  -0.494  21.738  0.00  0.00    +0.000 C 
ATOM      5  N   UNL     1       8.401  -0.856  22.282  0.00  0.00    +0.000 N 
ATOM      6  C   UNL     1       7.215  -0.359  21.613  0.00  0.00    +0.000 C 
ATOM      7  C   UNL     1       7.636   0.760  20.655  0.00  0.00    +0.000 C 
ATOM      8  C   UNL     1       8.321  -1.439  23.494  0.00  0.00    +0.000 C 
ATOM      9  O   UNL     1       9.295  -2.049  23.927  0.00  0.00    +0.000 OA
ATOM     10  N   UNL     1       7.103  -1.715  23.850  0.00  0.00    +0.000 N 
ENDROOT
BRANCH  10  11
ATOM     11  C   UNL     1       6.723  -1.006  25.008  0.00  0.00    +0.000 A 
ATOM     12  C   UNL     1       7.771  -1.703  26.132  0.00  0.00    +0.000 A 
ATOM     13  C   UNL     1       6.952  -2.359  27.179  0.00  0.00    +0.000 A 
ATOM     14  C   UNL     1       5.502  -2.646  27.429  0.00  0.00    +0.000 A 
ATOM     15  C   UNL     1       4.566  -1.986  26.427  0.00  0.00    +0.000 A 
ATOM     16  C   UNL     1       5.320  -1.062  25.496  0.00  0.00    +0.000 A 
ATOM     17  C   UNL     1       3.440  -2.759  25.876  0.00  0.00    +0.000 C 
BRANCH  16  18
ATOM     18  N   UNL     1       4.781   0.268  25.657  0.00  0.00    +0.000 N 
ATOM     19  C   UNL     1       5.734   1.305  25.205  0.00  0.00    +0.000 C 
ATOM     20  C   UNL     1       6.626   1.671  26.361  0.00  0.00    +0.000 C 
ATOM     21  C   UNL     1       6.377   1.008  27.615  0.00  0.00    +0.000 C 
ATOM     22  C   UNL     1       5.048   0.572  28.023  0.00  0.00    +0.000 C 
ATOM     23  C   UNL     1       4.038   0.568  26.862  0.00  0.00    +0.000 C 
ATOM     24  O   UNL     1       7.417   0.282  28.132  0.00  0.00    +0.000 OA
ENDBRANCH  16  18
ENDBRANCH  10  11
BRANCH  10  25
ATOM     25  C   UNL     1       6.175  -2.601  23.259  0.00  0.00    +0.000 C 
BRANCH  25  26
ATOM     26  C   UNL     1       6.631  -4.061  23.442  0.00  0.00    +0.000 A 
ATOM     27  C   UNL     1       5.725  -4.865  22.248  0.00  0.00    +0.000 A 
ATOM     28  N   UNL     1       4.926  -5.700  22.962  0.00  0.00    +0.000 NA
ATOM     29  C   UNL     1       4.878  -6.392  24.055  0.00  0.00    +0.000 A 
ATOM     30  C   UNL     1       5.610  -5.738  25.301  0.00  0.00    +0.000 A 
ATOM     31  C   UNL     1       6.651  -4.797  24.684  0.00  0.00    +0.000 A 
BRANCH  31  32
ATOM     32  C   UNL     1       7.975  -5.241  25.111  0.00  0.00    +0.000 C 
ATOM     33  O   UNL     1       8.048  -5.850  26.176  0.00  0.00    +0.000 OA
ATOM     34  O   UNL     1       8.820  -5.485  24.137  0.00  0.00    +0.000 OA
ENDBRANCH  31  32
ENDBRANCH  25  26
ENDBRANCH  10  25
TORSDOF 5
ENDMDL
MODEL 9
REMARK VINA RESULT:      -5.5      2.421      6.270
REMARK  Name = 
REMARK  5 active torsions:
REMARK  status: ('A' for Active; 'I' for Inactive)
REMARK    1  A    between atoms: N_10  and  C_11
REMARK    2  A    between atoms: N_10  and  C_25
REMARK    3  A    between atoms: C_16  and  N_17
REMARK    4  A    between atoms: C_25  and  C_26
REMARK    5  A    between atoms: C_31  and  C_32
REMARK                            x       y       z     vdW  Elec       q    Type
REMARK                         _______ _______ _______ _____ _____    ______ ____
ROOT
ATOM      1  O   UNL     1      10.153  -1.086  22.936  0.00  0.00    +0.000 OA
ATOM      2  C   UNL     1      10.547   0.191  23.368  0.00  0.00    +0.000 C 
ATOM      3  C   UNL     1       9.592   1.207  22.793  0.00  0.00    +0.000 C 
ATOM      4  C   UNL     1       8.569   1.650  23.818  0.00  0.00    +0.000 C 
ATOM      5  N   UNL     1       8.138   0.503  24.611  0.00  0.00    +0.000 N 
ATOM      6  C   UNL     1       9.136  -0.216  25.379  0.00  0.00    +0.000 C 
ATOM      7  C   UNL     1      10.522   0.208  24.883  0.00  0.00    +0.000 C 
ATOM      8  C   UNL     1       6.899   0.002  24.443  0.00  0.00    +0.000 C 
ATOM      9  O   UNL     1       6.019   0.730  23.991  0.00  0.00    +0.000 OA
ATOM     10  N   UNL     1       6.646  -1.009  25.218  0.00  0.00    +0.000 N 
ENDROOT
BRANCH  10  11
ATOM     11  C   UNL     1       6.397  -2.184  24.479  0.00  0.00    +0.000 A 
ATOM     12  C   UNL     1       4.790  -2.463  24.910  0.00  0.00    +0.000 A 
ATOM     13  C   UNL     1       4.717  -3.777  25.591  0.00  0.00    +0.000 A 
ATOM     14  C   UNL     1       5.674  -4.825  26.074  0.00  0.00    +0.000 A 
ATOM     15  C   UNL     1       7.116  -4.578  25.651  0.00  0.00    +0.000 A 
ATOM     16  C   UNL     1       7.218  -3.402  24.706  0.00  0.00    +0.000 A 
ATOM     17  C   UNL     1       8.197  -4.778  26.631  0.00  0.00    +0.000 C 
BRANCH  16  18
ATOM     18  N   UNL     1       7.783  -3.877  23.464  0.00  0.00    +0.000 N 
ATOM     19  C   UNL     1       7.430  -2.998  22.329  0.00  0.00    +0.000 C 
ATOM     20  C   UNL     1       6.118  -3.463  21.754  0.00  0.00    +0.000 C 
ATOM     21  C   UNL     1       5.512  -4.620  22.361  0.00  0.00    +0.000 C 
ATOM     22  C   UNL     1       6.294  -5.690  22.964  0.00  0.00    +0.000 C 
ATOM     23  C   UNL     1       7.763  -5.299  23.199  0.00  0.00    +0.000 C 
ATOM     24  O   UNL     1       4.259  -4.441  22.885  0.00  0.00    +0.000 OA
ENDBRANCH  16  18
ENDBRANCH  10  11
BRANCH  10  25
ATOM     25  C   UNL     1       6.579  -1.064  26.627  0.00  0.00    +0.000 C 
BRANCH  25  26
ATOM     26  C   UNL     1       5.567  -0.031  27.161  0.00  0.00    +0.000 A 
ATOM     27  C   UNL     1       6.569   1.015  28.052  0.00  0.00    +0.000 A 
ATOM     28  N   UNL     1       6.123   0.875  29.327  0.00  0.00    +0.000 NA
ATOM     29  C   UNL     1       5.062   0.625  30.023  0.00  0.00    +0.000 A 
ATOM     30  C   UNL     1       4.051  -0.407  29.368  0.00  0.00    +0.000 A 
ATOM     31  C   UNL     1       4.341  -0.326  27.864  0.00  0.00    +0.000 A 
BRANCH  31  32
ATOM     32  C   UNL     1       3.126   0.120  27.189  0.00  0.00    +0.000 C 
ATOM     33  O   UNL     1       3.192   1.164  26.543  0.00  0.00    +0.000 OA
ATOM     34  O   UNL     1       2.303  -0.839  26.836  0.00  0.00    +0.000 OA
ENDBRANCH  31  32
ENDBRANCH  25  26
ENDBRANCH  10  25
TORSDOF 5
ENDMDL
