MODEL 1
REMARK VINA RESULT:      -6.9      0.000      0.000
REMARK  Name = 
REMARK  3 active torsions:
REMARK  status: ('A' for Active; 'I' for Inactive)
REMARK    1  A    between atoms: C_6  and  N_8
REMARK    2  A    between atoms: C_10  and  C_11
REMARK    3  A    between atoms: C_16  and  N_17
REMARK                            x       y       z     vdW  Elec       q    Type
REMARK                         _______ _______ _______ _____ _____    ______ ____
ROOT
ATOM      1  N   UNL     1       7.318  -1.340  22.484  0.00  0.00    +0.000 N 
ATOM      2  C   UNL     1       7.973  -0.765  23.641  0.00  0.00    +0.000 C 
ATOM      3  C   UNL     1       9.042   0.195  23.615  0.00  0.00    +0.000 C 
ATOM      4  N   UNL     1       9.008   1.314  22.710  0.00  0.00    +0.000 N 
ATOM      5  C   UNL     1       7.873   1.091  21.799  0.00  0.00    +0.000 C 
ATOM      6  C   UNL     1       7.696  -0.326  21.353  0.00  0.00    +0.000 C 
ATOM      7  C   UNL     1       9.203   2.413  23.374  0.00  0.00    +0.000 C 
ATOM      8  O   UNL     1       8.441   2.868  24.214  0.00  0.00    +0.000 OA
ATOM      9  C   UNL     1      10.612   3.023  23.260  0.00  0.00    +0.000 C 
ENDROOT
BRANCH   1  15
ATOM     10  O   UNL     1       4.579  -4.645  22.588  0.00  0.00    +0.000 OA
ATOM     11  C   UNL     1       5.125  -3.360  22.659  0.00  0.00    +0.000 C 
ATOM     12  C   UNL     1       6.007  -3.406  24.032  0.00  0.00    +0.000 C 
ATOM     13  N   UNL     1       7.053  -4.082  24.045  0.00  0.00    +0.000 NA
ATOM     14  C   UNL     1       8.271  -3.374  23.467  0.00  0.00    +0.000 C 
ATOM     15  C   UNL     1       7.599  -2.693  22.229  0.00  0.00    +0.000 C 
ATOM     16  C   UNL     1       6.408  -3.445  21.687  0.00  0.00    +0.000 C 
ENDBRANCH   1  15
BRANCH   6  17
ATOM     17  N   UNL     1       6.629  -0.456  20.411  0.00  0.00    +0.000 NA
ATOM     18  C   UNL     1       6.862  -0.430  19.087  0.00  0.00    +0.000 C 
ATOM     19  O   UNL     1       7.516   0.436  18.564  0.00  0.00    +0.000 OA
ATOM     20  N   UNL     1       5.917  -1.122  18.438  0.00  0.00    +0.000 NA
ENDBRANCH   6  17
BRANCH   3  21
ATOM     21  C   UNL     1       9.397   0.576  24.893  0.00  0.00    +0.000 C 
ATOM     22  O   UNL     1       8.657   0.347  25.868  0.00  0.00    +0.000 OA
ATOM     23  O   UNL     1      10.723   0.262  25.096  0.00  0.00    +0.000 OA
ENDBRANCH   3  21
TORSDOF 3
ENDMDL
MODEL 2
REMARK VINA RESULT:      -6.8      2.119      5.444
REMARK  Name = 
REMARK  3 active torsions:
REMARK  status: ('A' for Active; 'I' for Inactive)
REMARK    1  A    between atoms: C_6  and  N_8
REMARK    2  A    between atoms: C_10  and  C_11
REMARK    3  A    between atoms: C_16  and  N_17
REMARK                            x       y       z     vdW  Elec       q    Type
REMARK                         _______ _______ _______ _____ _____    ______ ____
ROOT
ATOM      1  N   UNL     1       8.239  -1.007  23.345  0.00  0.00    +0.000 N 
ATOM      2  C   UNL     1       8.431  -2.374  23.786  0.00  0.00    +0.000 C 
ATOM      3  C   UNL     1       7.417  -3.389  23.850  0.00  0.00    +0.000 C 
ATOM      4  N   UNL     1       6.469  -3.556  22.779  0.00  0.00    +0.000 N 
ATOM      5  C   UNL     1       6.653  -2.415  21.866  0.00  0.00    +0.000 C 
ATOM      6  C   UNL     1       6.898  -1.104  22.543  0.00  0.00    +0.000 C 
ATOM      7  C   UNL     1       6.461  -4.798  22.399  0.00  0.00    +0.000 C 
ATOM      8  O   UNL     1       7.399  -5.375  21.870  0.00  0.00    +0.000 OA
ATOM      9  C   UNL     1       5.272  -5.641  22.894  0.00  0.00    +0.000 C 
ENDROOT
BRANCH   1  15
ATOM     10  O   UNL     1      10.633   2.558  23.382  0.00  0.00    +0.000 OA
ATOM     11  C   UNL     1      10.045   1.347  23.002  0.00  0.00    +0.000 C 
ATOM     12  C   UNL     1      10.763   0.260  23.986  0.00  0.00    +0.000 C 
ATOM     13  N   UNL     1      10.469   0.267  25.196  0.00  0.00    +0.000 NA
ATOM     14  C   UNL     1       9.194  -0.489  25.544  0.00  0.00    +0.000 C 
ATOM     15  C   UNL     1       8.296  -0.025  24.348  0.00  0.00    +0.000 C 
ATOM     16  C   UNL     1       8.650   1.340  23.810  0.00  0.00    +0.000 C 
ENDBRANCH   1  15
BRANCH   6  17
ATOM     17  N   UNL     1       6.988  -0.032  21.603  0.00  0.00    +0.000 NA
ATOM     18  C   UNL     1       7.707  -0.154  20.473  0.00  0.00    +0.000 C 
ATOM     19  O   UNL     1       8.847  -0.544  20.474  0.00  0.00    +0.000 OA
ATOM     20  N   UNL     1       7.211   0.645  19.521  0.00  0.00    +0.000 NA
ENDBRANCH   6  17
BRANCH   3  21
ATOM     21  C   UNL     1       7.949  -4.594  24.261  0.00  0.00    +0.000 C 
ATOM     22  O   UNL     1       9.175  -4.808  24.230  0.00  0.00    +0.000 OA
ATOM     23  O   UNL     1       7.332  -4.973  25.434  0.00  0.00    +0.000 OA
ENDBRANCH   3  21
TORSDOF 3
ENDMDL
MODEL 3
REMARK VINA RESULT:      -6.7      2.515      4.308
REMARK  Name = 
REMARK  3 active torsions:
REMARK  status: ('A' for Active; 'I' for Inactive)
REMARK    1  A    between atoms: C_6  and  N_8
REMARK    2  A    between atoms: C_10  and  C_11
REMARK    3  A    between atoms: C_16  and  N_17
REMARK                            x       y       z     vdW  Elec       q    Type
REMARK                         _______ _______ _______ _____ _____    ______ ____
ROOT
ATOM      1  N   UNL     1       7.460  -3.554  24.100  0.00  0.00    +0.000 N 
ATOM      2  C   UNL     1       8.213  -2.338  23.873  0.00  0.00    +0.000 C 
ATOM      3  C   UNL     1       8.427  -1.703  22.602  0.00  0.00    +0.000 C 
ATOM      4  N   UNL     1       7.352  -1.565  21.655  0.00  0.00    +0.000 N 
ATOM      5  C   UNL     1       6.221  -2.351  22.177  0.00  0.00    +0.000 C 
ATOM      6  C   UNL     1       6.600  -3.658  22.797  0.00  0.00    +0.000 C 
ATOM      7  C   UNL     1       7.264  -0.325  21.279  0.00  0.00    +0.000 C 
ATOM      8  O   UNL     1       6.954   0.607  22.006  0.00  0.00    +0.000 OA
ATOM      9  C   UNL     1       7.843  -0.005  19.889  0.00  0.00    +0.000 C 
ENDROOT
BRANCH   1  15
ATOM     10  O   UNL     1       7.317  -5.787  27.766  0.00  0.00    +0.000 OA
ATOM     11  C   UNL     1       7.072  -4.836  26.770  0.00  0.00    +0.000 C 
ATOM     12  C   UNL     1       8.408  -3.899  26.815  0.00  0.00    +0.000 C 
ATOM     13  N   UNL     1       9.481  -4.371  26.397  0.00  0.00    +0.000 NA
ATOM     14  C   UNL     1       9.663  -4.292  24.887  0.00  0.00    +0.000 C 
ATOM     15  C   UNL     1       8.215  -4.689  24.442  0.00  0.00    +0.000 C 
ATOM     16  C   UNL     1       7.502  -5.595  25.415  0.00  0.00    +0.000 C 
ENDBRANCH   1  15
BRANCH   6  17
ATOM     17  N   UNL     1       5.450  -4.401  23.208  0.00  0.00    +0.000 NA
ATOM     18  C   UNL     1       5.183  -5.614  22.690  0.00  0.00    +0.000 C 
ATOM     19  O   UNL     1       5.167  -5.818  21.503  0.00  0.00    +0.000 OA
ATOM     20  N   UNL     1       4.483  -6.346  23.566  0.00  0.00    +0.000 NA
ENDBRANCH   6  17
BRANCH   3  21
ATOM     21  C   UNL     1       9.141  -0.531  22.747  0.00  0.00    +0.000 C 
ATOM     22  O   UNL     1       9.234   0.040  23.850  0.00  0.00    +0.000 OA
ATOM     23  O   UNL     1      10.331  -0.650  22.063  0.00  0.00    +0.000 OA
ENDBRANCH   3  21
TORSDOF 3
ENDMDL
MODEL 4
REMARK VINA RESULT:      -6.7      2.270      4.346
REMARK  Name = 
REMARK  3 active torsions:
REMARK  status: ('A' for Active; 'I' for Inactive)
REMARK    1  A    between atoms: C_6  and  N_8
REMARK    2  A    between atoms: C_10  and  C_11
REMARK    3  A    between atoms: C_16  and  N_17
REMARK                            x       y       z     vdW  Elec       q    Type
REMARK                         _______ _______ _______ _____ _____    ______ ____
ROOT
ATOM      1  N   UNL     1       7.868  -2.872  23.196  0.00  0.00    +0.000 N 
ATOM      2  C   UNL     1       7.610  -1.587  22.579  0.00  0.00    +0.000 C 
ATOM      3  C   UNL     1       7.945  -0.304  23.131  0.00  0.00    +0.000 C 
ATOM      4  N   UNL     1       9.223  -0.079  23.756  0.00  0.00    +0.000 N 
ATOM      5  C   UNL     1       9.879  -1.392  23.868  0.00  0.00    +0.000 C 
ATOM      6  C   UNL     1       8.970  -2.517  24.250  0.00  0.00    +0.000 C 
ATOM      7  C   UNL     1       9.780   0.972  23.232  0.00  0.00    +0.000 C 
ATOM      8  O   UNL     1      10.154   1.062  22.073  0.00  0.00    +0.000 OA
ATOM      9  C   UNL     1       9.717   2.254  24.081  0.00  0.00    +0.000 C 
ENDROOT
BRANCH   1  15
ATOM     10  O   UNL     1       6.373  -6.684  21.902  0.00  0.00    +0.000 OA
ATOM     11  C   UNL     1       7.145  -5.524  22.030  0.00  0.00    +0.000 C 
ATOM     12  C   UNL     1       6.195  -4.372  21.369  0.00  0.00    +0.000 C 
ATOM     13  N   UNL     1       5.175  -4.016  21.987  0.00  0.00    +0.000 NA
ATOM     14  C   UNL     1       5.421  -2.976  23.072  0.00  0.00    +0.000 C 
ATOM     15  C   UNL     1       6.741  -3.558  23.679  0.00  0.00    +0.000 C 
ATOM     16  C   UNL     1       6.868  -5.056  23.547  0.00  0.00    +0.000 C 
ENDBRANCH   1  15
BRANCH   6  17
ATOM     17  N   UNL     1       9.685  -3.742  24.418  0.00  0.00    +0.000 NA
ATOM     18  C   UNL     1       9.423  -4.567  25.447  0.00  0.00    +0.000 C 
ATOM     19  O   UNL     1       9.375  -4.179  26.587  0.00  0.00    +0.000 OA
ATOM     20  N   UNL     1       9.727  -5.828  25.118  0.00  0.00    +0.000 NA
ENDBRANCH   6  17
BRANCH   3  21
ATOM     21  C   UNL     1       7.611   0.713  22.260  0.00  0.00    +0.000 C 
ATOM     22  O   UNL     1       7.426   0.495  21.048  0.00  0.00    +0.000 OA
ATOM     23  O   UNL     1       6.650   1.505  22.851  0.00  0.00    +0.000 OA
ENDBRANCH   3  21
TORSDOF 3
ENDMDL
MODEL 5
REMARK VINA RESULT:      -6.6      2.233      3.467
REMARK  Name = 
REMARK  3 active torsions:
REMARK  status: ('A' for Active; 'I' for Inactive)
REMARK    1  A    between atoms: C_6  and  N_8
REMARK    2  A    between atoms: C_10  and  C_11
REMARK    3  A    between atoms: C_16  and  N_17
REMARK                            x       y       z     vdW  Elec       q    Type
REMARK                         _______ _______ _______ _____ _____    ______ ____
ROOT
ATOM      1  N   UNL     1       7.306  -3.291  24.564  0.00  0.00    +0.000 N 
ATOM      2  C   UNL     1       8.070  -2.097  24.864  0.00  0.00    +0.000 C 
ATOM      3  C   UNL     1       8.673  -1.218  23.900  0.00  0.00    +0.000 C 
ATOM      4  N   UNL     1       7.960  -0.821  22.714  0.00  0.00    +0.000 N 
ATOM      5  C   UNL     1       6.735  -1.637  22.661  0.00  0.00    +0.000 C 
ATOM      6  C   UNL     1       6.916  -3.066  23.065  0.00  0.00    +0.000 C 
ATOM      7  C   UNL     1       7.976   0.474  22.614  0.00  0.00    +0.000 C 
ATOM      8  O   UNL     1       7.431   1.244  23.390  0.00  0.00    +0.000 OA
ATOM      9  C   UNL     1       8.968   1.052  21.588  0.00  0.00    +0.000 C 
ENDROOT
BRANCH   1  15
ATOM     10  O   UNL     1       5.713  -6.535  26.884  0.00  0.00    +0.000 OA
ATOM     11  C   UNL     1       5.860  -5.312  26.221  0.00  0.00    +0.000 C 
ATOM     12  C   UNL     1       6.918  -4.503  27.165  0.00  0.00    +0.000 C 
ATOM     13  N   UNL     1       8.105  -4.877  27.185  0.00  0.00    +0.000 NA
ATOM     14  C   UNL     1       8.956  -4.346  26.040  0.00  0.00    +0.000 C 
ATOM     15  C   UNL     1       7.930  -4.512  24.869  0.00  0.00    +0.000 C 
ATOM     16  C   UNL     1       6.945  -5.637  25.074  0.00  0.00    +0.000 C 
ENDBRANCH   1  15
BRANCH   6  17
ATOM     17  N   UNL     1       5.708  -3.815  22.913  0.00  0.00    +0.000 NA
ATOM     18  C   UNL     1       5.583  -4.747  21.950  0.00  0.00    +0.000 C 
ATOM     19  O   UNL     1       5.853  -4.522  20.798  0.00  0.00    +0.000 OA
ATOM     20  N   UNL     1       4.702  -5.682  22.324  0.00  0.00    +0.000 NA
ENDBRANCH   6  17
BRANCH   3  21
ATOM     21  C   UNL     1       9.280  -0.146  24.521  0.00  0.00    +0.000 C 
ATOM     22  O   UNL     1       9.001   0.171  25.692  0.00  0.00    +0.000 OA
ATOM     23  O   UNL     1      10.630  -0.181  24.245  0.00  0.00    +0.000 OA
ENDBRANCH   3  21
TORSDOF 3
ENDMDL
MODEL 6
REMARK VINA RESULT:      -6.4      2.165      4.262
REMARK  Name = 
REMARK  3 active torsions:
REMARK  status: ('A' for Active; 'I' for Inactive)
REMARK    1  A    between atoms: C_6  and  N_8
REMARK    2  A    between atoms: C_10  and  C_11
REMARK    3  A    between atoms: C_16  and  N_17
REMARK                            x       y       z     vdW  Elec       q    Type
REMARK                         _______ _______ _______ _____ _____    ______ ____
ROOT
ATOM      1  N   UNL     1       7.323  -2.622  23.355  0.00  0.00    +0.000 N 
ATOM      2  C   UNL     1       7.876  -1.574  22.521  0.00  0.00    +0.000 C 
ATOM      3  C   UNL     1       8.167  -0.230  22.938  0.00  0.00    +0.000 C 
ATOM      4  N   UNL     1       8.808   0.030  24.201  0.00  0.00    +0.000 N 
ATOM      5  C   UNL     1       8.847  -1.249  24.929  0.00  0.00    +0.000 C 
ATOM      6  C   UNL     1       7.614  -2.085  24.796  0.00  0.00    +0.000 C 
ATOM      7  C   UNL     1       9.843   0.792  24.011  0.00  0.00    +0.000 C 
ATOM      8  O   UNL     1      10.845   0.470  23.390  0.00  0.00    +0.000 OA
ATOM      9  C   UNL     1       9.659   2.274  24.383  0.00  0.00    +0.000 C 
ENDROOT
BRANCH   1  15
ATOM     10  O   UNL     1       5.733  -6.590  22.943  0.00  0.00    +0.000 OA
ATOM     11  C   UNL     1       6.603  -5.512  23.142  0.00  0.00    +0.000 C 
ATOM     12  C   UNL     1       6.771  -4.890  21.642  0.00  0.00    +0.000 C 
ATOM     13  N   UNL     1       5.805  -4.291  21.134  0.00  0.00    +0.000 NA
ATOM     14  C   UNL     1       5.668  -2.835  21.558  0.00  0.00    +0.000 C 
ATOM     15  C   UNL     1       5.995  -2.988  23.081  0.00  0.00    +0.000 C 
ATOM     16  C   UNL     1       5.629  -4.335  23.654  0.00  0.00    +0.000 C 
ENDBRANCH   1  15
BRANCH   6  17
ATOM     17  N   UNL     1       7.689  -3.270  25.591  0.00  0.00    +0.000 NA
ATOM     18  C   UNL     1       8.835  -3.967  25.696  0.00  0.00    +0.000 C 
ATOM     19  O   UNL     1       9.474  -4.304  24.732  0.00  0.00    +0.000 OA
ATOM     20  N   UNL     1       8.871  -4.624  26.861  0.00  0.00    +0.000 NA
ENDBRANCH   6  17
BRANCH   3  21
ATOM     21  C   UNL     1       8.737   0.494  21.911  0.00  0.00    +0.000 C 
ATOM     22  O   UNL     1       9.244  -0.069  20.922  0.00  0.00    +0.000 OA
ATOM     23  O   UNL     1       7.911   1.553  21.604  0.00  0.00    +0.000 OA
ENDBRANCH   3  21
TORSDOF 3
ENDMDL
MODEL 7
REMARK VINA RESULT:      -6.2      2.725      4.401
REMARK  Name = 
REMARK  3 active torsions:
REMARK  status: ('A' for Active; 'I' for Inactive)
REMARK    1  A    between atoms: C_6  and  N_8
REMARK    2  A    between atoms: C_10  and  C_11
REMARK    3  A    between atoms: C_16  and  N_17
REMARK                            x       y       z     vdW  Elec       q    Type
REMARK                         _______ _______ _______ _____ _____    ______ ____
ROOT
ATOM      1  N   UNL     1       7.142  -3.061  24.796  0.00  0.00    +0.000 N 
ATOM      2  C   UNL     1       8.343  -2.402  24.327  0.00  0.00    +0.000 C 
ATOM      3  C   UNL     1       8.445  -1.558  23.168  0.00  0.00    +0.000 C 
ATOM      4  N   UNL     1       7.436  -0.572  22.882  0.00  0.00    +0.000 N 
ATOM      5  C   UNL     1       6.330  -0.807  23.825  0.00  0.00    +0.000 C 
ATOM      6  C   UNL     1       6.016  -2.248  24.076  0.00  0.00    +0.000 C 
ATOM      7  C   UNL     1       8.001   0.583  22.697  0.00  0.00    +0.000 C 
ATOM      8  O   UNL     1       8.600   1.215  23.553  0.00  0.00    +0.000 OA
ATOM      9  C   UNL     1       8.130   1.037  21.231  0.00  0.00    +0.000 C 
ENDROOT
BRANCH   1  15
ATOM     10  O   UNL     1       7.272  -6.059  27.869  0.00  0.00    +0.000 OA
ATOM     11  C   UNL     1       7.256  -4.830  27.199  0.00  0.00    +0.000 C 
ATOM     12  C   UNL     1       8.737  -4.761  26.514  0.00  0.00    +0.000 C 
ATOM     13  N   UNL     1       8.986  -5.519  25.559  0.00  0.00    +0.000 NA
ATOM     14  C   UNL     1       8.504  -5.014  24.206  0.00  0.00    +0.000 C 
ATOM     15  C   UNL     1       7.105  -4.456  24.633  0.00  0.00    +0.000 C 
ATOM     16  C   UNL     1       6.498  -5.167  25.818  0.00  0.00    +0.000 C 
ENDBRANCH   1  15
BRANCH   6  17
ATOM     17  N   UNL     1       4.884  -2.401  24.936  0.00  0.00    +0.000 NA
ATOM     18  C   UNL     1       4.784  -1.708  26.085  0.00  0.00    +0.000 C 
ATOM     19  O   UNL     1       5.676  -1.671  26.894  0.00  0.00    +0.000 OA
ATOM     20  N   UNL     1       3.497  -1.535  26.409  0.00  0.00    +0.000 NA
ENDBRANCH   6  17
BRANCH   3  21
ATOM     21  C   UNL     1       9.719  -1.045  23.039  0.00  0.00    +0.000 C 
ATOM     22  O   UNL     1      10.461  -0.891  24.027  0.00  0.00    +0.000 OA
ATOM     23  O   UNL     1      10.328  -1.641  21.955  0.00  0.00    +0.000 OA
ENDBRANCH   3  21
TORSDOF 3
ENDMDL
MODEL 8
REMARK VINA RESULT:      -6.2      2.364      6.524
REMARK  Name = 
REMARK  3 active torsions:
REMARK  status: ('A' for Active; 'I' for Inactive)
REMARK    1  A    between atoms: C_6  and  N_8
REMARK    2  A    between atoms: C_10  and  C_11
REMARK    3  A    between atoms: C_16  and  N_17
REMARK                            x       y       z     vdW  Elec       q    Type
REMARK                         _______ _______ _______ _____ _____    ______ ____
ROOT
ATOM      1  N   UNL     1       6.671  -1.640  23.008  0.00  0.00    +0.000 N 
ATOM      2  C   UNL     1       6.554  -2.897  22.298  0.00  0.00    +0.000 C 
ATOM      3  C   UNL     1       6.298  -4.180  22.892  0.00  0.00    +0.000 C 
ATOM      4  N   UNL     1       5.307  -4.332  23.925  0.00  0.00    +0.000 N 
ATOM      5  C   UNL     1       4.878  -2.976  24.307  0.00  0.00    +0.000 C 
ATOM      6  C   UNL     1       5.980  -1.966  24.374  0.00  0.00    +0.000 C 
ATOM      7  C   UNL     1       4.490  -5.290  23.602  0.00  0.00    +0.000 C 
ATOM      8  O   UNL     1       3.724  -5.266  22.651  0.00  0.00    +0.000 OA
ATOM      9  C   UNL     1       4.709  -6.628  24.331  0.00  0.00    +0.000 C 
ENDROOT
BRANCH   1  15
ATOM     10  O   UNL     1       7.957   2.214  21.618  0.00  0.00    +0.000 OA
ATOM     11  C   UNL     1       7.173   1.096  21.921  0.00  0.00    +0.000 C 
ATOM     12  C   UNL     1       7.671  -0.013  20.832  0.00  0.00    +0.000 C 
ATOM     13  N   UNL     1       8.806  -0.508  20.963  0.00  0.00    +0.000 NA
ATOM     14  C   UNL     1       8.882  -1.666  21.948  0.00  0.00    +0.000 C 
ATOM     15  C   UNL     1       7.963  -1.092  23.078  0.00  0.00    +0.000 C 
ATOM     16  C   UNL     1       7.956   0.415  23.155  0.00  0.00    +0.000 C 
ENDBRANCH   1  15
BRANCH   6  17
ATOM     17  N   UNL     1       5.506  -0.696  24.826  0.00  0.00    +0.000 NA
ATOM     18  C   UNL     1       5.799  -0.241  26.058  0.00  0.00    +0.000 C 
ATOM     19  O   UNL     1       5.630  -0.907  27.047  0.00  0.00    +0.000 OA
ATOM     20  N   UNL     1       5.794   1.097  26.070  0.00  0.00    +0.000 NA
ENDBRANCH   6  17
BRANCH   3  21
ATOM     21  C   UNL     1       6.192  -5.160  21.927  0.00  0.00    +0.000 C 
ATOM     22  O   UNL     1       5.923  -4.881  20.744  0.00  0.00    +0.000 OA
ATOM     23  O   UNL     1       7.235  -6.048  22.081  0.00  0.00    +0.000 OA
ENDBRANCH   3  21
TORSDOF 3
ENDMDL
MODEL 9
REMARK VINA RESULT:      -6.2      2.136      4.922
REMARK  Name = 
REMARK  3 active torsions:
REMARK  status: ('A' for Active; 'I' for Inactive)
REMARK    1  A    between atoms: C_6  and  N_8
REMARK    2  A    between atoms: C_10  and  C_11
REMARK    3  A    between atoms: C_16  and  N_17
REMARK                            x       y       z     vdW  Elec       q    Type
REMARK                         _______ _______ _______ _____ _____    ______ ____
ROOT
ATOM      1  N   UNL     1       7.390   0.365  22.982  0.00  0.00    +0.000 N 
ATOM      2  C   UNL     1       7.865  -0.297  24.179  0.00  0.00    +0.000 C 
ATOM      3  C   UNL     1       7.684  -1.685  24.504  0.00  0.00    +0.000 C 
ATOM      4  N   UNL     1       7.872  -2.707  23.507  0.00  0.00    +0.000 N 
ATOM      5  C   UNL     1       8.034  -2.019  22.216  0.00  0.00    +0.000 C 
ATOM      6  C   UNL     1       7.134  -0.841  22.017  0.00  0.00    +0.000 C 
ATOM      7  C   UNL     1       8.693  -3.606  23.961  0.00  0.00    +0.000 C 
ATOM      8  O   UNL     1       9.873  -3.414  24.213  0.00  0.00    +0.000 OA
ATOM      9  C   UNL     1       8.048  -4.918  24.444  0.00  0.00    +0.000 C 
ENDROOT
BRANCH   1  15
ATOM     10  O   UNL     1       7.306   4.555  22.046  0.00  0.00    +0.000 OA
ATOM     11  C   UNL     1       7.722   3.229  22.203  0.00  0.00    +0.000 C 
ATOM     12  C   UNL     1       7.908   3.088  23.819  0.00  0.00    +0.000 C 
ATOM     13  N   UNL     1       6.891   3.077  24.537  0.00  0.00    +0.000 NA
ATOM     14  C   UNL     1       6.210   1.720  24.650  0.00  0.00    +0.000 C 
ATOM     15  C   UNL     1       6.322   1.260  23.158  0.00  0.00    +0.000 C 
ATOM     16  C   UNL     1       6.342   2.398  22.167  0.00  0.00    +0.000 C 
ENDBRANCH   1  15
BRANCH   6  17
ATOM     17  N   UNL     1       7.288  -0.271  20.715  0.00  0.00    +0.000 NA
ATOM     18  C   UNL     1       6.308  -0.355  19.798  0.00  0.00    +0.000 C 
ATOM     19  O   UNL     1       5.771  -1.398  19.523  0.00  0.00    +0.000 OA
ATOM     20  N   UNL     1       6.384   0.673  18.944  0.00  0.00    +0.000 NA
ENDBRANCH   6  17
BRANCH   3  21
ATOM     21  C   UNL     1       8.309  -2.002  25.692  0.00  0.00    +0.000 C 
ATOM     22  O   UNL     1       9.154  -1.243  26.204  0.00  0.00    +0.000 OA
ATOM     23  O   UNL     1       7.366  -2.484  26.574  0.00  0.00    +0.000 OA
ENDBRANCH   3  21
TORSDOF 3
ENDMDL
