MODEL 1
REMARK VINA RESULT:      -7.6      0.000      0.000
REMARK  Name = 
REMARK  4 active torsions:
REMARK  status: ('A' for Active; 'I' for Inactive)
REMARK    1  A    between atoms: S_2  and  C_3
REMARK    2  A    between atoms: C_5  and  C_17
REMARK    3  A    between atoms: C_12  and  C_14
REMARK    4  A    between atoms: C_25  and  C_29
REMARK                            x       y       z     vdW  Elec       q    Type
REMARK                         _______ _______ _______ _____ _____    ______ ____
ROOT
ATOM      1  C   UNL     1       7.216  -0.702  20.843  0.00  0.00    +0.000 C 
ATOM      2  C   UNL     1       8.907  -0.177  21.196  0.00  0.00    +0.000 C 
ATOM      3  C   UNL     1       8.319   0.052  22.657  0.00  0.00    +0.000 C 
ATOM      4  C   UNL     1       7.166  -1.078  22.177  0.00  0.00    +0.000 C 
ATOM      5  C   UNL     1       8.198  -2.394  22.004  0.00  0.00    +0.000 C 
ATOM      6  C   UNL     1       7.903  -3.428  23.041  0.00  0.00    +0.000 C 
ATOM      7  O   UNL     1       8.199  -2.896  24.300  0.00  0.00    +0.000 OA
ATOM      8  C   UNL     1       7.801  -1.609  24.404  0.00  0.00    +0.000 C 
ATOM      9  C   UNL     1       6.551  -1.411  23.453  0.00  0.00    +0.000 C 
ATOM     10  C   UNL     1       8.897  -0.668  23.776  0.00  0.00    +0.000 C 
ATOM     11  C   UNL     1      10.077  -1.592  23.360  0.00  0.00    +0.000 C 
ATOM     12  C   UNL     1       7.473  -1.205  25.780  0.00  0.00    +0.000 C 
ENDROOT
BRANCH   3  13
ATOM     13  C   UNL     1       7.657   1.325  22.729  0.00  0.00    +0.000 C 
ATOM     14  C   UNL     1       7.266   1.755  21.205  0.00  0.00    +0.000 C 
ATOM     15  C   UNL     1       8.815   2.423  22.983  0.00  0.00    +0.000 C 
ATOM     16  C   UNL     1      10.060   2.109  22.383  0.00  0.00    +0.000 C 
ATOM     17  O   UNL     1       8.267   3.603  22.435  0.00  0.00    +0.000 OA
ATOM     18  C   UNL     1       8.124   4.625  23.363  0.00  0.00    +0.000 C 
ATOM     19  C   UNL     1       6.881   4.175  24.262  0.00  0.00    +0.000 C 
ATOM     20  C   UNL     1       7.225   2.854  24.689  0.00  0.00    +0.000 C 
ATOM     21  C   UNL     1       6.569   1.788  23.543  0.00  0.00    +0.000 C 
ATOM     22  C   UNL     1       6.009   0.956  24.754  0.00  0.00    +0.000 C 
ATOM     23  C   UNL     1       6.525   2.136  25.804  0.00  0.00    +0.000 C 
ATOM     24  C   UNL     1       7.455   1.442  26.743  0.00  0.00    +0.000 C 
ATOM     25  C   UNL     1       8.707   2.563  24.521  0.00  0.00    +0.000 C 
BRANCH  21  26
ATOM     26  C   UNL     1       5.472   2.531  22.939  0.00  0.00    +0.000 C 
ATOM     27  O   UNL     1       5.668   2.861  21.808  0.00  0.00    +0.000 OA
ATOM     28  O   UNL     1       4.314   2.484  23.543  0.00  0.00    +0.000 OA
ENDBRANCH  21  26
ENDBRANCH   3  13
BRANCH   1  30
ATOM     29  C   UNL     1       5.954   0.065  18.243  0.00  0.00    +0.000 C 
ATOM     30  S   UNL     1       6.599   0.477  19.857  0.00  0.00    +0.000 S 
ENDBRANCH   1  30
BRANCH  10  31
ATOM     31  C   UNL     1       9.428   0.159  24.948  0.00  0.00    +0.000 C 
ATOM     32  O   UNL     1      10.830   0.065  24.956  0.00  0.00    +0.000 OA
ENDBRANCH  10  31
TORSDOF 4
ENDMDL
MODEL 2
REMARK VINA RESULT:      -7.3      1.634      2.762
REMARK  Name = 
REMARK  4 active torsions:
REMARK  status: ('A' for Active; 'I' for Inactive)
REMARK    1  A    between atoms: S_2  and  C_3
REMARK    2  A    between atoms: C_5  and  C_17
REMARK    3  A    between atoms: C_12  and  C_14
REMARK    4  A    between atoms: C_25  and  C_29
REMARK                            x       y       z     vdW  Elec       q    Type
REMARK                         _______ _______ _______ _____ _____    ______ ____
ROOT
ATOM      1  C   UNL     1       6.330  -2.061  21.524  0.00  0.00    +0.000 C 
ATOM      2  C   UNL     1       7.919  -2.870  21.807  0.00  0.00    +0.000 C 
ATOM      3  C   UNL     1       7.773  -2.211  23.248  0.00  0.00    +0.000 C 
ATOM      4  C   UNL     1       6.128  -2.214  22.887  0.00  0.00    +0.000 C 
ATOM      5  C   UNL     1       5.915  -3.882  22.824  0.00  0.00    +0.000 C 
ATOM      6  C   UNL     1       5.054  -4.341  23.955  0.00  0.00    +0.000 C 
ATOM      7  O   UNL     1       5.730  -4.106  25.156  0.00  0.00    +0.000 OA
ATOM      8  C   UNL     1       6.365  -2.913  25.146  0.00  0.00    +0.000 C 
ATOM      9  C   UNL     1       5.553  -1.940  24.196  0.00  0.00    +0.000 C 
ATOM     10  C   UNL     1       7.755  -3.063  24.421  0.00  0.00    +0.000 C 
ATOM     11  C   UNL     1       7.906  -4.573  24.077  0.00  0.00    +0.000 C 
ATOM     12  C   UNL     1       6.519  -2.319  26.483  0.00  0.00    +0.000 C 
ENDROOT
BRANCH   3  13
ATOM     13  C   UNL     1       8.209  -0.842  23.211  0.00  0.00    +0.000 C 
ATOM     14  C   UNL     1       8.362  -0.424  21.642  0.00  0.00    +0.000 C 
ATOM     15  C   UNL     1       9.778  -0.857  23.596  0.00  0.00    +0.000 C 
ATOM     16  C   UNL     1      10.474  -2.016  23.169  0.00  0.00    +0.000 C 
ATOM     17  O   UNL     1      10.277   0.301  22.960  0.00  0.00    +0.000 OA
ATOM     18  C   UNL     1      10.830   1.217  23.844  0.00  0.00    +0.000 C 
ATOM     19  C   UNL     1       9.569   1.869  24.580  0.00  0.00    +0.000 C 
ATOM     20  C   UNL     1       8.837   0.744  25.071  0.00  0.00    +0.000 C 
ATOM     21  C   UNL     1       7.712   0.334  23.867  0.00  0.00    +0.000 C 
ATOM     22  C   UNL     1       6.633   0.270  25.009  0.00  0.00    +0.000 C 
ATOM     23  C   UNL     1       7.748   0.847  26.097  0.00  0.00    +0.000 C 
ATOM     24  C   UNL     1       7.830  -0.196  27.162  0.00  0.00    +0.000 C 
ATOM     25  C   UNL     1       9.679  -0.521  25.104  0.00  0.00    +0.000 C 
BRANCH  21  26
ATOM     26  C   UNL     1       7.522   1.564  23.112  0.00  0.00    +0.000 C 
ATOM     27  O   UNL     1       8.137   1.612  22.090  0.00  0.00    +0.000 OA
ATOM     28  O   UNL     1       6.503   2.315  23.439  0.00  0.00    +0.000 OA
ENDBRANCH  21  26
ENDBRANCH   3  13
BRANCH   1  30
ATOM     29  C   UNL     1       5.955  -0.891  18.798  0.00  0.00    +0.000 C 
ATOM     30  S   UNL     1       6.653  -0.850  20.442  0.00  0.00    +0.000 S 
ENDBRANCH   1  30
BRANCH  10  31
ATOM     31  C   UNL     1       8.798  -2.792  25.506  0.00  0.00    +0.000 C 
ATOM     32  O   UNL     1       9.333  -4.023  25.923  0.00  0.00    +0.000 OA
ENDBRANCH  10  31
TORSDOF 4
ENDMDL
MODEL 3
REMARK VINA RESULT:      -7.0      3.637      6.883
REMARK  Name = 
REMARK  4 active torsions:
REMARK  status: ('A' for Active; 'I' for Inactive)
REMARK    1  A    between atoms: S_2  and  C_3
REMARK    2  A    between atoms: C_5  and  C_17
REMARK    3  A    between atoms: C_12  and  C_14
REMARK    4  A    between atoms: C_25  and  C_29
REMARK                            x       y       z     vdW  Elec       q    Type
REMARK                         _______ _______ _______ _____ _____    ______ ____
ROOT
ATOM      1  C   UNL     1       6.717  -0.971  25.842  0.00  0.00    +0.000 C 
ATOM      2  C   UNL     1       7.875  -2.222  26.438  0.00  0.00    +0.000 C 
ATOM      3  C   UNL     1       7.209  -3.100  25.290  0.00  0.00    +0.000 C 
ATOM      4  C   UNL     1       6.828  -1.605  24.614  0.00  0.00    +0.000 C 
ATOM      5  C   UNL     1       8.400  -1.086  24.315  0.00  0.00    +0.000 C 
ATOM      6  C   UNL     1       8.655  -1.010  22.846  0.00  0.00    +0.000 C 
ATOM      7  O   UNL     1       8.590  -2.301  22.313  0.00  0.00    +0.000 OA
ATOM      8  C   UNL     1       7.577  -3.014  22.854  0.00  0.00    +0.000 C 
ATOM      9  C   UNL     1       6.437  -1.997  23.268  0.00  0.00    +0.000 C 
ATOM     10  C   UNL     1       8.042  -3.629  24.227  0.00  0.00    +0.000 C 
ATOM     11  C   UNL     1       9.542  -3.254  24.387  0.00  0.00    +0.000 C 
ATOM     12  C   UNL     1       7.044  -4.050  21.955  0.00  0.00    +0.000 C 
ENDROOT
BRANCH   3  13
ATOM     13  C   UNL     1       5.978  -3.675  25.759  0.00  0.00    +0.000 C 
ATOM     14  C   UNL     1       5.578  -2.904  27.139  0.00  0.00    +0.000 C 
ATOM     15  C   UNL     1       6.366  -5.106  26.402  0.00  0.00    +0.000 C 
ATOM     16  C   UNL     1       7.646  -5.147  27.009  0.00  0.00    +0.000 C 
ATOM     17  O   UNL     1       5.343  -5.318  27.354  0.00  0.00    +0.000 OA
ATOM     18  C   UNL     1       4.597  -6.464  27.110  0.00  0.00    +0.000 C 
ATOM     19  C   UNL     1       3.685  -6.084  25.854  0.00  0.00    +0.000 C 
ATOM     20  C   UNL     1       4.618  -5.610  24.880  0.00  0.00    +0.000 C 
ATOM     21  C   UNL     1       4.732  -3.930  25.094  0.00  0.00    +0.000 C 
ATOM     22  C   UNL     1       4.566  -3.800  23.536  0.00  0.00    +0.000 C 
ATOM     23  C   UNL     1       4.284  -5.434  23.429  0.00  0.00    +0.000 C 
ATOM     24  C   UNL     1       5.337  -5.951  22.507  0.00  0.00    +0.000 C 
ATOM     25  C   UNL     1       6.045  -6.027  25.200  0.00  0.00    +0.000 C 
BRANCH  21  26
ATOM     26  C   UNL     1       3.477  -3.558  25.732  0.00  0.00    +0.000 C 
ATOM     27  O   UNL     1       3.557  -3.393  26.911  0.00  0.00    +0.000 OA
ATOM     28  O   UNL     1       2.512  -3.141  24.955  0.00  0.00    +0.000 OA
ENDBRANCH  21  26
ENDBRANCH   3  13
BRANCH   1  30
ATOM     29  C   UNL     1       5.620   0.648  28.104  0.00  0.00    +0.000 C 
ATOM     30  S   UNL     1       5.607  -0.801  27.060  0.00  0.00    +0.000 S 
ENDBRANCH   1  30
BRANCH  10  31
ATOM     31  C   UNL     1       8.027  -5.143  24.007  0.00  0.00    +0.000 C 
ATOM     32  O   UNL     1       9.330  -5.631  24.205  0.00  0.00    +0.000 OA
ENDBRANCH  10  31
TORSDOF 4
ENDMDL
MODEL 4
REMARK VINA RESULT:      -6.8      2.533      4.145
REMARK  Name = 
REMARK  4 active torsions:
REMARK  status: ('A' for Active; 'I' for Inactive)
REMARK    1  A    between atoms: S_2  and  C_3
REMARK    2  A    between atoms: C_5  and  C_17
REMARK    3  A    between atoms: C_12  and  C_14
REMARK    4  A    between atoms: C_25  and  C_29
REMARK                            x       y       z     vdW  Elec       q    Type
REMARK                         _______ _______ _______ _____ _____    ______ ____
ROOT
ATOM      1  C   UNL     1       6.432  -2.459  21.442  0.00  0.00    +0.000 C 
ATOM      2  C   UNL     1       8.028  -3.128  21.956  0.00  0.00    +0.000 C 
ATOM      3  C   UNL     1       7.285  -3.295  23.353  0.00  0.00    +0.000 C 
ATOM      4  C   UNL     1       5.890  -3.293  22.409  0.00  0.00    +0.000 C 
ATOM      5  C   UNL     1       6.185  -4.718  21.566  0.00  0.00    +0.000 C 
ATOM      6  C   UNL     1       5.197  -5.769  21.954  0.00  0.00    +0.000 C 
ATOM      7  O   UNL     1       5.395  -6.094  23.300  0.00  0.00    +0.000 OA
ATOM      8  C   UNL     1       5.640  -4.995  24.048  0.00  0.00    +0.000 C 
ATOM      9  C   UNL     1       4.903  -3.771  23.366  0.00  0.00    +0.000 C 
ATOM     10  C   UNL     1       7.165  -4.616  23.941  0.00  0.00    +0.000 C 
ATOM     11  C   UNL     1       7.830  -5.727  23.079  0.00  0.00    +0.000 C 
ATOM     12  C   UNL     1       5.220  -5.135  25.451  0.00  0.00    +0.000 C 
ENDROOT
BRANCH   3  13
ATOM     13  C   UNL     1       7.307  -2.053  24.075  0.00  0.00    +0.000 C 
ATOM     14  C   UNL     1       7.652  -0.875  23.002  0.00  0.00    +0.000 C 
ATOM     15  C   UNL     1       8.700  -2.031  24.893  0.00  0.00    +0.000 C 
ATOM     16  C   UNL     1       9.772  -2.690  24.241  0.00  0.00    +0.000 C 
ATOM     17  O   UNL     1       8.965  -0.651  25.041  0.00  0.00    +0.000 OA
ATOM     18  C   UNL     1       9.037  -0.246  26.367  0.00  0.00    +0.000 C 
ATOM     19  C   UNL     1       7.519  -0.257  26.868  0.00  0.00    +0.000 C 
ATOM     20  C   UNL     1       7.056  -1.569  26.539  0.00  0.00    +0.000 C 
ATOM     21  C   UNL     1       6.369  -1.467  24.990  0.00  0.00    +0.000 C 
ATOM     22  C   UNL     1       5.144  -2.265  25.568  0.00  0.00    +0.000 C 
ATOM     23  C   UNL     1       5.798  -2.168  27.092  0.00  0.00    +0.000 C 
ATOM     24  C   UNL     1       5.956  -3.583  27.540  0.00  0.00    +0.000 C 
ATOM     25  C   UNL     1       8.202  -2.532  26.270  0.00  0.00    +0.000 C 
BRANCH  21  26
ATOM     26  C   UNL     1       5.992  -0.068  24.850  0.00  0.00    +0.000 C 
ATOM     27  O   UNL     1       6.648   0.539  24.058  0.00  0.00    +0.000 OA
ATOM     28  O   UNL     1       4.830   0.290  25.330  0.00  0.00    +0.000 OA
ENDBRANCH  21  26
ENDBRANCH   3  13
BRANCH   1  30
ATOM     29  C   UNL     1       6.602  -0.141  19.562  0.00  0.00    +0.000 C 
ATOM     30  S   UNL     1       6.702  -0.844  21.201  0.00  0.00    +0.000 S 
ENDBRANCH   1  30
BRANCH  10  31
ATOM     31  C   UNL     1       7.722  -4.813  25.351  0.00  0.00    +0.000 C 
ATOM     32  O   UNL     1       8.753  -5.766  25.290  0.00  0.00    +0.000 OA
ENDBRANCH  10  31
TORSDOF 4
ENDMDL
MODEL 5
REMARK VINA RESULT:      -6.8      2.832      6.214
REMARK  Name = 
REMARK  4 active torsions:
REMARK  status: ('A' for Active; 'I' for Inactive)
REMARK    1  A    between atoms: S_2  and  C_3
REMARK    2  A    between atoms: C_5  and  C_17
REMARK    3  A    between atoms: C_12  and  C_14
REMARK    4  A    between atoms: C_25  and  C_29
REMARK                            x       y       z     vdW  Elec       q    Type
REMARK                         _______ _______ _______ _____ _____    ______ ____
ROOT
ATOM      1  C   UNL     1       6.746   0.183  26.381  0.00  0.00    +0.000 C 
ATOM      2  C   UNL     1       8.259  -0.775  26.615  0.00  0.00    +0.000 C 
ATOM      3  C   UNL     1       7.760  -1.512  25.296  0.00  0.00    +0.000 C 
ATOM      4  C   UNL     1       6.914  -0.080  25.030  0.00  0.00    +0.000 C 
ATOM      5  C   UNL     1       8.242   0.935  24.840  0.00  0.00    +0.000 C 
ATOM      6  C   UNL     1       8.325   1.428  23.432  0.00  0.00    +0.000 C 
ATOM      7  O   UNL     1       8.575   0.339  22.591  0.00  0.00    +0.000 OA
ATOM      8  C   UNL     1       7.858  -0.748  22.954  0.00  0.00    +0.000 C 
ATOM      9  C   UNL     1       6.523  -0.240  23.637  0.00  0.00    +0.000 C 
ATOM     10  C   UNL     1       8.603  -1.505  24.116  0.00  0.00    +0.000 C 
ATOM     11  C   UNL     1       9.947  -0.753  24.334  0.00  0.00    +0.000 C 
ATOM     12  C   UNL     1       7.554  -1.651  21.833  0.00  0.00    +0.000 C 
ENDROOT
BRANCH   3  13
ATOM     13  C   UNL     1       6.790  -2.518  25.629  0.00  0.00    +0.000 C 
ATOM     14  C   UNL     1       6.194  -2.148  27.101  0.00  0.00    +0.000 C 
ATOM     15  C   UNL     1       7.629  -3.833  26.049  0.00  0.00    +0.000 C 
ATOM     16  C   UNL     1       8.868  -3.559  26.680  0.00  0.00    +0.000 C 
ATOM     17  O   UNL     1       6.750  -4.512  26.922  0.00  0.00    +0.000 OA
ATOM     18  C   UNL     1       6.406  -5.781  26.478  0.00  0.00    +0.000 C 
ATOM     19  C   UNL     1       5.393  -5.516  25.270  0.00  0.00    +0.000 C 
ATOM     20  C   UNL     1       6.103  -4.619  24.412  0.00  0.00    +0.000 C 
ATOM     21  C   UNL     1       5.677  -3.048  24.895  0.00  0.00    +0.000 C 
ATOM     22  C   UNL     1       5.443  -2.731  23.373  0.00  0.00    +0.000 C 
ATOM     23  C   UNL     1       5.698  -4.329  22.998  0.00  0.00    +0.000 C 
ATOM     24  C   UNL     1       6.842  -4.327  22.039  0.00  0.00    +0.000 C 
ATOM     25  C   UNL     1       7.595  -4.603  24.706  0.00  0.00    +0.000 C 
BRANCH  21  26
ATOM     26  C   UNL     1       4.383  -3.205  25.544  0.00  0.00    +0.000 C 
ATOM     27  O   UNL     1       4.422  -3.138  26.735  0.00  0.00    +0.000 OA
ATOM     28  O   UNL     1       3.319  -3.080  24.795  0.00  0.00    +0.000 OA
ENDBRANCH  21  26
ENDBRANCH   3  13
BRANCH   1  30
ATOM     29  C   UNL     1       5.228   0.913  28.851  0.00  0.00    +0.000 C 
ATOM     30  S   UNL     1       5.754  -0.274  27.625  0.00  0.00    +0.000 S 
ENDBRANCH   1  30
BRANCH  10  31
ATOM     31  C   UNL     1       8.993  -2.859  23.520  0.00  0.00    +0.000 C 
ATOM     32  O   UNL     1      10.393  -2.911  23.417  0.00  0.00    +0.000 OA
ENDBRANCH  10  31
TORSDOF 4
ENDMDL
MODEL 6
REMARK VINA RESULT:      -6.7      2.124      4.604
REMARK  Name = 
REMARK  4 active torsions:
REMARK  status: ('A' for Active; 'I' for Inactive)
REMARK    1  A    between atoms: S_2  and  C_3
REMARK    2  A    between atoms: C_5  and  C_17
REMARK    3  A    between atoms: C_12  and  C_14
REMARK    4  A    between atoms: C_25  and  C_29
REMARK                            x       y       z     vdW  Elec       q    Type
REMARK                         _______ _______ _______ _____ _____    ______ ____
ROOT
ATOM      1  C   UNL     1       5.976  -1.039  26.262  0.00  0.00    +0.000 C 
ATOM      2  C   UNL     1       5.243  -1.848  24.823  0.00  0.00    +0.000 C 
ATOM      3  C   UNL     1       6.764  -1.978  24.372  0.00  0.00    +0.000 C 
ATOM      4  C   UNL     1       7.080  -1.843  26.020  0.00  0.00    +0.000 C 
ATOM      5  C   UNL     1       6.340  -3.271  26.510  0.00  0.00    +0.000 C 
ATOM      6  C   UNL     1       7.359  -4.243  27.007  0.00  0.00    +0.000 C 
ATOM      7  O   UNL     1       8.187  -4.609  25.941  0.00  0.00    +0.000 OA
ATOM      8  C   UNL     1       8.493  -3.548  25.161  0.00  0.00    +0.000 C 
ATOM      9  C   UNL     1       8.475  -2.255  26.074  0.00  0.00    +0.000 C 
ATOM     10  C   UNL     1       7.325  -3.295  24.136  0.00  0.00    +0.000 C 
ATOM     11  C   UNL     1       6.296  -4.441  24.355  0.00  0.00    +0.000 C 
ATOM     12  C   UNL     1       9.788  -3.678  24.475  0.00  0.00    +0.000 C 
ENDROOT
BRANCH   3  13
ATOM     13  C   UNL     1       7.203  -0.756  23.757  0.00  0.00    +0.000 C 
ATOM     14  C   UNL     1       5.996   0.329  23.920  0.00  0.00    +0.000 C 
ATOM     15  C   UNL     1       7.087  -0.985  22.162  0.00  0.00    +0.000 C 
ATOM     16  C   UNL     1       6.024  -1.838  21.769  0.00  0.00    +0.000 C 
ATOM     17  O   UNL     1       6.903   0.323  21.660  0.00  0.00    +0.000 OA
ATOM     18  C   UNL     1       7.903   0.718  20.782  0.00  0.00    +0.000 C 
ATOM     19  C   UNL     1       9.169   0.993  21.720  0.00  0.00    +0.000 C 
ATOM     20  C   UNL     1       9.308  -0.214  22.475  0.00  0.00    +0.000 C 
ATOM     21  C   UNL     1       8.413   0.002  23.901  0.00  0.00    +0.000 C 
ATOM     22  C   UNL     1       9.666  -0.550  24.675  0.00  0.00    +0.000 C 
ATOM     23  C   UNL     1      10.536  -0.563  23.260  0.00  0.00    +0.000 C 
ATOM     24  C   UNL     1      10.974  -1.980  23.085  0.00  0.00    +0.000 C 
ATOM     25  C   UNL     1       8.552  -1.374  21.848  0.00  0.00    +0.000 C 
BRANCH  21  26
ATOM     26  C   UNL     1       8.352   1.446  24.079  0.00  0.00    +0.000 C 
ATOM     27  O   UNL     1       7.314   1.936  23.754  0.00  0.00    +0.000 OA
ATOM     28  O   UNL     1       9.263   1.994  24.840  0.00  0.00    +0.000 OA
ENDBRANCH  21  26
ENDBRANCH   3  13
BRANCH   1  30
ATOM     29  C   UNL     1       6.220   1.778  27.234  0.00  0.00    +0.000 C 
ATOM     30  S   UNL     1       5.540   0.553  26.126  0.00  0.00    +0.000 S 
ENDBRANCH   1  30
BRANCH  10  31
ATOM     31  C   UNL     1       7.939  -3.564  22.761  0.00  0.00    +0.000 C 
ATOM     32  O   UNL     1       7.446  -4.793  22.290  0.00  0.00    +0.000 OA
ENDBRANCH  10  31
TORSDOF 4
ENDMDL
MODEL 7
REMARK VINA RESULT:      -6.6      1.941      5.432
REMARK  Name = 
REMARK  4 active torsions:
REMARK  status: ('A' for Active; 'I' for Inactive)
REMARK    1  A    between atoms: S_2  and  C_3
REMARK    2  A    between atoms: C_5  and  C_17
REMARK    3  A    between atoms: C_12  and  C_14
REMARK    4  A    between atoms: C_25  and  C_29
REMARK                            x       y       z     vdW  Elec       q    Type
REMARK                         _______ _______ _______ _____ _____    ______ ____
ROOT
ATOM      1  C   UNL     1       5.527   1.494  25.458  0.00  0.00    +0.000 C 
ATOM      2  C   UNL     1       7.167   1.428  26.211  0.00  0.00    +0.000 C 
ATOM      3  C   UNL     1       7.581   0.859  24.784  0.00  0.00    +0.000 C 
ATOM      4  C   UNL     1       6.201   1.668  24.258  0.00  0.00    +0.000 C 
ATOM      5  C   UNL     1       6.715   3.233  24.596  0.00  0.00    +0.000 C 
ATOM      6  C   UNL     1       6.915   4.001  23.330  0.00  0.00    +0.000 C 
ATOM      7  O   UNL     1       7.966   3.418  22.615  0.00  0.00    +0.000 OA
ATOM      8  C   UNL     1       7.915   2.069  22.662  0.00  0.00    +0.000 C 
ATOM      9  C   UNL     1       6.396   1.648  22.816  0.00  0.00    +0.000 C 
ATOM     10  C   UNL     1       8.576   1.564  23.999  0.00  0.00    +0.000 C 
ATOM     11  C   UNL     1       9.130   2.828  24.716  0.00  0.00    +0.000 C 
ATOM     12  C   UNL     1       8.515   1.417  21.488  0.00  0.00    +0.000 C 
ENDROOT
BRANCH   3  13
ATOM     13  C   UNL     1       7.297  -0.549  24.712  0.00  0.00    +0.000 C 
ATOM     14  C   UNL     1       6.034  -0.839  25.702  0.00  0.00    +0.000 C 
ATOM     15  C   UNL     1       8.441  -1.285  25.583  0.00  0.00    +0.000 C 
ATOM     16  C   UNL     1       8.906  -0.535  26.692  0.00  0.00    +0.000 C 
ATOM     17  O   UNL     1       7.810  -2.477  26.002  0.00  0.00    +0.000 OA
ATOM     18  C   UNL     1       8.454  -3.624  25.557  0.00  0.00    +0.000 C 
ATOM     19  C   UNL     1       8.102  -3.697  23.999  0.00  0.00    +0.000 C 
ATOM     20  C   UNL     1       8.485  -2.414  23.498  0.00  0.00    +0.000 C 
ATOM     21  C   UNL     1       7.109  -1.426  23.592  0.00  0.00    +0.000 C 
ATOM     22  C   UNL     1       7.421  -0.987  22.115  0.00  0.00    +0.000 C 
ATOM     23  C   UNL     1       8.644  -2.108  22.039  0.00  0.00    +0.000 C 
ATOM     24  C   UNL     1       9.874  -1.323  21.724  0.00  0.00    +0.000 C 
ATOM     25  C   UNL     1       9.418  -1.680  24.449  0.00  0.00    +0.000 C 
BRANCH  21  26
ATOM     26  C   UNL     1       5.989  -2.357  23.577  0.00  0.00    +0.000 C 
ATOM     27  O   UNL     1       5.399  -2.431  24.612  0.00  0.00    +0.000 OA
ATOM     28  O   UNL     1       5.557  -2.754  22.408  0.00  0.00    +0.000 OA
ENDBRANCH  21  26
ENDBRANCH   3  13
BRANCH   1  30
ATOM     29  C   UNL     1       3.211   0.760  27.201  0.00  0.00    +0.000 C 
ATOM     30  S   UNL     1       4.650   0.325  26.236  0.00  0.00    +0.000 S 
ENDBRANCH   1  30
BRANCH  10  31
ATOM     31  C   UNL     1       9.812   0.779  23.557  0.00  0.00    +0.000 C 
ATOM     32  O   UNL     1      10.943   1.365  24.150  0.00  0.00    +0.000 OA
ENDBRANCH  10  31
TORSDOF 4
ENDMDL
MODEL 8
REMARK VINA RESULT:      -6.4      1.980      5.291
REMARK  Name = 
REMARK  4 active torsions:
REMARK  status: ('A' for Active; 'I' for Inactive)
REMARK    1  A    between atoms: S_2  and  C_3
REMARK    2  A    between atoms: C_5  and  C_17
REMARK    3  A    between atoms: C_12  and  C_14
REMARK    4  A    between atoms: C_25  and  C_29
REMARK                            x       y       z     vdW  Elec       q    Type
REMARK                         _______ _______ _______ _____ _____    ______ ____
ROOT
ATOM      1  C   UNL     1       5.230   0.335  25.756  0.00  0.00    +0.000 C 
ATOM      2  C   UNL     1       6.840   0.726  26.473  0.00  0.00    +0.000 C 
ATOM      3  C   UNL     1       7.155   1.224  24.995  0.00  0.00    +0.000 C 
ATOM      4  C   UNL     1       5.482   1.382  24.882  0.00  0.00    +0.000 C 
ATOM      5  C   UNL     1       5.292   2.593  26.034  0.00  0.00    +0.000 C 
ATOM      6  C   UNL     1       4.852   3.864  25.386  0.00  0.00    +0.000 C 
ATOM      7  O   UNL     1       5.875   4.317  24.547  0.00  0.00    +0.000 OA
ATOM      8  C   UNL     1       6.450   3.300  23.868  0.00  0.00    +0.000 C 
ATOM      9  C   UNL     1       5.356   2.173  23.667  0.00  0.00    +0.000 C 
ATOM     10  C   UNL     1       7.534   2.607  24.776  0.00  0.00    +0.000 C 
ATOM     11  C   UNL     1       7.594   3.435  26.091  0.00  0.00    +0.000 C 
ATOM     12  C   UNL     1       7.017   3.706  22.572  0.00  0.00    +0.000 C 
ENDROOT
BRANCH   3  13
ATOM     13  C   UNL     1       7.530   0.110  24.168  0.00  0.00    +0.000 C 
ATOM     14  C   UNL     1       6.477  -1.097  24.476  0.00  0.00    +0.000 C 
ATOM     15  C   UNL     1       8.835  -0.547  24.858  0.00  0.00    +0.000 C 
ATOM     16  C   UNL     1       8.859  -0.450  26.272  0.00  0.00    +0.000 C 
ATOM     17  O   UNL     1       8.777  -1.894  24.439  0.00  0.00    +0.000 OA
ATOM     18  C   UNL     1       9.885  -2.287  23.700  0.00  0.00    +0.000 C 
ATOM     19  C   UNL     1       9.684  -1.582  22.279  0.00  0.00    +0.000 C 
ATOM     20  C   UNL     1       9.484  -0.203  22.603  0.00  0.00    +0.000 C 
ATOM     21  C   UNL     1       7.808   0.018  22.764  0.00  0.00    +0.000 C 
ATOM     22  C   UNL     1       7.970   1.288  21.851  0.00  0.00    +0.000 C 
ATOM     23  C   UNL     1       9.566   0.904  21.596  0.00  0.00    +0.000 C 
ATOM     24  C   UNL     1      10.334   2.091  22.076  0.00  0.00    +0.000 C 
ATOM     25  C   UNL     1       9.942   0.129  24.014  0.00  0.00    +0.000 C 
BRANCH  21  26
ATOM     26  C   UNL     1       7.221  -1.055  21.972  0.00  0.00    +0.000 C 
ATOM     27  O   UNL     1       6.717  -1.921  22.620  0.00  0.00    +0.000 OA
ATOM     28  O   UNL     1       7.021  -0.821  20.702  0.00  0.00    +0.000 OA
ENDBRANCH  21  26
ENDBRANCH   3  13
BRANCH   1  30
ATOM     29  C   UNL     1       3.966  -2.194  26.728  0.00  0.00    +0.000 C 
ATOM     30  S   UNL     1       5.163  -1.319  25.732  0.00  0.00    +0.000 S 
ENDBRANCH   1  30
BRANCH  10  31
ATOM     31  C   UNL     1       8.866   2.871  24.074  0.00  0.00    +0.000 C 
ATOM     32  O   UNL     1       9.452   4.010  24.651  0.00  0.00    +0.000 OA
ENDBRANCH  10  31
TORSDOF 4
ENDMDL
