MODEL 1
REMARK VINA RESULT:      -6.0      0.000      0.000
REMARK  Name = 
REMARK  6 active torsions:
REMARK  status: ('A' for Active; 'I' for Inactive)
REMARK    1  A    between atoms: C_2  and  C_3
REMARK    2  A    between atoms: C_3  and  C_4
REMARK    3  A    between atoms: C_5  and  N_6
REMARK    4  A    between atoms: C_13  and  O_21
REMARK    5  A    between atoms: C_14  and  C_17
REMARK    6  A    between atoms: O_21  and  C_22
REMARK                            x       y       z     vdW  Elec       q    Type
REMARK                         _______ _______ _______ _____ _____    ______ ____
ROOT
ATOM      1  C   UNL     1       8.406  -3.845  25.303  0.00  0.00    +0.000 C 
ATOM      2  C   UNL     1       8.159  -2.523  25.063  0.00  0.00    +0.000 C 
ATOM      3  C   UNL     1       6.857  -2.503  24.122  0.00  0.00    +0.000 C 
ATOM      4  C   UNL     1       6.973  -4.044  23.651  0.00  0.00    +0.000 C 
ATOM      5  C   UNL     1       7.870  -4.851  24.338  0.00  0.00    +0.000 C 
ATOM      6  O   UNL     1       9.053  -5.564  23.869  0.00  0.00    +0.000 OA
ENDROOT
BRANCH   2   7
ATOM      7  N   UNL     1       8.961  -1.442  24.681  0.00  0.00    +0.000 N 
ATOM      8  C   UNL     1      10.004  -1.648  23.728  0.00  0.00    +0.000 C 
ATOM      9  C   UNL     1      10.212  -0.354  22.947  0.00  0.00    +0.000 C 
ATOM     10  C   UNL     1      10.396   0.808  23.904  0.00  0.00    +0.000 C 
ATOM     11  C   UNL     1       9.172   0.947  24.803  0.00  0.00    +0.000 C 
ATOM     12  C   UNL     1       9.028  -0.332  25.629  0.00  0.00    +0.000 C 
ATOM     13  O   UNL     1      11.492   0.513  24.735  0.00  0.00    +0.000 OA
ENDBRANCH   2   7
BRANCH   4  14
ATOM     14  C   UNL     1       5.821  -4.299  22.805  0.00  0.00    +0.000 C 
ATOM     15  C   UNL     1       5.623  -3.053  21.873  0.00  0.00    +0.000 C 
ATOM     16  C   UNL     1       4.527  -4.517  23.553  0.00  0.00    +0.000 C 
ATOM     17  C   UNL     1       6.074  -5.487  21.861  0.00  0.00    +0.000 C 
ENDBRANCH   4  14
BRANCH   1  18
ATOM     18  C   UNL     1       8.907  -4.572  26.637  0.00  0.00    +0.000 C 
BRANCH  18  20
ATOM     19  N   UNL     1       7.027  -5.907  27.865  0.00  0.00    +0.000 NA
ATOM     20  C   UNL     1       7.752  -5.263  27.215  0.00  0.00    +0.000 C 
ENDBRANCH  18  20
ENDBRANCH   1  18
BRANCH   3  21
ATOM     21  O   UNL     1       5.824  -2.519  25.111  0.00  0.00    +0.000 OA
BRANCH  21  22
ATOM     22  C   UNL     1       5.289  -1.216  25.080  0.00  0.00    +0.000 C 
ATOM     23  F   UNL     1       5.931  -0.445  24.142  0.00  0.00    +0.000 F 
ATOM     24  C   UNL     1       5.445  -0.597  26.456  0.00  0.00    +0.000 C 
ENDBRANCH  21  22
ENDBRANCH   3  21
TORSDOF 6
ENDMDL
MODEL 2
REMARK VINA RESULT:      -5.9      2.945      4.396
REMARK  Name = 
REMARK  6 active torsions:
REMARK  status: ('A' for Active; 'I' for Inactive)
REMARK    1  A    between atoms: C_2  and  C_3
REMARK    2  A    between atoms: C_3  and  C_4
REMARK    3  A    between atoms: C_5  and  N_6
REMARK    4  A    between atoms: C_13  and  O_21
REMARK    5  A    between atoms: C_14  and  C_17
REMARK    6  A    between atoms: O_21  and  C_22
REMARK                            x       y       z     vdW  Elec       q    Type
REMARK                         _______ _______ _______ _____ _____    ______ ____
ROOT
ATOM      1  C   UNL     1       6.527  -3.507  22.439  0.00  0.00    +0.000 C 
ATOM      2  C   UNL     1       7.096  -2.282  22.238  0.00  0.00    +0.000 C 
ATOM      3  C   UNL     1       6.862  -1.480  23.611  0.00  0.00    +0.000 C 
ATOM      4  C   UNL     1       5.678  -2.434  24.156  0.00  0.00    +0.000 C 
ATOM      5  C   UNL     1       5.471  -3.633  23.487  0.00  0.00    +0.000 C 
ATOM      6  O   UNL     1       4.303  -4.125  22.764  0.00  0.00    +0.000 OA
ENDROOT
BRANCH   2   7
ATOM      7  N   UNL     1       7.040  -1.346  21.199  0.00  0.00    +0.000 N 
ATOM      8  C   UNL     1       6.107  -1.538  20.136  0.00  0.00    +0.000 C 
ATOM      9  C   UNL     1       5.699  -0.171  19.595  0.00  0.00    +0.000 C 
ATOM     10  C   UNL     1       6.932   0.649  19.267  0.00  0.00    +0.000 C 
ATOM     11  C   UNL     1       7.789   0.831  20.516  0.00  0.00    +0.000 C 
ATOM     12  C   UNL     1       8.247  -0.547  20.996  0.00  0.00    +0.000 C 
ATOM     13  O   UNL     1       7.699  -0.077  18.338  0.00  0.00    +0.000 OA
ENDBRANCH   2   7
BRANCH   4  14
ATOM     14  C   UNL     1       5.323  -1.932  25.471  0.00  0.00    +0.000 C 
ATOM     15  C   UNL     1       3.860  -2.404  25.788  0.00  0.00    +0.000 C 
ATOM     16  C   UNL     1       5.351  -0.427  25.597  0.00  0.00    +0.000 C 
ATOM     17  C   UNL     1       6.207  -2.555  26.565  0.00  0.00    +0.000 C 
ENDBRANCH   4  14
BRANCH   1  18
ATOM     18  C   UNL     1       7.012  -4.957  21.967  0.00  0.00    +0.000 C 
BRANCH  18  20
ATOM     19  N   UNL     1       8.631  -5.666  23.891  0.00  0.00    +0.000 NA
ATOM     20  C   UNL     1       7.855  -5.501  23.035  0.00  0.00    +0.000 C 
ENDBRANCH  18  20
ENDBRANCH   1  18
BRANCH   3  21
ATOM     21  O   UNL     1       8.012  -1.897  24.351  0.00  0.00    +0.000 OA
BRANCH  21  22
ATOM     22  C   UNL     1       8.847  -0.762  24.370  0.00  0.00    +0.000 C 
ATOM     23  F   UNL     1      10.048  -1.028  23.757  0.00  0.00    +0.000 F 
ATOM     24  C   UNL     1       9.080  -0.357  25.813  0.00  0.00    +0.000 C 
ENDBRANCH  21  22
ENDBRANCH   3  21
TORSDOF 6
ENDMDL
MODEL 3
REMARK VINA RESULT:      -5.7      2.752      4.585
REMARK  Name = 
REMARK  6 active torsions:
REMARK  status: ('A' for Active; 'I' for Inactive)
REMARK    1  A    between atoms: C_2  and  C_3
REMARK    2  A    between atoms: C_3  and  C_4
REMARK    3  A    between atoms: C_5  and  N_6
REMARK    4  A    between atoms: C_13  and  O_21
REMARK    5  A    between atoms: C_14  and  C_17
REMARK    6  A    between atoms: O_21  and  C_22
REMARK                            x       y       z     vdW  Elec       q    Type
REMARK                         _______ _______ _______ _____ _____    ______ ____
ROOT
ATOM      1  C   UNL     1       9.417  -0.653  23.421  0.00  0.00    +0.000 C 
ATOM      2  C   UNL     1       8.136  -0.403  23.015  0.00  0.00    +0.000 C 
ATOM      3  C   UNL     1       7.234  -1.491  23.780  0.00  0.00    +0.000 C 
ATOM      4  C   UNL     1       8.452  -2.491  24.136  0.00  0.00    +0.000 C 
ATOM      5  C   UNL     1       9.741  -2.015  23.941  0.00  0.00    +0.000 C 
ATOM      6  O   UNL     1      10.804  -2.491  23.061  0.00  0.00    +0.000 OA
ENDROOT
BRANCH   2   7
ATOM      7  N   UNL     1       7.542  -0.177  21.768  0.00  0.00    +0.000 N 
ATOM      8  C   UNL     1       7.288  -1.285  20.904  0.00  0.00    +0.000 C 
ATOM      9  C   UNL     1       6.066  -0.964  20.049  0.00  0.00    +0.000 C 
ATOM     10  C   UNL     1       6.238   0.385  19.379  0.00  0.00    +0.000 C 
ATOM     11  C   UNL     1       6.424   1.474  20.431  0.00  0.00    +0.000 C 
ATOM     12  C   UNL     1       7.696   1.171  21.225  0.00  0.00    +0.000 C 
ATOM     13  O   UNL     1       7.419   0.340  18.614  0.00  0.00    +0.000 OA
ENDBRANCH   2   7
BRANCH   4  14
ATOM     14  C   UNL     1       7.877  -3.571  24.916  0.00  0.00    +0.000 C 
ATOM     15  C   UNL     1       8.773  -4.843  24.713  0.00  0.00    +0.000 C 
ATOM     16  C   UNL     1       6.465  -3.944  24.528  0.00  0.00    +0.000 C 
ATOM     17  C   UNL     1       7.930  -3.262  26.422  0.00  0.00    +0.000 C 
ENDBRANCH   4  14
BRANCH   1  18
ATOM     18  C   UNL     1      10.606   0.363  23.755  0.00  0.00    +0.000 C 
BRANCH  18  20
ATOM     19  N   UNL     1       9.294   2.464  24.585  0.00  0.00    +0.000 NA
ATOM     20  C   UNL     1       9.999   1.576  24.310  0.00  0.00    +0.000 C 
ENDBRANCH  18  20
ENDBRANCH   1  18
BRANCH   3  21
ATOM     21  O   UNL     1       6.983  -0.800  25.006  0.00  0.00    +0.000 OA
BRANCH  21  22
ATOM     22  C   UNL     1       5.632  -0.411  24.919  0.00  0.00    +0.000 C 
ATOM     23  F   UNL     1       5.524   0.939  24.687  0.00  0.00    +0.000 F 
ATOM     24  C   UNL     1       4.941  -0.770  26.220  0.00  0.00    +0.000 C 
ENDBRANCH  21  22
ENDBRANCH   3  21
TORSDOF 6
ENDMDL
MODEL 4
REMARK VINA RESULT:      -5.7      3.336      5.940
REMARK  Name = 
REMARK  6 active torsions:
REMARK  status: ('A' for Active; 'I' for Inactive)
REMARK    1  A    between atoms: C_2  and  C_3
REMARK    2  A    between atoms: C_3  and  C_4
REMARK    3  A    between atoms: C_5  and  N_6
REMARK    4  A    between atoms: C_13  and  O_21
REMARK    5  A    between atoms: C_14  and  C_17
REMARK    6  A    between atoms: O_21  and  C_22
REMARK                            x       y       z     vdW  Elec       q    Type
REMARK                         _______ _______ _______ _____ _____    ______ ____
ROOT
ATOM      1  C   UNL     1       7.643   1.916  22.747  0.00  0.00    +0.000 C 
ATOM      2  C   UNL     1       7.772   0.653  23.251  0.00  0.00    +0.000 C 
ATOM      3  C   UNL     1       7.482  -0.325  22.010  0.00  0.00    +0.000 C 
ATOM      4  C   UNL     1       6.736   0.782  21.100  0.00  0.00    +0.000 C 
ATOM      5  C   UNL     1       6.826   2.105  21.511  0.00  0.00    +0.000 C 
ATOM      6  O   UNL     1       5.785   3.046  21.908  0.00  0.00    +0.000 OA
ENDROOT
BRANCH   2   7
ATOM      7  N   UNL     1       7.290   0.015  24.400  0.00  0.00    +0.000 N 
ATOM      8  C   UNL     1       5.888   0.021  24.667  0.00  0.00    +0.000 C 
ATOM      9  C   UNL     1       5.535  -1.248  25.438  0.00  0.00    +0.000 C 
ATOM     10  C   UNL     1       6.448  -1.398  26.640  0.00  0.00    +0.000 C 
ATOM     11  C   UNL     1       7.903  -1.464  26.189  0.00  0.00    +0.000 C 
ATOM     12  C   UNL     1       8.254  -0.153  25.485  0.00  0.00    +0.000 C 
ATOM     13  O   UNL     1       6.310  -0.244  27.434  0.00  0.00    +0.000 OA
ENDBRANCH   2   7
BRANCH   4  14
ATOM     14  C   UNL     1       6.419   0.129  19.843  0.00  0.00    +0.000 C 
ATOM     15  C   UNL     1       5.285   0.958  19.143  0.00  0.00    +0.000 C 
ATOM     16  C   UNL     1       5.923  -1.291  19.980  0.00  0.00    +0.000 C 
ATOM     17  C   UNL     1       7.615   0.164  18.877  0.00  0.00    +0.000 C 
ENDBRANCH   4  14
BRANCH   1  18
ATOM     18  C   UNL     1       8.488   3.238  23.057  0.00  0.00    +0.000 C 
BRANCH  18  20
ATOM     19  N   UNL     1      10.777   2.207  23.783  0.00  0.00    +0.000 NA
ATOM     20  C   UNL     1       9.826   2.810  23.475  0.00  0.00    +0.000 C 
ENDBRANCH  18  20
ENDBRANCH   1  18
BRANCH   3  21
ATOM     21  O   UNL     1       8.791  -0.416  21.443  0.00  0.00    +0.000 OA
BRANCH  21  22
ATOM     22  C   UNL     1       9.226  -1.716  21.768  0.00  0.00    +0.000 C 
ATOM     23  F   UNL     1       8.220  -2.432  22.372  0.00  0.00    +0.000 F 
ATOM     24  C   UNL     1      10.417  -1.607  22.700  0.00  0.00    +0.000 C 
ENDBRANCH  21  22
ENDBRANCH   3  21
TORSDOF 6
ENDMDL
MODEL 5
REMARK VINA RESULT:      -5.7      3.688      6.005
REMARK  Name = 
REMARK  6 active torsions:
REMARK  status: ('A' for Active; 'I' for Inactive)
REMARK    1  A    between atoms: C_2  and  C_3
REMARK    2  A    between atoms: C_3  and  C_4
REMARK    3  A    between atoms: C_5  and  N_6
REMARK    4  A    between atoms: C_13  and  O_21
REMARK    5  A    between atoms: C_14  and  C_17
REMARK    6  A    between atoms: O_21  and  C_22
REMARK                            x       y       z     vdW  Elec       q    Type
REMARK                         _______ _______ _______ _____ _____    ______ ____
ROOT
ATOM      1  C   UNL     1       7.469   0.049  21.292  0.00  0.00    +0.000 C 
ATOM      2  C   UNL     1       7.557   0.992  22.276  0.00  0.00    +0.000 C 
ATOM      3  C   UNL     1       8.294   0.255  23.499  0.00  0.00    +0.000 C 
ATOM      4  C   UNL     1       8.006  -1.248  22.980  0.00  0.00    +0.000 C 
ATOM      5  C   UNL     1       7.530  -1.391  21.684  0.00  0.00    +0.000 C 
ATOM      6  O   UNL     1       6.276  -1.951  21.192  0.00  0.00    +0.000 OA
ENDROOT
BRANCH   2   7
ATOM      7  N   UNL     1       6.648   1.901  22.830  0.00  0.00    +0.000 N 
ATOM      8  C   UNL     1       5.953   1.553  24.027  0.00  0.00    +0.000 C 
ATOM      9  C   UNL     1       5.654   2.832  24.805  0.00  0.00    +0.000 C 
ATOM     10  C   UNL     1       4.974   3.844  23.902  0.00  0.00    +0.000 C 
ATOM     11  C   UNL     1       5.870   4.170  22.711  0.00  0.00    +0.000 C 
ATOM     12  C   UNL     1       6.094   2.889  21.906  0.00  0.00    +0.000 C 
ATOM     13  O   UNL     1       3.804   3.251  23.393  0.00  0.00    +0.000 OA
ENDBRANCH   2   7
BRANCH   4  14
ATOM     14  C   UNL     1       8.656  -2.137  23.925  0.00  0.00    +0.000 C 
ATOM     15  C   UNL     1       7.989  -3.551  23.795  0.00  0.00    +0.000 C 
ATOM     16  C   UNL     1       8.540  -1.712  25.370  0.00  0.00    +0.000 C 
ATOM     17  C   UNL     1      10.139  -2.343  23.570  0.00  0.00    +0.000 C 
ENDBRANCH   4  14
BRANCH   1  18
ATOM     18  C   UNL     1       7.636   0.197  19.708  0.00  0.00    +0.000 C 
BRANCH  18  20
ATOM     19  N   UNL     1       5.200   0.829  19.006  0.00  0.00    +0.000 NA
ATOM     20  C   UNL     1       6.327   0.570  19.166  0.00  0.00    +0.000 C 
ENDBRANCH  18  20
ENDBRANCH   1  18
BRANCH   3  21
ATOM     21  O   UNL     1       9.661   0.486  23.152  0.00  0.00    +0.000 OA
BRANCH  21  22
ATOM     22  C   UNL     1      10.130   1.370  24.144  0.00  0.00    +0.000 C 
ATOM     23  F   UNL     1       9.168   1.589  25.100  0.00  0.00    +0.000 F 
ATOM     24  C   UNL     1      10.512   2.679  23.482  0.00  0.00    +0.000 C 
ENDBRANCH  21  22
ENDBRANCH   3  21
TORSDOF 6
ENDMDL
MODEL 6
REMARK VINA RESULT:      -5.7      2.674      5.713
REMARK  Name = 
REMARK  6 active torsions:
REMARK  status: ('A' for Active; 'I' for Inactive)
REMARK    1  A    between atoms: C_2  and  C_3
REMARK    2  A    between atoms: C_3  and  C_4
REMARK    3  A    between atoms: C_5  and  N_6
REMARK    4  A    between atoms: C_13  and  O_21
REMARK    5  A    between atoms: C_14  and  C_17
REMARK    6  A    between atoms: O_21  and  C_22
REMARK                            x       y       z     vdW  Elec       q    Type
REMARK                         _______ _______ _______ _____ _____    ______ ____
ROOT
ATOM      1  C   UNL     1       6.539  -0.424  24.903  0.00  0.00    +0.000 C 
ATOM      2  C   UNL     1       6.986  -1.433  24.098  0.00  0.00    +0.000 C 
ATOM      3  C   UNL     1       7.700  -0.698  22.860  0.00  0.00    +0.000 C 
ATOM      4  C   UNL     1       6.998   0.737  23.097  0.00  0.00    +0.000 C 
ATOM      5  C   UNL     1       6.319   0.922  24.294  0.00  0.00    +0.000 C 
ATOM      6  O   UNL     1       4.911   1.206  24.551  0.00  0.00    +0.000 OA
ENDROOT
BRANCH   2   7
ATOM      7  N   UNL     1       6.404  -2.606  23.602  0.00  0.00    +0.000 N 
ATOM      8  C   UNL     1       5.954  -2.644  22.248  0.00  0.00    +0.000 C 
ATOM      9  C   UNL     1       6.073  -4.077  21.736  0.00  0.00    +0.000 C 
ATOM     10  C   UNL     1       5.392  -5.032  22.699  0.00  0.00    +0.000 C 
ATOM     11  C   UNL     1       6.031  -4.929  24.080  0.00  0.00    +0.000 C 
ATOM     12  C   UNL     1       5.834  -3.505  24.602  0.00  0.00    +0.000 C 
ATOM     13  O   UNL     1       4.050  -4.629  22.830  0.00  0.00    +0.000 OA
ENDBRANCH   2   7
BRANCH   4  14
ATOM     14  C   UNL     1       7.553   1.632  22.098  0.00  0.00    +0.000 C 
ATOM     15  C   UNL     1       6.491   2.750  21.809  0.00  0.00    +0.000 C 
ATOM     16  C   UNL     1       7.887   0.972  20.780  0.00  0.00    +0.000 C 
ATOM     17  C   UNL     1       8.794   2.366  22.633  0.00  0.00    +0.000 C 
ENDBRANCH   4  14
BRANCH   1  18
ATOM     18  C   UNL     1       6.505  -0.320  26.499  0.00  0.00    +0.000 C 
BRANCH  18  20
ATOM     19  N   UNL     1       8.990  -0.812  27.138  0.00  0.00    +0.000 NA
ATOM     20  C   UNL     1       7.881  -0.488  26.974  0.00  0.00    +0.000 C 
ENDBRANCH  18  20
ENDBRANCH   1  18
BRANCH   3  21
ATOM     21  O   UNL     1       9.018  -0.531  23.386  0.00  0.00    +0.000 OA
BRANCH  21  22
ATOM     22  C   UNL     1       9.777  -1.539  22.760  0.00  0.00    +0.000 C 
ATOM     23  F   UNL     1       9.116  -2.041  21.665  0.00  0.00    +0.000 F 
ATOM     24  C   UNL     1      10.030  -2.647  23.765  0.00  0.00    +0.000 C 
ENDBRANCH  21  22
ENDBRANCH   3  21
TORSDOF 6
ENDMDL
MODEL 7
REMARK VINA RESULT:      -5.6      2.417      5.918
REMARK  Name = 
REMARK  6 active torsions:
REMARK  status: ('A' for Active; 'I' for Inactive)
REMARK    1  A    between atoms: C_2  and  C_3
REMARK    2  A    between atoms: C_3  and  C_4
REMARK    3  A    between atoms: C_5  and  N_6
REMARK    4  A    between atoms: C_13  and  O_21
REMARK    5  A    between atoms: C_14  and  C_17
REMARK    6  A    between atoms: O_21  and  C_22
REMARK                            x       y       z     vdW  Elec       q    Type
REMARK                         _______ _______ _______ _____ _____    ______ ____
ROOT
ATOM      1  C   UNL     1       7.679  -0.784  21.813  0.00  0.00    +0.000 C 
ATOM      2  C   UNL     1       7.008  -1.650  22.629  0.00  0.00    +0.000 C 
ATOM      3  C   UNL     1       7.382  -1.193  24.123  0.00  0.00    +0.000 C 
ATOM      4  C   UNL     1       8.691  -0.342  23.711  0.00  0.00    +0.000 C 
ATOM      5  C   UNL     1       8.879  -0.082  22.360  0.00  0.00    +0.000 C 
ATOM      6  O   UNL     1       9.962  -0.471  21.463  0.00  0.00    +0.000 OA
ENDROOT
BRANCH   2   7
ATOM      7  N   UNL     1       6.855  -3.041  22.648  0.00  0.00    +0.000 N 
ATOM      8  C   UNL     1       5.924  -3.654  21.757  0.00  0.00    +0.000 C 
ATOM      9  C   UNL     1       6.426  -5.054  21.416  0.00  0.00    +0.000 C 
ATOM     10  C   UNL     1       6.742  -5.818  22.688  0.00  0.00    +0.000 C 
ATOM     11  C   UNL     1       7.805  -5.078  23.495  0.00  0.00    +0.000 C 
ATOM     12  C   UNL     1       7.250  -3.707  23.887  0.00  0.00    +0.000 C 
ATOM     13  O   UNL     1       5.574  -5.853  23.472  0.00  0.00    +0.000 OA
ENDBRANCH   2   7
BRANCH   4  14
ATOM     14  C   UNL     1       9.195   0.250  24.937  0.00  0.00    +0.000 C 
ATOM     15  C   UNL     1      10.733   0.502  24.753  0.00  0.00    +0.000 C 
ATOM     16  C   UNL     1       9.020  -0.609  26.167  0.00  0.00    +0.000 C 
ATOM     17  C   UNL     1       8.574   1.635  25.186  0.00  0.00    +0.000 C 
ENDBRANCH   4  14
BRANCH   1  18
ATOM     18  C   UNL     1       7.228  -0.111  20.434  0.00  0.00    +0.000 C 
BRANCH  18  20
ATOM     19  N   UNL     1       6.102   2.148  21.113  0.00  0.00    +0.000 NA
ATOM     20  C   UNL     1       6.724   1.229  20.749  0.00  0.00    +0.000 C 
ENDBRANCH  18  20
ENDBRANCH   1  18
BRANCH   3  21
ATOM     21  O   UNL     1       6.378  -0.201  24.348  0.00  0.00    +0.000 OA
BRANCH  21  22
ATOM     22  C   UNL     1       5.654  -0.678  25.458  0.00  0.00    +0.000 C 
ATOM     23  F   UNL     1       4.773  -1.662  25.082  0.00  0.00    +0.000 F 
ATOM     24  C   UNL     1       4.901   0.483  26.078  0.00  0.00    +0.000 C 
ENDBRANCH  21  22
ENDBRANCH   3  21
TORSDOF 6
ENDMDL
MODEL 8
REMARK VINA RESULT:      -5.6      3.629      6.226
REMARK  Name = 
REMARK  6 active torsions:
REMARK  status: ('A' for Active; 'I' for Inactive)
REMARK    1  A    between atoms: C_2  and  C_3
REMARK    2  A    between atoms: C_3  and  C_4
REMARK    3  A    between atoms: C_5  and  N_6
REMARK    4  A    between atoms: C_13  and  O_21
REMARK    5  A    between atoms: C_14  and  C_17
REMARK    6  A    between atoms: O_21  and  C_22
REMARK                            x       y       z     vdW  Elec       q    Type
REMARK                         _______ _______ _______ _____ _____    ______ ____
ROOT
ATOM      1  C   UNL     1       6.960   1.810  23.131  0.00  0.00    +0.000 C 
ATOM      2  C   UNL     1       6.702   0.732  22.333  0.00  0.00    +0.000 C 
ATOM      3  C   UNL     1       7.810  -0.361  22.733  0.00  0.00    +0.000 C 
ATOM      4  C   UNL     1       8.817   0.682  23.446  0.00  0.00    +0.000 C 
ATOM      5  C   UNL     1       8.334   1.959  23.697  0.00  0.00    +0.000 C 
ATOM      6  O   UNL     1       8.786   3.257  23.205  0.00  0.00    +0.000 OA
ENDROOT
BRANCH   2   7
ATOM      7  N   UNL     1       6.446   0.578  20.965  0.00  0.00    +0.000 N 
ATOM      8  C   UNL     1       6.998  -0.540  20.272  0.00  0.00    +0.000 C 
ATOM      9  C   UNL     1       6.063  -0.912  19.126  0.00  0.00    +0.000 C 
ATOM     10  C   UNL     1       5.754   0.313  18.287  0.00  0.00    +0.000 C 
ATOM     11  C   UNL     1       5.101   1.389  19.149  0.00  0.00    +0.000 C 
ATOM     12  C   UNL     1       6.086   1.798  20.245  0.00  0.00    +0.000 C 
ATOM     13  O   UNL     1       6.975   0.837  17.822  0.00  0.00    +0.000 OA
ENDBRANCH   2   7
BRANCH   4  14
ATOM     14  C   UNL     1       9.918  -0.107  23.968  0.00  0.00    +0.000 C 
ATOM     15  C   UNL     1      11.102   0.871  24.288  0.00  0.00    +0.000 C 
ATOM     16  C   UNL     1      10.442  -1.160  23.021  0.00  0.00    +0.000 C 
ATOM     17  C   UNL     1       9.547  -0.763  25.310  0.00  0.00    +0.000 C 
ENDBRANCH   4  14
BRANCH   1  18
ATOM     18  C   UNL     1       5.951   2.814  23.861  0.00  0.00    +0.000 C 
BRANCH  18  20
ATOM     19  N   UNL     1       4.360   1.337  25.315  0.00  0.00    +0.000 NA
ATOM     20  C   UNL     1       5.154   2.021  24.801  0.00  0.00    +0.000 C 
ENDBRANCH  18  20
ENDBRANCH   1  18
BRANCH   3  21
ATOM     21  O   UNL     1       7.151  -1.008  23.824  0.00  0.00    +0.000 OA
BRANCH  21  22
ATOM     22  C   UNL     1       7.065  -2.358  23.431  0.00  0.00    +0.000 C 
ATOM     23  F   UNL     1       7.768  -2.577  22.271  0.00  0.00    +0.000 F 
ATOM     24  C   UNL     1       5.604  -2.709  23.227  0.00  0.00    +0.000 C 
ENDBRANCH  21  22
ENDBRANCH   3  21
TORSDOF 6
ENDMDL
MODEL 9
REMARK VINA RESULT:      -5.5      2.247      5.284
REMARK  Name = 
REMARK  6 active torsions:
REMARK  status: ('A' for Active; 'I' for Inactive)
REMARK    1  A    between atoms: C_2  and  C_3
REMARK    2  A    between atoms: C_3  and  C_4
REMARK    3  A    between atoms: C_5  and  N_6
REMARK    4  A    between atoms: C_13  and  O_21
REMARK    5  A    between atoms: C_14  and  C_17
REMARK    6  A    between atoms: O_21  and  C_22
REMARK                            x       y       z     vdW  Elec       q    Type
REMARK                         _______ _______ _______ _____ _____    ______ ____
ROOT
ATOM      1  C   UNL     1       7.716  -3.657  25.453  0.00  0.00    +0.000 C 
ATOM      2  C   UNL     1       6.683  -4.066  24.658  0.00  0.00    +0.000 C 
ATOM      3  C   UNL     1       6.843  -3.228  23.297  0.00  0.00    +0.000 C 
ATOM      4  C   UNL     1       7.803  -2.088  23.919  0.00  0.00    +0.000 C 
ATOM      5  C   UNL     1       8.333  -2.325  25.180  0.00  0.00    +0.000 C 
ATOM      6  O   UNL     1       8.168  -1.590  26.430  0.00  0.00    +0.000 OA
ENDROOT
BRANCH   2   7
ATOM      7  N   UNL     1       5.311  -4.250  24.871  0.00  0.00    +0.000 N 
ATOM      8  C   UNL     1       4.773  -5.572  24.861  0.00  0.00    +0.000 C 
ATOM      9  C   UNL     1       3.563  -5.611  25.789  0.00  0.00    +0.000 C 
ATOM     10  C   UNL     1       2.602  -4.491  25.440  0.00  0.00    +0.000 C 
ATOM     11  C   UNL     1       3.299  -3.141  25.570  0.00  0.00    +0.000 C 
ATOM     12  C   UNL     1       4.462  -3.097  24.578  0.00  0.00    +0.000 C 
ATOM     13  O   UNL     1       2.235  -4.642  24.090  0.00  0.00    +0.000 OA
ENDBRANCH   2   7
BRANCH   4  14
ATOM     14  C   UNL     1       8.153  -1.206  22.821  0.00  0.00    +0.000 C 
ATOM     15  C   UNL     1       8.430   0.219  23.416  0.00  0.00    +0.000 C 
ATOM     16  C   UNL     1       7.080  -1.057  21.768  0.00  0.00    +0.000 C 
ATOM     17  C   UNL     1       9.469  -1.640  22.153  0.00  0.00    +0.000 C 
ENDBRANCH   4  14
BRANCH   1  18
ATOM     18  C   UNL     1       8.636  -4.496  26.457  0.00  0.00    +0.000 C 
BRANCH  18  20
ATOM     19  N   UNL     1       7.156  -6.002  27.995  0.00  0.00    +0.000 NA
ATOM     20  C   UNL     1       7.758  -5.415  27.186  0.00  0.00    +0.000 C 
ENDBRANCH  18  20
ENDBRANCH   1  18
BRANCH   3  21
ATOM     21  O   UNL     1       7.737  -4.079  22.575  0.00  0.00    +0.000 OA
BRANCH  21  22
ATOM     22  C   UNL     1       6.934  -4.668  21.579  0.00  0.00    +0.000 C 
ATOM     23  F   UNL     1       5.668  -4.134  21.591  0.00  0.00    +0.000 F 
ATOM     24  C   UNL     1       6.869  -6.162  21.833  0.00  0.00    +0.000 C 
ENDBRANCH  21  22
ENDBRANCH   3  21
TORSDOF 6
ENDMDL
