MODEL 1
REMARK VINA RESULT:      -7.2      0.000      0.000
REMARK  Name = 
REMARK  6 active torsions:
REMARK  status: ('A' for Active; 'I' for Inactive)
REMARK    1  A    between atoms: N_7  and  C_10
REMARK    2  A    between atoms: C_10  and  N_11
REMARK    3  A    between atoms: N_14  and  C_17
REMARK    4  A    between atoms: C_17  and  N_18
REMARK    5  A    between atoms: N_21  and  C_24
REMARK    6  A    between atoms: C_24  and  N_25
REMARK                            x       y       z     vdW  Elec       q    Type
REMARK                         _______ _______ _______ _____ _____    ______ ____
ROOT
ATOM      1  C   UNL     1       9.966  -2.423  23.843  0.00  0.00    +0.000 C 
ENDROOT
BRANCH   1   5
ATOM      2  N   UNL     1       7.675  -4.562  26.522  0.00  0.00    +0.000 NA
ATOM      3  C   UNL     1       7.421  -3.190  26.379  0.00  0.00    +0.000 C 
ATOM      4  C   UNL     1       8.631  -2.469  25.770  0.00  0.00    +0.000 C 
ATOM      5  N   UNL     1       9.035  -3.165  24.600  0.00  0.00    +0.000 NA
ATOM      6  C   UNL     1       9.539  -4.446  24.937  0.00  0.00    +0.000 C 
ATOM      7  C   UNL     1       8.983  -4.938  26.252  0.00  0.00    +0.000 C 
BRANCH   2   8
ATOM      8  C   UNL     1       6.677  -5.386  26.042  0.00  0.00    +0.000 C 
BRANCH   8  15
ATOM      9  C   UNL     1       2.198  -7.789  23.924  0.00  0.00    +0.000 C 
ATOM     10  C   UNL     1       2.690  -7.629  25.347  0.00  0.00    +0.000 C 
ATOM     11  O   UNL     1       1.918  -7.642  26.281  0.00  0.00    +0.000 OA
ATOM     12  N   UNL     1       3.979  -7.251  25.481  0.00  0.00    +0.000 N 
ATOM     13  C   UNL     1       4.658  -6.635  24.346  0.00  0.00    +0.000 C 
ATOM     14  C   UNL     1       4.873  -5.163  24.577  0.00  0.00    +0.000 C 
ATOM     15  N   UNL     1       5.386  -4.868  25.872  0.00  0.00    +0.000 NA
ATOM     16  C   UNL     1       4.489  -5.351  26.860  0.00  0.00    +0.000 C 
ATOM     17  C   UNL     1       4.460  -6.883  26.822  0.00  0.00    +0.000 C 
ENDBRANCH   8  15
ENDBRANCH   2   8
ENDBRANCH   1   5
BRANCH   1  18
ATOM     18  N   UNL     1       9.398  -1.972  22.580  0.00  0.00    +0.000 NA
ATOM     19  C   UNL     1       7.986  -2.173  22.671  0.00  0.00    +0.000 C 
ATOM     20  C   UNL     1       7.280  -1.536  21.481  0.00  0.00    +0.000 C 
ATOM     21  N   UNL     1       7.521  -0.105  21.532  0.00  0.00    +0.000 NA
ATOM     22  C   UNL     1       8.927   0.088  21.358  0.00  0.00    +0.000 C 
ATOM     23  C   UNL     1       9.693  -0.584  22.471  0.00  0.00    +0.000 C 
BRANCH  21  24
ATOM     24  C   UNL     1       7.101   0.383  22.779  0.00  0.00    +0.000 C 
BRANCH  24  25
ATOM     25  N   UNL     1       7.484   1.584  23.247  0.00  0.00    +0.000 NA
ATOM     26  C   UNL     1       7.718   1.733  24.622  0.00  0.00    +0.000 C 
ATOM     27  C   UNL     1       8.670   2.863  24.911  0.00  0.00    +0.000 C 
ATOM     28  N   UNL     1       8.376   4.035  24.112  0.00  0.00    +0.000 N 
ATOM     29  C   UNL     1       7.799   3.923  22.782  0.00  0.00    +0.000 C 
ATOM     30  C   UNL     1       6.862   2.732  22.706  0.00  0.00    +0.000 C 
ATOM     31  C   UNL     1       9.105   5.161  24.372  0.00  0.00    +0.000 C 
ATOM     32  O   UNL     1       9.786   5.660  23.509  0.00  0.00    +0.000 OA
ATOM     33  C   UNL     1       8.791   5.859  25.669  0.00  0.00    +0.000 C 
ENDBRANCH  24  25
ENDBRANCH  21  24
ENDBRANCH   1  18
TORSDOF 6
ENDMDL
MODEL 2
REMARK VINA RESULT:      -7.2      2.868      5.306
REMARK  Name = 
REMARK  6 active torsions:
REMARK  status: ('A' for Active; 'I' for Inactive)
REMARK    1  A    between atoms: N_7  and  C_10
REMARK    2  A    between atoms: C_10  and  N_11
REMARK    3  A    between atoms: N_14  and  C_17
REMARK    4  A    between atoms: C_17  and  N_18
REMARK    5  A    between atoms: N_21  and  C_24
REMARK    6  A    between atoms: C_24  and  N_25
REMARK                            x       y       z     vdW  Elec       q    Type
REMARK                         _______ _______ _______ _____ _____    ______ ____
ROOT
ATOM      1  C   UNL     1       9.539   1.790  22.027  0.00  0.00    +0.000 C 
ENDROOT
BRANCH   1   5
ATOM      2  N   UNL     1       9.972  -1.923  23.767  0.00  0.00    +0.000 NA
ATOM      3  C   UNL     1       9.975  -0.794  24.600  0.00  0.00    +0.000 C 
ATOM      4  C   UNL     1      10.314   0.473  23.805  0.00  0.00    +0.000 C 
ATOM      5  N   UNL     1       9.473   0.532  22.662  0.00  0.00    +0.000 NA
ATOM      6  C   UNL     1       9.784  -0.521  21.767  0.00  0.00    +0.000 C 
ATOM      7  C   UNL     1      10.427  -1.689  22.478  0.00  0.00    +0.000 C 
BRANCH   2   8
ATOM      8  C   UNL     1       8.863  -2.734  23.900  0.00  0.00    +0.000 C 
BRANCH   8  15
ATOM      9  C   UNL     1       6.488  -5.692  27.891  0.00  0.00    +0.000 C 
ATOM     10  C   UNL     1       6.154  -5.508  26.425  0.00  0.00    +0.000 C 
ATOM     11  O   UNL     1       5.542  -6.355  25.811  0.00  0.00    +0.000 OA
ATOM     12  N   UNL     1       6.768  -4.474  25.812  0.00  0.00    +0.000 N 
ATOM     13  C   UNL     1       7.963  -3.898  26.420  0.00  0.00    +0.000 C 
ATOM     14  C   UNL     1       9.197  -4.259  25.637  0.00  0.00    +0.000 C 
ATOM     15  N   UNL     1       9.040  -4.084  24.233  0.00  0.00    +0.000 NA
ATOM     16  C   UNL     1       7.965  -4.887  23.770  0.00  0.00    +0.000 C 
ATOM     17  C   UNL     1       6.647  -4.361  24.350  0.00  0.00    +0.000 C 
ENDBRANCH   8  15
ENDBRANCH   2   8
ENDBRANCH   1   5
BRANCH   1  18
ATOM     18  N   UNL     1       8.330   2.571  22.251  0.00  0.00    +0.000 NA
ATOM     19  C   UNL     1       7.279   1.636  22.505  0.00  0.00    +0.000 C 
ATOM     20  C   UNL     1       6.020   2.362  22.961  0.00  0.00    +0.000 C 
ATOM     21  N   UNL     1       6.319   3.034  24.213  0.00  0.00    +0.000 NA
ATOM     22  C   UNL     1       7.312   4.023  23.929  0.00  0.00    +0.000 C 
ATOM     23  C   UNL     1       8.568   3.372  23.403  0.00  0.00    +0.000 C 
BRANCH  21  24
ATOM     24  C   UNL     1       6.802   2.089  25.131  0.00  0.00    +0.000 C 
BRANCH  24  25
ATOM     25  N   UNL     1       6.010   1.153  25.684  0.00  0.00    +0.000 NA
ATOM     26  C   UNL     1       5.330   1.455  26.872  0.00  0.00    +0.000 C 
ATOM     27  C   UNL     1       4.090   0.619  27.039  0.00  0.00    +0.000 C 
ATOM     28  N   UNL     1       4.322  -0.768  26.689  0.00  0.00    +0.000 N 
ATOM     29  C   UNL     1       5.293  -1.143  25.674  0.00  0.00    +0.000 C 
ATOM     30  C   UNL     1       6.469  -0.184  25.681  0.00  0.00    +0.000 C 
ATOM     31  C   UNL     1       3.296  -1.643  26.910  0.00  0.00    +0.000 C 
ATOM     32  O   UNL     1       2.817  -2.266  25.993  0.00  0.00    +0.000 OA
ATOM     33  C   UNL     1       3.008  -1.964  28.352  0.00  0.00    +0.000 C 
ENDBRANCH  24  25
ENDBRANCH  21  24
ENDBRANCH   1  18
TORSDOF 6
ENDMDL
MODEL 3
REMARK VINA RESULT:      -7.2      3.107      7.697
REMARK  Name = 
REMARK  6 active torsions:
REMARK  status: ('A' for Active; 'I' for Inactive)
REMARK    1  A    between atoms: N_7  and  C_10
REMARK    2  A    between atoms: C_10  and  N_11
REMARK    3  A    between atoms: N_14  and  C_17
REMARK    4  A    between atoms: C_17  and  N_18
REMARK    5  A    between atoms: N_21  and  C_24
REMARK    6  A    between atoms: C_24  and  N_25
REMARK                            x       y       z     vdW  Elec       q    Type
REMARK                         _______ _______ _______ _____ _____    ______ ____
ROOT
ATOM      1  C   UNL     1       6.921  -3.747  26.615  0.00  0.00    +0.000 C 
ENDROOT
BRANCH   1   5
ATOM      2  N   UNL     1       7.900   0.230  26.144  0.00  0.00    +0.000 NA
ATOM      3  C   UNL     1       8.852  -0.735  25.786  0.00  0.00    +0.000 C 
ATOM      4  C   UNL     1       8.559  -2.076  26.471  0.00  0.00    +0.000 C 
ATOM      5  N   UNL     1       7.198  -2.415  26.246  0.00  0.00    +0.000 NA
ATOM      6  C   UNL     1       6.346  -1.500  26.914  0.00  0.00    +0.000 C 
ATOM      7  C   UNL     1       7.021  -0.169  27.141  0.00  0.00    +0.000 C 
BRANCH   2   8
ATOM      8  C   UNL     1       7.363   0.932  25.084  0.00  0.00    +0.000 C 
BRANCH   8  15
ATOM      9  C   UNL     1       9.231   5.859  23.486  0.00  0.00    +0.000 C 
ATOM     10  C   UNL     1       8.216   4.910  22.881  0.00  0.00    +0.000 C 
ATOM     11  O   UNL     1       7.333   5.317  22.158  0.00  0.00    +0.000 OA
ATOM     12  N   UNL     1       8.224   3.654  23.376  0.00  0.00    +0.000 N 
ATOM     13  C   UNL     1       8.853   3.406  24.669  0.00  0.00    +0.000 C 
ATOM     14  C   UNL     1       7.821   3.129  25.729  0.00  0.00    +0.000 C 
ATOM     15  N   UNL     1       6.822   2.204  25.310  0.00  0.00    +0.000 NA
ATOM     16  C   UNL     1       6.159   2.708  24.160  0.00  0.00    +0.000 C 
ATOM     17  C   UNL     1       7.137   2.744  22.980  0.00  0.00    +0.000 C 
ENDBRANCH   8  15
ENDBRANCH   2   8
ENDBRANCH   1   5
BRANCH   1  18
ATOM     18  N   UNL     1       6.698  -4.595  25.451  0.00  0.00    +0.000 NA
ATOM     19  C   UNL     1       5.813  -3.879  24.587  0.00  0.00    +0.000 C 
ATOM     20  C   UNL     1       5.688  -4.590  23.246  0.00  0.00    +0.000 C 
ATOM     21  N   UNL     1       6.998  -4.598  22.619  0.00  0.00    +0.000 NA
ATOM     22  C   UNL     1       7.854  -5.386  23.452  0.00  0.00    +0.000 C 
ATOM     23  C   UNL     1       7.964  -4.771  24.825  0.00  0.00    +0.000 C 
BRANCH  21  24
ATOM     24  C   UNL     1       7.467  -3.278  22.529  0.00  0.00    +0.000 C 
BRANCH  24  25
ATOM     25  N   UNL     1       6.984  -2.405  21.627  0.00  0.00    +0.000 NA
ATOM     26  C   UNL     1       7.141  -1.031  21.862  0.00  0.00    +0.000 C 
ATOM     27  C   UNL     1       7.119  -0.236  20.584  0.00  0.00    +0.000 C 
ATOM     28  N   UNL     1       6.077  -0.686  19.684  0.00  0.00    +0.000 N 
ATOM     29  C   UNL     1       5.643  -2.073  19.658  0.00  0.00    +0.000 C 
ATOM     30  C   UNL     1       5.728  -2.685  21.044  0.00  0.00    +0.000 C 
ATOM     31  C   UNL     1       5.890   0.038  18.540  0.00  0.00    +0.000 C 
ATOM     32  O   UNL     1       6.019  -0.485  17.460  0.00  0.00    +0.000 OA
ATOM     33  C   UNL     1       5.270   1.398  18.720  0.00  0.00    +0.000 C 
ENDBRANCH  24  25
ENDBRANCH  21  24
ENDBRANCH   1  18
TORSDOF 6
ENDMDL
MODEL 4
REMARK VINA RESULT:      -7.1      2.739      4.223
REMARK  Name = 
REMARK  6 active torsions:
REMARK  status: ('A' for Active; 'I' for Inactive)
REMARK    1  A    between atoms: N_7  and  C_10
REMARK    2  A    between atoms: C_10  and  N_11
REMARK    3  A    between atoms: N_14  and  C_17
REMARK    4  A    between atoms: C_17  and  N_18
REMARK    5  A    between atoms: N_21  and  C_24
REMARK    6  A    between atoms: C_24  and  N_25
REMARK                            x       y       z     vdW  Elec       q    Type
REMARK                         _______ _______ _______ _____ _____    ______ ____
ROOT
ATOM      1  C   UNL     1       9.847   1.436  21.946  0.00  0.00    +0.000 C 
ENDROOT
BRANCH   1   5
ATOM      2  N   UNL     1       9.560  -2.038  24.149  0.00  0.00    +0.000 NA
ATOM      3  C   UNL     1       9.573  -0.815  24.836  0.00  0.00    +0.000 C 
ATOM      4  C   UNL     1      10.179   0.296  23.968  0.00  0.00    +0.000 C 
ATOM      5  N   UNL     1       9.535   0.287  22.702  0.00  0.00    +0.000 NA
ATOM      6  C   UNL     1       9.849  -0.902  21.997  0.00  0.00    +0.000 C 
ATOM      7  C   UNL     1      10.230  -2.024  22.934  0.00  0.00    +0.000 C 
BRANCH   2   8
ATOM      8  C   UNL     1       8.354  -2.708  24.188  0.00  0.00    +0.000 C 
BRANCH   8  15
ATOM      9  C   UNL     1       4.572  -6.710  24.247  0.00  0.00    +0.000 C 
ATOM     10  C   UNL     1       4.575  -5.322  23.641  0.00  0.00    +0.000 C 
ATOM     11  O   UNL     1       3.878  -5.054  22.687  0.00  0.00    +0.000 OA
ATOM     12  N   UNL     1       5.551  -4.496  24.078  0.00  0.00    +0.000 N 
ATOM     13  C   UNL     1       6.725  -5.068  24.727  0.00  0.00    +0.000 C 
ATOM     14  C   UNL     1       7.934  -4.978  23.835  0.00  0.00    +0.000 C 
ATOM     15  N   UNL     1       8.091  -3.698  23.232  0.00  0.00    +0.000 NA
ATOM     16  C   UNL     1       6.940  -3.392  22.459  0.00  0.00    +0.000 C 
ATOM     17  C   UNL     1       5.733  -3.210  23.386  0.00  0.00    +0.000 C 
ENDBRANCH   8  15
ENDBRANCH   2   8
ENDBRANCH   1   5
BRANCH   1  18
ATOM     18  N   UNL     1       8.733   2.374  21.904  0.00  0.00    +0.000 NA
ATOM     19  C   UNL     1       7.563   1.607  21.612  0.00  0.00    +0.000 C 
ATOM     20  C   UNL     1       6.314   2.466  21.756  0.00  0.00    +0.000 C 
ATOM     21  N   UNL     1       6.221   2.892  23.142  0.00  0.00    +0.000 NA
ATOM     22  C   UNL     1       7.355   3.726  23.398  0.00  0.00    +0.000 C 
ATOM     23  C   UNL     1       8.634   2.950  23.202  0.00  0.00    +0.000 C 
BRANCH  21  24
ATOM     24  C   UNL     1       6.239   1.758  23.968  0.00  0.00    +0.000 C 
BRANCH  24  25
ATOM     25  N   UNL     1       6.310   1.847  25.309  0.00  0.00    +0.000 NA
ATOM     26  C   UNL     1       6.508   0.677  26.056  0.00  0.00    +0.000 C 
ATOM     27  C   UNL     1       7.145   0.962  27.390  0.00  0.00    +0.000 C 
ATOM     28  N   UNL     1       6.560   2.121  28.031  0.00  0.00    +0.000 N 
ATOM     29  C   UNL     1       6.021   3.228  27.257  0.00  0.00    +0.000 C 
ATOM     30  C   UNL     1       5.414   2.725  25.959  0.00  0.00    +0.000 C 
ATOM     31  C   UNL     1       6.982   2.408  29.299  0.00  0.00    +0.000 C 
ATOM     32  O   UNL     1       7.510   3.467  29.541  0.00  0.00    +0.000 OA
ATOM     33  C   UNL     1       6.512   1.465  30.374  0.00  0.00    +0.000 C 
ENDBRANCH  24  25
ENDBRANCH  21  24
ENDBRANCH   1  18
TORSDOF 6
ENDMDL
MODEL 5
REMARK VINA RESULT:      -7.1      2.259      8.842
REMARK  Name = 
REMARK  6 active torsions:
REMARK  status: ('A' for Active; 'I' for Inactive)
REMARK    1  A    between atoms: N_7  and  C_10
REMARK    2  A    between atoms: C_10  and  N_11
REMARK    3  A    between atoms: N_14  and  C_17
REMARK    4  A    between atoms: C_17  and  N_18
REMARK    5  A    between atoms: N_21  and  C_24
REMARK    6  A    between atoms: C_24  and  N_25
REMARK                            x       y       z     vdW  Elec       q    Type
REMARK                         _______ _______ _______ _____ _____    ______ ____
ROOT
ATOM      1  C   UNL     1       9.544  -2.318  23.710  0.00  0.00    +0.000 C 
ENDROOT
BRANCH   1   5
ATOM      2  N   UNL     1      10.236   1.710  23.169  0.00  0.00    +0.000 NA
ATOM      3  C   UNL     1      10.021   0.915  22.034  0.00  0.00    +0.000 C 
ATOM      4  C   UNL     1      10.285  -0.564  22.342  0.00  0.00    +0.000 C 
ATOM      5  N   UNL     1       9.564  -0.922  23.512  0.00  0.00    +0.000 NA
ATOM      6  C   UNL     1      10.087  -0.243  24.641  0.00  0.00    +0.000 C 
ATOM      7  C   UNL     1      10.788   1.037  24.249  0.00  0.00    +0.000 C 
BRANCH   2   8
ATOM      8  C   UNL     1       9.224   2.607  23.444  0.00  0.00    +0.000 C 
BRANCH   8  15
ATOM      9  C   UNL     1       4.364   4.323  25.384  0.00  0.00    +0.000 C 
ATOM     10  C   UNL     1       5.276   4.863  24.301  0.00  0.00    +0.000 C 
ATOM     11  O   UNL     1       4.838   5.532  23.391  0.00  0.00    +0.000 OA
ATOM     12  N   UNL     1       6.532   4.368  24.295  0.00  0.00    +0.000 N 
ATOM     13  C   UNL     1       6.804   3.116  24.992  0.00  0.00    +0.000 C 
ATOM     14  C   UNL     1       7.045   1.994  24.018  0.00  0.00    +0.000 C 
ATOM     15  N   UNL     1       7.933   2.350  22.964  0.00  0.00    +0.000 NA
ATOM     16  C   UNL     1       7.405   3.458  22.250  0.00  0.00    +0.000 C 
ATOM     17  C   UNL     1       7.402   4.696  23.154  0.00  0.00    +0.000 C 
ENDBRANCH   8  15
ENDBRANCH   2   8
ENDBRANCH   1   5
BRANCH   1  18
ATOM     18  N   UNL     1       8.401  -2.939  23.054  0.00  0.00    +0.000 NA
ATOM     19  C   UNL     1       8.010  -4.044  23.873  0.00  0.00    +0.000 C 
ATOM     20  C   UNL     1       6.692  -4.630  23.383  0.00  0.00    +0.000 C 
ATOM     21  N   UNL     1       5.670  -3.606  23.515  0.00  0.00    +0.000 NA
ATOM     22  C   UNL     1       6.029  -2.541  22.631  0.00  0.00    +0.000 C 
ATOM     23  C   UNL     1       7.367  -1.961  23.020  0.00  0.00    +0.000 C 
BRANCH  21  24
ATOM     24  C   UNL     1       5.643  -3.161  24.846  0.00  0.00    +0.000 C 
BRANCH  24  25
ATOM     25  N   UNL     1       5.377  -3.987  25.874  0.00  0.00    +0.000 NA
ATOM     26  C   UNL     1       4.046  -4.350  26.125  0.00  0.00    +0.000 C 
ATOM     27  C   UNL     1       3.948  -5.665  26.851  0.00  0.00    +0.000 C 
ATOM     28  N   UNL     1       4.923  -5.767  27.917  0.00  0.00    +0.000 N 
ATOM     29  C   UNL     1       6.214  -5.102  27.834  0.00  0.00    +0.000 C 
ATOM     30  C   UNL     1       6.090  -3.792  27.078  0.00  0.00    +0.000 C 
ATOM     31  C   UNL     1       4.853  -6.872  28.718  0.00  0.00    +0.000 C 
ATOM     32  O   UNL     1       5.790  -7.630  28.796  0.00  0.00    +0.000 OA
ATOM     33  C   UNL     1       3.682  -6.922  29.664  0.00  0.00    +0.000 C 
ENDBRANCH  24  25
ENDBRANCH  21  24
ENDBRANCH   1  18
TORSDOF 6
ENDMDL
MODEL 6
REMARK VINA RESULT:      -6.9      2.267      2.853
REMARK  Name = 
REMARK  6 active torsions:
REMARK  status: ('A' for Active; 'I' for Inactive)
REMARK    1  A    between atoms: N_7  and  C_10
REMARK    2  A    between atoms: C_10  and  N_11
REMARK    3  A    between atoms: N_14  and  C_17
REMARK    4  A    between atoms: C_17  and  N_18
REMARK    5  A    between atoms: N_21  and  C_24
REMARK    6  A    between atoms: C_24  and  N_25
REMARK                            x       y       z     vdW  Elec       q    Type
REMARK                         _______ _______ _______ _____ _____    ______ ____
ROOT
ATOM      1  C   UNL     1       9.443  -2.697  24.063  0.00  0.00    +0.000 C 
ENDROOT
BRANCH   1   5
ATOM      2  N   UNL     1       6.848  -4.837  26.448  0.00  0.00    +0.000 NA
ATOM      3  C   UNL     1       6.947  -3.453  26.649  0.00  0.00    +0.000 C 
ATOM      4  C   UNL     1       8.262  -2.907  26.077  0.00  0.00    +0.000 C 
ATOM      5  N   UNL     1       8.401  -3.364  24.740  0.00  0.00    +0.000 NA
ATOM      6  C   UNL     1       8.579  -4.770  24.715  0.00  0.00    +0.000 C 
ATOM      7  C   UNL     1       7.996  -5.429  25.943  0.00  0.00    +0.000 C 
BRANCH   2   8
ATOM      8  C   UNL     1       5.644  -5.258  25.919  0.00  0.00    +0.000 C 
BRANCH   8  15
ATOM      9  C   UNL     1       1.594  -7.605  23.020  0.00  0.00    +0.000 C 
ATOM     10  C   UNL     1       1.886  -6.162  23.377  0.00  0.00    +0.000 C 
ATOM     11  O   UNL     1       1.480  -5.252  22.687  0.00  0.00    +0.000 OA
ATOM     12  N   UNL     1       2.797  -5.975  24.356  0.00  0.00    +0.000 N 
ATOM     13  C   UNL     1       3.708  -7.063  24.693  0.00  0.00    +0.000 C 
ATOM     14  C   UNL     1       5.105  -6.765  24.219  0.00  0.00    +0.000 C 
ATOM     15  N   UNL     1       5.534  -5.445  24.535  0.00  0.00    +0.000 NA
ATOM     16  C   UNL     1       4.650  -4.503  23.945  0.00  0.00    +0.000 C 
ATOM     17  C   UNL     1       3.273  -4.606  24.610  0.00  0.00    +0.000 C 
ENDBRANCH   8  15
ENDBRANCH   2   8
ENDBRANCH   1   5
BRANCH   1  18
ATOM     18  N   UNL     1       9.015  -2.213  22.757  0.00  0.00    +0.000 NA
ATOM     19  C   UNL     1       7.659  -1.786  22.902  0.00  0.00    +0.000 C 
ATOM     20  C   UNL     1       7.190  -1.067  21.643  0.00  0.00    +0.000 C 
ATOM     21  N   UNL     1       8.007   0.122  21.476  0.00  0.00    +0.000 NA
ATOM     22  C   UNL     1       9.348  -0.321  21.250  0.00  0.00    +0.000 C 
ATOM     23  C   UNL     1       9.851  -1.106  22.437  0.00  0.00    +0.000 C 
BRANCH  21  24
ATOM     24  C   UNL     1       7.927   0.896  22.644  0.00  0.00    +0.000 C 
BRANCH  24  25
ATOM     25  N   UNL     1       6.842   1.631  22.946  0.00  0.00    +0.000 NA
ATOM     26  C   UNL     1       6.561   2.771  22.179  0.00  0.00    +0.000 C 
ATOM     27  C   UNL     1       5.098   3.126  22.213  0.00  0.00    +0.000 C 
ATOM     28  N   UNL     1       4.547   3.017  23.548  0.00  0.00    +0.000 N 
ATOM     29  C   UNL     1       5.061   2.051  24.506  0.00  0.00    +0.000 C 
ATOM     30  C   UNL     1       6.552   1.849  24.312  0.00  0.00    +0.000 C 
ATOM     31  C   UNL     1       3.254   3.424  23.720  0.00  0.00    +0.000 C 
ATOM     32  O   UNL     1       2.418   2.648  24.116  0.00  0.00    +0.000 OA
ATOM     33  C   UNL     1       3.021   4.910  23.650  0.00  0.00    +0.000 C 
ENDBRANCH  24  25
ENDBRANCH  21  24
ENDBRANCH   1  18
TORSDOF 6
ENDMDL
MODEL 7
REMARK VINA RESULT:      -6.8      2.878      4.241
REMARK  Name = 
REMARK  6 active torsions:
REMARK  status: ('A' for Active; 'I' for Inactive)
REMARK    1  A    between atoms: N_7  and  C_10
REMARK    2  A    between atoms: C_10  and  N_11
REMARK    3  A    between atoms: N_14  and  C_17
REMARK    4  A    between atoms: C_17  and  N_18
REMARK    5  A    between atoms: N_21  and  C_24
REMARK    6  A    between atoms: C_24  and  N_25
REMARK                            x       y       z     vdW  Elec       q    Type
REMARK                         _______ _______ _______ _____ _____    ______ ____
ROOT
ATOM      1  C   UNL     1       9.741  -0.131  21.543  0.00  0.00    +0.000 C 
ENDROOT
BRANCH   1   5
ATOM      2  N   UNL     1       8.099  -3.137  23.838  0.00  0.00    +0.000 NA
ATOM      3  C   UNL     1       9.369  -2.653  24.187  0.00  0.00    +0.000 C 
ATOM      4  C   UNL     1      10.032  -1.946  22.998  0.00  0.00    +0.000 C 
ATOM      5  N   UNL     1       9.118  -1.000  22.463  0.00  0.00    +0.000 NA
ATOM      6  C   UNL     1       8.006  -1.661  21.885  0.00  0.00    +0.000 C 
ATOM      7  C   UNL     1       7.792  -3.028  22.490  0.00  0.00    +0.000 C 
BRANCH   2   8
ATOM      8  C   UNL     1       7.097  -2.825  24.734  0.00  0.00    +0.000 C 
BRANCH   8  15
ATOM      9  C   UNL     1       6.077  -6.360  28.831  0.00  0.00    +0.000 C 
ATOM     10  C   UNL     1       5.607  -4.944  28.567  0.00  0.00    +0.000 C 
ATOM     11  O   UNL     1       4.563  -4.536  29.028  0.00  0.00    +0.000 OA
ATOM     12  N   UNL     1       6.293  -4.267  27.622  0.00  0.00    +0.000 N 
ATOM     13  C   UNL     1       7.104  -5.012  26.665  0.00  0.00    +0.000 C 
ATOM     14  C   UNL     1       6.473  -5.003  25.299  0.00  0.00    +0.000 C 
ATOM     15  N   UNL     1       6.025  -3.712  24.897  0.00  0.00    +0.000 NA
ATOM     16  C   UNL     1       5.074  -3.226  25.832  0.00  0.00    +0.000 C 
ATOM     17  C   UNL     1       5.764  -2.968  27.177  0.00  0.00    +0.000 C 
ENDBRANCH   8  15
ENDBRANCH   2   8
ENDBRANCH   1   5
BRANCH   1  18
ATOM     18  N   UNL     1       9.673   1.257  21.980  0.00  0.00    +0.000 NA
ATOM     19  C   UNL     1       8.306   1.658  21.861  0.00  0.00    +0.000 C 
ATOM     20  C   UNL     1       8.095   3.027  22.494  0.00  0.00    +0.000 C 
ATOM     21  N   UNL     1       8.395   2.915  23.911  0.00  0.00    +0.000 NA
ATOM     22  C   UNL     1       9.784   2.595  24.020  0.00  0.00    +0.000 C 
ATOM     23  C   UNL     1      10.075   1.276  23.345  0.00  0.00    +0.000 C 
BRANCH  21  24
ATOM     24  C   UNL     1       7.603   1.897  24.464  0.00  0.00    +0.000 C 
BRANCH  24  25
ATOM     25  N   UNL     1       7.302   1.853  25.774  0.00  0.00    +0.000 NA
ATOM     26  C   UNL     1       6.837   0.648  26.322  0.00  0.00    +0.000 C 
ATOM     27  C   UNL     1       7.109   0.561  27.800  0.00  0.00    +0.000 C 
ATOM     28  N   UNL     1       6.818   1.807  28.478  0.00  0.00    +0.000 N 
ATOM     29  C   UNL     1       6.966   3.090  27.809  0.00  0.00    +0.000 C 
ATOM     30  C   UNL     1       6.631   2.963  26.334  0.00  0.00    +0.000 C 
ATOM     31  C   UNL     1       6.920   1.811  29.841  0.00  0.00    +0.000 C 
ATOM     32  O   UNL     1       7.696   2.553  30.393  0.00  0.00    +0.000 OA
ATOM     33  C   UNL     1       5.847   1.055  30.580  0.00  0.00    +0.000 C 
ENDBRANCH  24  25
ENDBRANCH  21  24
ENDBRANCH   1  18
TORSDOF 6
ENDMDL
MODEL 8
REMARK VINA RESULT:      -6.8      1.864      9.063
REMARK  Name = 
REMARK  6 active torsions:
REMARK  status: ('A' for Active; 'I' for Inactive)
REMARK    1  A    between atoms: N_7  and  C_10
REMARK    2  A    between atoms: C_10  and  N_11
REMARK    3  A    between atoms: N_14  and  C_17
REMARK    4  A    between atoms: C_17  and  N_18
REMARK    5  A    between atoms: N_21  and  C_24
REMARK    6  A    between atoms: C_24  and  N_25
REMARK                            x       y       z     vdW  Elec       q    Type
REMARK                         _______ _______ _______ _____ _____    ______ ____
ROOT
ATOM      1  C   UNL     1      10.064  -1.683  23.191  0.00  0.00    +0.000 C 
ENDROOT
BRANCH   1   5
ATOM      2  N   UNL     1       8.747   1.881  21.590  0.00  0.00    +0.000 NA
ATOM      3  C   UNL     1       8.099   0.699  21.203  0.00  0.00    +0.000 C 
ATOM      4  C   UNL     1       8.988  -0.524  21.460  0.00  0.00    +0.000 C 
ATOM      5  N   UNL     1       9.461  -0.470  22.799  0.00  0.00    +0.000 NA
ATOM      6  C   UNL     1      10.340   0.628  22.966  0.00  0.00    +0.000 C 
ATOM      7  C   UNL     1      10.076   1.717  21.953  0.00  0.00    +0.000 C 
BRANCH   2   8
ATOM      8  C   UNL     1       7.986   2.727  22.372  0.00  0.00    +0.000 C 
BRANCH   8  15
ATOM      9  C   UNL     1       6.262   4.526  27.282  0.00  0.00    +0.000 C 
ATOM     10  C   UNL     1       5.724   4.723  25.880  0.00  0.00    +0.000 C 
ATOM     11  O   UNL     1       4.552   4.964  25.688  0.00  0.00    +0.000 OA
ATOM     12  N   UNL     1       6.567   4.391  24.879  0.00  0.00    +0.000 N 
ATOM     13  C   UNL     1       7.698   3.516  25.166  0.00  0.00    +0.000 C 
ATOM     14  C   UNL     1       7.486   2.146  24.578  0.00  0.00    +0.000 C 
ATOM     15  N   UNL     1       7.024   2.181  23.231  0.00  0.00    +0.000 NA
ATOM     16  C   UNL     1       5.796   2.891  23.168  0.00  0.00    +0.000 C 
ATOM     17  C   UNL     1       6.039   4.367  23.506  0.00  0.00    +0.000 C 
ENDBRANCH   8  15
ENDBRANCH   2   8
ENDBRANCH   1   5
BRANCH   1  18
ATOM     18  N   UNL     1       9.602  -2.116  24.503  0.00  0.00    +0.000 NA
ATOM     19  C   UNL     1       8.384  -1.414  24.760  0.00  0.00    +0.000 C 
ATOM     20  C   UNL     1       7.711  -1.956  26.015  0.00  0.00    +0.000 C 
ATOM     21  N   UNL     1       7.371  -3.347  25.775  0.00  0.00    +0.000 NA
ATOM     22  C   UNL     1       8.602  -4.054  25.600  0.00  0.00    +0.000 C 
ATOM     23  C   UNL     1       9.355  -3.515  24.409  0.00  0.00    +0.000 C 
BRANCH  21  24
ATOM     24  C   UNL     1       6.580  -3.428  24.618  0.00  0.00    +0.000 C 
BRANCH  24  25
ATOM     25  N   UNL     1       5.576  -4.314  24.494  0.00  0.00    +0.000 NA
ATOM     26  C   UNL     1       4.913  -4.420  23.263  0.00  0.00    +0.000 C 
ATOM     27  C   UNL     1       4.279  -5.773  23.080  0.00  0.00    +0.000 C 
ATOM     28  N   UNL     1       3.613  -6.225  24.284  0.00  0.00    +0.000 N 
ATOM     29  C   UNL     1       4.085  -5.841  25.604  0.00  0.00    +0.000 C 
ATOM     30  C   UNL     1       4.673  -4.442  25.574  0.00  0.00    +0.000 C 
ATOM     31  C   UNL     1       2.904  -7.390  24.201  0.00  0.00    +0.000 C 
ATOM     32  O   UNL     1       3.194  -8.331  24.900  0.00  0.00    +0.000 OA
ATOM     33  C   UNL     1       1.624  -7.323  23.411  0.00  0.00    +0.000 C 
ENDBRANCH  24  25
ENDBRANCH  21  24
ENDBRANCH   1  18
TORSDOF 6
ENDMDL
MODEL 9
REMARK VINA RESULT:      -6.8      2.320      9.207
REMARK  Name = 
REMARK  6 active torsions:
REMARK  status: ('A' for Active; 'I' for Inactive)
REMARK    1  A    between atoms: N_7  and  C_10
REMARK    2  A    between atoms: C_10  and  N_11
REMARK    3  A    between atoms: N_14  and  C_17
REMARK    4  A    between atoms: C_17  and  N_18
REMARK    5  A    between atoms: N_21  and  C_24
REMARK    6  A    between atoms: C_24  and  N_25
REMARK                            x       y       z     vdW  Elec       q    Type
REMARK                         _______ _______ _______ _____ _____    ______ ____
ROOT
ATOM      1  C   UNL     1       8.052  -2.650  22.046  0.00  0.00    +0.000 C 
ENDROOT
BRANCH   1   5
ATOM      2  N   UNL     1       8.198   1.411  21.342  0.00  0.00    +0.000 NA
ATOM      3  C   UNL     1       7.075   0.699  20.895  0.00  0.00    +0.000 C 
ATOM      4  C   UNL     1       7.388  -0.798  20.770  0.00  0.00    +0.000 C 
ATOM      5  N   UNL     1       7.978  -1.243  21.983  0.00  0.00    +0.000 NA
ATOM      6  C   UNL     1       9.250  -0.645  22.161  0.00  0.00    +0.000 C 
ATOM      7  C   UNL     1       9.364   0.662  21.413  0.00  0.00    +0.000 C 
BRANCH   2   8
ATOM      8  C   UNL     1       7.951   2.281  22.385  0.00  0.00    +0.000 C 
BRANCH   8  15
ATOM      9  C   UNL     1       8.241   5.858  26.560  0.00  0.00    +0.000 C 
ATOM     10  C   UNL     1       7.547   4.520  26.414  0.00  0.00    +0.000 C 
ATOM     11  O   UNL     1       7.302   3.833  27.381  0.00  0.00    +0.000 OA
ATOM     12  N   UNL     1       7.434   4.056  25.150  0.00  0.00    +0.000 N 
ATOM     13  C   UNL     1       8.303   4.604  24.114  0.00  0.00    +0.000 C 
ATOM     14  C   UNL     1       9.351   3.605  23.703  0.00  0.00    +0.000 C 
ATOM     15  N   UNL     1       8.825   2.301  23.479  0.00  0.00    +0.000 NA
ATOM     16  C   UNL     1       8.199   1.831  24.664  0.00  0.00    +0.000 C 
ATOM     17  C   UNL     1       6.955   2.678  24.957  0.00  0.00    +0.000 C 
ENDBRANCH   8  15
ENDBRANCH   2   8
ENDBRANCH   1   5
BRANCH   1  18
ATOM     18  N   UNL     1       6.730  -3.261  22.021  0.00  0.00    +0.000 NA
ATOM     19  C   UNL     1       6.933  -4.674  21.940  0.00  0.00    +0.000 C 
ATOM     20  C   UNL     1       5.614  -5.413  22.122  0.00  0.00    +0.000 C 
ATOM     21  N   UNL     1       5.117  -5.120  23.455  0.00  0.00    +0.000 NA
ATOM     22  C   UNL     1       4.840  -3.717  23.497  0.00  0.00    +0.000 C 
ATOM     23  C   UNL     1       6.099  -2.923  23.251  0.00  0.00    +0.000 C 
BRANCH  21  24
ATOM     24  C   UNL     1       6.103  -5.462  24.393  0.00  0.00    +0.000 C 
BRANCH  24  25
ATOM     25  N   UNL     1       5.823  -5.639  25.697  0.00  0.00    +0.000 NA
ATOM     26  C   UNL     1       4.617  -6.261  26.053  0.00  0.00    +0.000 C 
ATOM     27  C   UNL     1       4.700  -6.913  27.408  0.00  0.00    +0.000 C 
ATOM     28  N   UNL     1       5.375  -6.070  28.373  0.00  0.00    +0.000 N 
ATOM     29  C   UNL     1       6.421  -5.143  27.973  0.00  0.00    +0.000 C 
ATOM     30  C   UNL     1       6.141  -4.589  26.587  0.00  0.00    +0.000 C 
ATOM     31  C   UNL     1       5.408  -6.512  29.666  0.00  0.00    +0.000 C 
ATOM     32  O   UNL     1       6.464  -6.713  30.215  0.00  0.00    +0.000 OA
ATOM     33  C   UNL     1       4.098  -6.464  30.408  0.00  0.00    +0.000 C 
ENDBRANCH  24  25
ENDBRANCH  21  24
ENDBRANCH   1  18
TORSDOF 6
ENDMDL
