MODEL 1
REMARK VINA RESULT:      -6.4      0.000      0.000
REMARK  Name = 
REMARK  6 active torsions:
REMARK  status: ('A' for Active; 'I' for Inactive)
REMARK    1  A    between atoms: C_3  and  C_4
REMARK    2  A    between atoms: C_4  and  C_5
REMARK    3  A    between atoms: C_5  and  N_6
REMARK    4  A    between atoms: N_6  and  C_7
REMARK    5  A    between atoms: C_8  and  C_9
REMARK    6  A    between atoms: C_12  and  C_15
REMARK                            x       y       z     vdW  Elec       q    Type
REMARK                         _______ _______ _______ _____ _____    ______ ____
ROOT
ATOM      1  C   UNL     1       8.400  -1.790  22.852  0.00  0.00    +0.000 C 
ATOM      2  C   UNL     1       8.990  -2.254  24.045  0.00  0.00    +0.000 C 
ATOM      3  C   UNL     1       8.607  -3.796  24.144  0.00  0.00    +0.000 C 
ATOM      4  C   UNL     1       7.668  -4.057  23.124  0.00  0.00    +0.000 C 
ATOM      5  C   UNL     1       7.508  -2.905  22.060  0.00  0.00    +0.000 C 
ATOM      6  C   UNL     1       6.143  -2.301  22.107  0.00  0.00    +0.000 C 
ATOM      7  O   UNL     1       9.789  -4.451  24.603  0.00  0.00    +0.000 OA
ENDROOT
BRANCH   4   8
ATOM      8  C   UNL     1       6.341  -4.838  23.349  0.00  0.00    +0.000 C 
ATOM      9  C   UNL     1       5.124  -4.078  23.100  0.00  0.00    +0.000 C 
ATOM     10  C   UNL     1       6.431  -6.061  22.403  0.00  0.00    +0.000 C 
ATOM     11  C   UNL     1       6.421  -5.374  24.786  0.00  0.00    +0.000 C 
ENDBRANCH   4   8
BRANCH   2  12
ATOM     12  C   UNL     1       8.758  -1.707  25.403  0.00  0.00    +0.000 C 
ATOM     13  C   UNL     1       7.390  -1.479  25.707  0.00  0.00    +0.000 C 
ENDBRANCH   2  12
BRANCH   1  14
ATOM     14  N   UNL     1       8.869  -0.904  21.923  0.00  0.00    +0.000 NA
BRANCH  14  15
ATOM     15  C   UNL     1       8.728   0.417  21.713  0.00  0.00    +0.000 C 
ATOM     16  C   UNL     1       9.959   1.271  21.915  0.00  0.00    +0.000 C 
BRANCH  15  17
ATOM     17  C   UNL     1       7.771   0.971  20.752  0.00  0.00    +0.000 C 
BRANCH  17  20
ATOM     18  N   UNL     1       6.062  -0.545  17.770  0.00  0.00    +0.000 NA
ATOM     19  C   UNL     1       6.275  -0.174  19.061  0.00  0.00    +0.000 C 
ATOM     20  C   UNL     1       7.572   0.099  19.547  0.00  0.00    +0.000 C 
ENDBRANCH  17  20
ENDBRANCH  15  17
ENDBRANCH  14  15
ENDBRANCH   1  14
TORSDOF 6
ENDMDL
MODEL 2
REMARK VINA RESULT:      -6.4      2.314      5.191
REMARK  Name = 
REMARK  6 active torsions:
REMARK  status: ('A' for Active; 'I' for Inactive)
REMARK    1  A    between atoms: C_3  and  C_4
REMARK    2  A    between atoms: C_4  and  C_5
REMARK    3  A    between atoms: C_5  and  N_6
REMARK    4  A    between atoms: N_6  and  C_7
REMARK    5  A    between atoms: C_8  and  C_9
REMARK    6  A    between atoms: C_12  and  C_15
REMARK                            x       y       z     vdW  Elec       q    Type
REMARK                         _______ _______ _______ _____ _____    ______ ____
ROOT
ATOM      1  C   UNL     1       8.983  -1.949  23.713  0.00  0.00    +0.000 C 
ATOM      2  C   UNL     1       8.378  -1.053  24.618  0.00  0.00    +0.000 C 
ATOM      3  C   UNL     1       7.409  -0.143  23.742  0.00  0.00    +0.000 C 
ATOM      4  C   UNL     1       7.673  -0.440  22.387  0.00  0.00    +0.000 C 
ATOM      5  C   UNL     1       8.569  -1.715  22.151  0.00  0.00    +0.000 C 
ATOM      6  C   UNL     1       9.881  -1.356  21.534  0.00  0.00    +0.000 C 
ATOM      7  O   UNL     1       6.219  -0.001  24.518  0.00  0.00    +0.000 OA
ENDROOT
BRANCH   4   8
ATOM      8  C   UNL     1       7.890   0.643  21.292  0.00  0.00    +0.000 C 
ATOM      9  C   UNL     1       7.963   0.139  19.927  0.00  0.00    +0.000 C 
ATOM     10  C   UNL     1       6.702   1.622  21.455  0.00  0.00    +0.000 C 
ATOM     11  C   UNL     1       9.158   1.400  21.712  0.00  0.00    +0.000 C 
ENDBRANCH   4   8
BRANCH   2  12
ATOM     12  C   UNL     1       9.086  -0.112  25.518  0.00  0.00    +0.000 C 
ATOM     13  C   UNL     1      10.378   0.261  25.062  0.00  0.00    +0.000 C 
ENDBRANCH   2  12
BRANCH   1  14
ATOM     14  N   UNL     1       9.300  -3.270  23.860  0.00  0.00    +0.000 NA
BRANCH  14  15
ATOM     15  C   UNL     1       8.726  -4.323  24.470  0.00  0.00    +0.000 C 
ATOM     16  C   UNL     1       9.055  -4.524  25.932  0.00  0.00    +0.000 C 
BRANCH  15  17
ATOM     17  C   UNL     1       7.417  -4.852  24.077  0.00  0.00    +0.000 C 
BRANCH  17  20
ATOM     18  N   UNL     1       6.022  -5.582  20.666  0.00  0.00    +0.000 NA
ATOM     19  C   UNL     1       6.145  -5.602  22.021  0.00  0.00    +0.000 C 
ATOM     20  C   UNL     1       7.376  -5.331  22.655  0.00  0.00    +0.000 C 
ENDBRANCH  17  20
ENDBRANCH  15  17
ENDBRANCH  14  15
ENDBRANCH   1  14
TORSDOF 6
ENDMDL
MODEL 3
REMARK VINA RESULT:      -6.3      1.418      2.844
REMARK  Name = 
REMARK  6 active torsions:
REMARK  status: ('A' for Active; 'I' for Inactive)
REMARK    1  A    between atoms: C_3  and  C_4
REMARK    2  A    between atoms: C_4  and  C_5
REMARK    3  A    between atoms: C_5  and  N_6
REMARK    4  A    between atoms: N_6  and  C_7
REMARK    5  A    between atoms: C_8  and  C_9
REMARK    6  A    between atoms: C_12  and  C_15
REMARK                            x       y       z     vdW  Elec       q    Type
REMARK                         _______ _______ _______ _____ _____    ______ ____
ROOT
ATOM      1  C   UNL     1       8.495  -1.791  22.482  0.00  0.00    +0.000 C 
ATOM      2  C   UNL     1       9.404  -1.980  23.544  0.00  0.00    +0.000 C 
ATOM      3  C   UNL     1       9.011  -3.374  24.204  0.00  0.00    +0.000 C 
ATOM      4  C   UNL     1       7.795  -3.784  23.617  0.00  0.00    +0.000 C 
ATOM      5  C   UNL     1       7.363  -2.958  22.345  0.00  0.00    +0.000 C 
ATOM      6  C   UNL     1       6.101  -2.196  22.591  0.00  0.00    +0.000 C 
ATOM      7  O   UNL     1      10.251  -4.022  24.487  0.00  0.00    +0.000 OA
ENDROOT
BRANCH   4   8
ATOM      8  C   UNL     1       6.572  -4.299  24.429  0.00  0.00    +0.000 C 
ATOM      9  C   UNL     1       5.519  -4.920  23.638  0.00  0.00    +0.000 C 
ATOM     10  C   UNL     1       7.163  -5.304  25.448  0.00  0.00    +0.000 C 
ATOM     11  C   UNL     1       6.075  -3.086  25.230  0.00  0.00    +0.000 C 
ENDBRANCH   4   8
BRANCH   2  12
ATOM     12  C   UNL     1       9.619  -1.056  24.682  0.00  0.00    +0.000 C 
ATOM     13  C   UNL     1       8.490  -0.256  24.998  0.00  0.00    +0.000 C 
ENDBRANCH   2  12
BRANCH   1  14
ATOM     14  N   UNL     1       8.691  -1.262  21.238  0.00  0.00    +0.000 NA
BRANCH  14  15
ATOM     15  C   UNL     1       8.511  -0.050  20.680  0.00  0.00    +0.000 C 
ATOM     16  C   UNL     1       7.708  -0.004  19.401  0.00  0.00    +0.000 C 
BRANCH  15  17
ATOM     17  C   UNL     1       8.448   1.184  21.467  0.00  0.00    +0.000 C 
BRANCH  17  20
ATOM     18  N   UNL     1      11.047   2.646  23.752  0.00  0.00    +0.000 NA
ATOM     19  C   UNL     1       9.906   2.557  23.016  0.00  0.00    +0.000 C 
ATOM     20  C   UNL     1       9.794   1.656  21.935  0.00  0.00    +0.000 C 
ENDBRANCH  17  20
ENDBRANCH  15  17
ENDBRANCH  14  15
ENDBRANCH   1  14
TORSDOF 6
ENDMDL
MODEL 4
REMARK VINA RESULT:      -6.3      1.590      2.190
REMARK  Name = 
REMARK  6 active torsions:
REMARK  status: ('A' for Active; 'I' for Inactive)
REMARK    1  A    between atoms: C_3  and  C_4
REMARK    2  A    between atoms: C_4  and  C_5
REMARK    3  A    between atoms: C_5  and  N_6
REMARK    4  A    between atoms: N_6  and  C_7
REMARK    5  A    between atoms: C_8  and  C_9
REMARK    6  A    between atoms: C_12  and  C_15
REMARK                            x       y       z     vdW  Elec       q    Type
REMARK                         _______ _______ _______ _____ _____    ______ ____
ROOT
ATOM      1  C   UNL     1       7.700  -0.786  23.516  0.00  0.00    +0.000 C 
ATOM      2  C   UNL     1       9.087  -0.859  23.761  0.00  0.00    +0.000 C 
ATOM      3  C   UNL     1       9.414  -2.408  23.925  0.00  0.00    +0.000 C 
ATOM      4  C   UNL     1       8.180  -3.092  23.966  0.00  0.00    +0.000 C 
ATOM      5  C   UNL     1       6.929  -2.224  23.558  0.00  0.00    +0.000 C 
ATOM      6  C   UNL     1       5.993  -2.040  24.708  0.00  0.00    +0.000 C 
ATOM      7  O   UNL     1      10.644  -2.611  23.229  0.00  0.00    +0.000 OA
ENDROOT
BRANCH   4   8
ATOM      8  C   UNL     1       7.826  -4.174  25.026  0.00  0.00    +0.000 C 
ATOM      9  C   UNL     1       6.537  -4.826  24.840  0.00  0.00    +0.000 C 
ATOM     10  C   UNL     1       8.981  -5.203  24.949  0.00  0.00    +0.000 C 
ATOM     11  C   UNL     1       7.942  -3.468  26.385  0.00  0.00    +0.000 C 
ENDBRANCH   4   8
BRANCH   2  12
ATOM     12  C   UNL     1       9.813  -0.188  24.864  0.00  0.00    +0.000 C 
ATOM     13  C   UNL     1      10.776   0.760  24.429  0.00  0.00    +0.000 C 
ENDBRANCH   2  12
BRANCH   1  14
ATOM     14  N   UNL     1       6.995   0.033  22.680  0.00  0.00    +0.000 NA
BRANCH  14  15
ATOM     15  C   UNL     1       7.319   0.922  21.722  0.00  0.00    +0.000 C 
ATOM     16  C   UNL     1       7.278   2.382  22.110  0.00  0.00    +0.000 C 
BRANCH  15  17
ATOM     17  C   UNL     1       8.264   0.618  20.645  0.00  0.00    +0.000 C 
BRANCH  17  20
ATOM     18  N   UNL     1       5.965  -0.166  17.780  0.00  0.00    +0.000 NA
ATOM     19  C   UNL     1       6.361   0.170  19.037  0.00  0.00    +0.000 C 
ATOM     20  C   UNL     1       7.646  -0.158  19.519  0.00  0.00    +0.000 C 
ENDBRANCH  17  20
ENDBRANCH  15  17
ENDBRANCH  14  15
ENDBRANCH   1  14
TORSDOF 6
ENDMDL
MODEL 5
REMARK VINA RESULT:      -6.2      2.804      5.971
REMARK  Name = 
REMARK  6 active torsions:
REMARK  status: ('A' for Active; 'I' for Inactive)
REMARK    1  A    between atoms: C_3  and  C_4
REMARK    2  A    between atoms: C_4  and  C_5
REMARK    3  A    between atoms: C_5  and  N_6
REMARK    4  A    between atoms: N_6  and  C_7
REMARK    5  A    between atoms: C_8  and  C_9
REMARK    6  A    between atoms: C_12  and  C_15
REMARK                            x       y       z     vdW  Elec       q    Type
REMARK                         _______ _______ _______ _____ _____    ______ ____
ROOT
ATOM      1  C   UNL     1       7.896  -3.130  23.517  0.00  0.00    +0.000 C 
ATOM      2  C   UNL     1       6.563  -3.059  23.061  0.00  0.00    +0.000 C 
ATOM      3  C   UNL     1       6.595  -2.111  21.783  0.00  0.00    +0.000 C 
ATOM      4  C   UNL     1       7.887  -1.548  21.714  0.00  0.00    +0.000 C 
ATOM      5  C   UNL     1       8.948  -2.207  22.677  0.00  0.00    +0.000 C 
ATOM      6  C   UNL     1       9.415  -1.243  23.718  0.00  0.00    +0.000 C 
ATOM      7  O   UNL     1       5.723  -2.726  20.834  0.00  0.00    +0.000 OA
ENDROOT
BRANCH   4   8
ATOM      8  C   UNL     1       8.158  -0.033  21.488  0.00  0.00    +0.000 C 
ATOM      9  C   UNL     1       9.552   0.373  21.611  0.00  0.00    +0.000 C 
ATOM     10  C   UNL     1       7.621   0.262  20.066  0.00  0.00    +0.000 C 
ATOM     11  C   UNL     1       7.239   0.699  22.478  0.00  0.00    +0.000 C 
ENDBRANCH   4   8
BRANCH   2  12
ATOM     12  C   UNL     1       5.394  -2.608  23.852  0.00  0.00    +0.000 C 
ATOM     13  C   UNL     1       5.720  -1.713  24.904  0.00  0.00    +0.000 C 
ENDBRANCH   2  12
BRANCH   1  14
ATOM     14  N   UNL     1       8.596  -4.184  24.033  0.00  0.00    +0.000 NA
BRANCH  14  15
ATOM     15  C   UNL     1       8.809  -4.670  25.269  0.00  0.00    +0.000 C 
ATOM     16  C   UNL     1      10.191  -5.210  25.558  0.00  0.00    +0.000 C 
BRANCH  15  17
ATOM     17  C   UNL     1       8.109  -4.163  26.453  0.00  0.00    +0.000 C 
BRANCH  17  20
ATOM     18  N   UNL     1       5.382  -6.741  26.622  0.00  0.00    +0.000 NA
ATOM     19  C   UNL     1       5.997  -5.556  26.363  0.00  0.00    +0.000 C 
ATOM     20  C   UNL     1       7.164  -5.163  27.053  0.00  0.00    +0.000 C 
ENDBRANCH  17  20
ENDBRANCH  15  17
ENDBRANCH  14  15
ENDBRANCH   1  14
TORSDOF 6
ENDMDL
MODEL 6
REMARK VINA RESULT:      -6.2      2.712      6.055
REMARK  Name = 
REMARK  6 active torsions:
REMARK  status: ('A' for Active; 'I' for Inactive)
REMARK    1  A    between atoms: C_3  and  C_4
REMARK    2  A    between atoms: C_4  and  C_5
REMARK    3  A    between atoms: C_5  and  N_6
REMARK    4  A    between atoms: N_6  and  C_7
REMARK    5  A    between atoms: C_8  and  C_9
REMARK    6  A    between atoms: C_12  and  C_15
REMARK                            x       y       z     vdW  Elec       q    Type
REMARK                         _______ _______ _______ _____ _____    ______ ____
ROOT
ATOM      1  C   UNL     1       8.860  -2.046  23.743  0.00  0.00    +0.000 C 
ATOM      2  C   UNL     1       8.194  -1.218  24.669  0.00  0.00    +0.000 C 
ATOM      3  C   UNL     1       7.309  -0.221  23.799  0.00  0.00    +0.000 C 
ATOM      4  C   UNL     1       7.680  -0.407  22.450  0.00  0.00    +0.000 C 
ATOM      5  C   UNL     1       8.578  -1.674  22.178  0.00  0.00    +0.000 C 
ATOM      6  C   UNL     1       9.940  -1.287  21.701  0.00  0.00    +0.000 C 
ATOM      7  O   UNL     1       6.062  -0.123  24.486  0.00  0.00    +0.000 OA
ENDROOT
BRANCH   4   8
ATOM      8  C   UNL     1       7.998   0.761  21.472  0.00  0.00    +0.000 C 
ATOM      9  C   UNL     1       9.273   1.429  21.696  0.00  0.00    +0.000 C 
ATOM     10  C   UNL     1       7.948   0.126  20.060  0.00  0.00    +0.000 C 
ATOM     11  C   UNL     1       6.801   1.718  21.576  0.00  0.00    +0.000 C 
ENDBRANCH   4   8
BRANCH   2  12
ATOM     12  C   UNL     1       8.837  -0.370  25.700  0.00  0.00    +0.000 C 
ATOM     13  C   UNL     1      10.032   0.260  25.266  0.00  0.00    +0.000 C 
ENDBRANCH   2  12
BRANCH   1  14
ATOM     14  N   UNL     1       9.149  -3.380  23.801  0.00  0.00    +0.000 NA
BRANCH  14  15
ATOM     15  C   UNL     1       8.505  -4.474  24.248  0.00  0.00    +0.000 C 
ATOM     16  C   UNL     1       7.619  -5.192  23.256  0.00  0.00    +0.000 C 
BRANCH  15  17
ATOM     17  C   UNL     1       9.047  -5.340  25.299  0.00  0.00    +0.000 C 
BRANCH  17  20
ATOM     18  N   UNL     1       6.635  -5.167  28.174  0.00  0.00    +0.000 NA
ATOM     19  C   UNL     1       7.131  -5.000  26.918  0.00  0.00    +0.000 C 
ATOM     20  C   UNL     1       8.519  -5.010  26.665  0.00  0.00    +0.000 C 
ENDBRANCH  17  20
ENDBRANCH  15  17
ENDBRANCH  14  15
ENDBRANCH   1  14
TORSDOF 6
ENDMDL
MODEL 7
REMARK VINA RESULT:      -6.1      1.276      1.545
REMARK  Name = 
REMARK  6 active torsions:
REMARK  status: ('A' for Active; 'I' for Inactive)
REMARK    1  A    between atoms: C_3  and  C_4
REMARK    2  A    between atoms: C_4  and  C_5
REMARK    3  A    between atoms: C_5  and  N_6
REMARK    4  A    between atoms: N_6  and  C_7
REMARK    5  A    between atoms: C_8  and  C_9
REMARK    6  A    between atoms: C_12  and  C_15
REMARK                            x       y       z     vdW  Elec       q    Type
REMARK                         _______ _______ _______ _____ _____    ______ ____
ROOT
ATOM      1  C   UNL     1       8.792  -2.468  23.782  0.00  0.00    +0.000 C 
ATOM      2  C   UNL     1       9.046  -3.410  24.800  0.00  0.00    +0.000 C 
ATOM      3  C   UNL     1       8.347  -4.759  24.323  0.00  0.00    +0.000 C 
ATOM      4  C   UNL     1       7.579  -4.448  23.181  0.00  0.00    +0.000 C 
ATOM      5  C   UNL     1       7.854  -3.023  22.566  0.00  0.00    +0.000 C 
ATOM      6  C   UNL     1       6.654  -2.140  22.671  0.00  0.00    +0.000 C 
ATOM      7  O   UNL     1       9.268  -5.799  24.653  0.00  0.00    +0.000 OA
ENDROOT
BRANCH   4   8
ATOM      8  C   UNL     1       6.103  -4.900  22.983  0.00  0.00    +0.000 C 
ATOM      9  C   UNL     1       5.155  -3.825  22.725  0.00  0.00    +0.000 C 
ATOM     10  C   UNL     1       6.145  -5.895  21.797  0.00  0.00    +0.000 C 
ATOM     11  C   UNL     1       5.752  -5.711  24.239  0.00  0.00    +0.000 C 
ENDBRANCH   4   8
BRANCH   2  12
ATOM     12  C   UNL     1       8.684  -3.268  26.229  0.00  0.00    +0.000 C 
ATOM     13  C   UNL     1       7.430  -2.639  26.447  0.00  0.00    +0.000 C 
ENDBRANCH   2  12
BRANCH   1  14
ATOM     14  N   UNL     1       9.593  -1.488  23.267  0.00  0.00    +0.000 NA
BRANCH  14  15
ATOM     15  C   UNL     1       9.631  -0.146  23.358  0.00  0.00    +0.000 C 
ATOM     16  C   UNL     1      10.359   0.433  24.549  0.00  0.00    +0.000 C 
BRANCH  15  17
ATOM     17  C   UNL     1       9.620   0.730  22.183  0.00  0.00    +0.000 C 
BRANCH  17  20
ATOM     18  N   UNL     1       7.557   0.251  19.081  0.00  0.00    +0.000 NA
ATOM     19  C   UNL     1       7.852   0.480  20.389  0.00  0.00    +0.000 C 
ATOM     20  C   UNL     1       9.076   0.062  20.954  0.00  0.00    +0.000 C 
ENDBRANCH  17  20
ENDBRANCH  15  17
ENDBRANCH  14  15
ENDBRANCH   1  14
TORSDOF 6
ENDMDL
MODEL 8
REMARK VINA RESULT:      -6.0      1.528      2.399
REMARK  Name = 
REMARK  6 active torsions:
REMARK  status: ('A' for Active; 'I' for Inactive)
REMARK    1  A    between atoms: C_3  and  C_4
REMARK    2  A    between atoms: C_4  and  C_5
REMARK    3  A    between atoms: C_5  and  N_6
REMARK    4  A    between atoms: N_6  and  C_7
REMARK    5  A    between atoms: C_8  and  C_9
REMARK    6  A    between atoms: C_12  and  C_15
REMARK                            x       y       z     vdW  Elec       q    Type
REMARK                         _______ _______ _______ _____ _____    ______ ____
ROOT
ATOM      1  C   UNL     1       8.555  -1.814  22.540  0.00  0.00    +0.000 C 
ATOM      2  C   UNL     1       9.339  -2.051  23.687  0.00  0.00    +0.000 C 
ATOM      3  C   UNL     1       8.863  -3.461  24.251  0.00  0.00    +0.000 C 
ATOM      4  C   UNL     1       7.716  -3.836  23.520  0.00  0.00    +0.000 C 
ATOM      5  C   UNL     1       7.433  -2.962  22.239  0.00  0.00    +0.000 C 
ATOM      6  C   UNL     1       6.159  -2.193  22.371  0.00  0.00    +0.000 C 
ATOM      7  O   UNL     1      10.059  -4.135  24.646  0.00  0.00    +0.000 OA
ENDROOT
BRANCH   4   8
ATOM      8  C   UNL     1       6.406  -4.362  24.175  0.00  0.00    +0.000 C 
ATOM      9  C   UNL     1       5.432  -4.923  23.249  0.00  0.00    +0.000 C 
ATOM     10  C   UNL     1       6.870  -5.425  25.200  0.00  0.00    +0.000 C 
ATOM     11  C   UNL     1       5.847  -3.177  24.977  0.00  0.00    +0.000 C 
ENDBRANCH   4   8
BRANCH   2  12
ATOM     12  C   UNL     1       9.437  -1.169  24.874  0.00  0.00    +0.000 C 
ATOM     13  C   UNL     1      10.289  -0.049  24.691  0.00  0.00    +0.000 C 
ENDBRANCH   2  12
BRANCH   1  14
ATOM     14  N   UNL     1       8.891  -1.246  21.343  0.00  0.00    +0.000 NA
BRANCH  14  15
ATOM     15  C   UNL     1       8.733  -0.030  20.790  0.00  0.00    +0.000 C 
ATOM     16  C   UNL     1       7.746   0.074  19.650  0.00  0.00    +0.000 C 
BRANCH  15  17
ATOM     17  C   UNL     1       8.901   1.214  21.546  0.00  0.00    +0.000 C 
BRANCH  17  20
ATOM     18  N   UNL     1       6.017   2.250  23.719  0.00  0.00    +0.000 NA
ATOM     19  C   UNL     1       6.908   1.436  23.091  0.00  0.00    +0.000 C 
ATOM     20  C   UNL     1       7.598   1.851  21.932  0.00  0.00    +0.000 C 
ENDBRANCH  17  20
ENDBRANCH  15  17
ENDBRANCH  14  15
ENDBRANCH   1  14
TORSDOF 6
ENDMDL
MODEL 9
REMARK VINA RESULT:      -6.0      2.652      6.113
REMARK  Name = 
REMARK  6 active torsions:
REMARK  status: ('A' for Active; 'I' for Inactive)
REMARK    1  A    between atoms: C_3  and  C_4
REMARK    2  A    between atoms: C_4  and  C_5
REMARK    3  A    between atoms: C_5  and  N_6
REMARK    4  A    between atoms: N_6  and  C_7
REMARK    5  A    between atoms: C_8  and  C_9
REMARK    6  A    between atoms: C_12  and  C_15
REMARK                            x       y       z     vdW  Elec       q    Type
REMARK                         _______ _______ _______ _____ _____    ______ ____
ROOT
ATOM      1  C   UNL     1       7.741  -1.960  23.384  0.00  0.00    +0.000 C 
ATOM      2  C   UNL     1       7.051  -1.300  24.422  0.00  0.00    +0.000 C 
ATOM      3  C   UNL     1       7.374   0.248  24.239  0.00  0.00    +0.000 C 
ATOM      4  C   UNL     1       8.375   0.349  23.249  0.00  0.00    +0.000 C 
ATOM      5  C   UNL     1       8.650  -0.980  22.446  0.00  0.00    +0.000 C 
ATOM      6  C   UNL     1      10.028  -1.498  22.700  0.00  0.00    +0.000 C 
ATOM      7  O   UNL     1       6.141   0.924  24.482  0.00  0.00    +0.000 OA
ENDROOT
BRANCH   4   8
ATOM      8  C   UNL     1       9.656   1.220  23.400  0.00  0.00    +0.000 C 
ATOM      9  C   UNL     1      10.764   0.579  24.096  0.00  0.00    +0.000 C 
ATOM     10  C   UNL     1      10.056   1.597  21.953  0.00  0.00    +0.000 C 
ATOM     11  C   UNL     1       9.191   2.512  24.090  0.00  0.00    +0.000 C 
ENDBRANCH   4   8
BRANCH   2  12
ATOM     12  C   UNL     1       7.203  -1.561  25.873  0.00  0.00    +0.000 C 
ATOM     13  C   UNL     1       8.545  -1.765  26.285  0.00  0.00    +0.000 C 
ENDBRANCH   2  12
BRANCH   1  14
ATOM     14  N   UNL     1       7.370  -3.030  22.620  0.00  0.00    +0.000 NA
BRANCH  14  15
ATOM     15  C   UNL     1       7.274  -4.357  22.825  0.00  0.00    +0.000 C 
ATOM     16  C   UNL     1       6.989  -5.212  21.611  0.00  0.00    +0.000 C 
BRANCH  15  17
ATOM     17  C   UNL     1       8.010  -5.052  23.883  0.00  0.00    +0.000 C 
BRANCH  17  20
ATOM     18  N   UNL     1       7.337  -5.055  27.579  0.00  0.00    +0.000 NA
ATOM     19  C   UNL     1       7.900  -5.397  26.389  0.00  0.00    +0.000 C 
ATOM     20  C   UNL     1       7.237  -5.166  25.165  0.00  0.00    +0.000 C 
ENDBRANCH  17  20
ENDBRANCH  15  17
ENDBRANCH  14  15
ENDBRANCH   1  14
TORSDOF 6
ENDMDL
