MODEL 1
REMARK VINA RESULT:      -6.7      0.000      0.000
REMARK  Name = 
REMARK  2 active torsions:
REMARK  status: ('A' for Active; 'I' for Inactive)
REMARK    1  A    between atoms: N_7  and  C_10
REMARK    2  A    between atoms: C_10  and  N_11
REMARK                            x       y       z     vdW  Elec       q    Type
REMARK                         _______ _______ _______ _____ _____    ______ ____
ROOT
ATOM      1  C   UNL     1       7.414  -1.422  22.514  0.00  0.00    +0.000 C 
ENDROOT
BRANCH   1   8
ATOM      2  C   UNL     1       5.791   0.368  17.915  0.00  0.00    +0.000 C 
ATOM      3  C   UNL     1       5.630   1.033  19.266  0.00  0.00    +0.000 C 
ATOM      4  O   UNL     1       4.647   1.683  19.545  0.00  0.00    +0.000 OA
ATOM      5  N   UNL     1       6.684   0.949  20.095  0.00  0.00    +0.000 N 
ATOM      6  C   UNL     1       6.753   1.777  21.283  0.00  0.00    +0.000 C 
ATOM      7  C   UNL     1       7.120   0.928  22.483  0.00  0.00    +0.000 C 
ATOM      8  N   UNL     1       7.873  -0.178  22.199  0.00  0.00    +0.000 NA
ATOM      9  C   UNL     1       8.651  -0.106  21.031  0.00  0.00    +0.000 C 
ATOM     10  C   UNL     1       7.772   0.036  19.793  0.00  0.00    +0.000 C 
ENDBRANCH   1   8
BRANCH   1  11
ATOM     11  N   UNL     1       8.211  -2.545  22.535  0.00  0.00    +0.000 NA
ATOM     12  C   UNL     1       9.298  -2.440  23.441  0.00  0.00    +0.000 C 
ATOM     13  C   UNL     1       8.765  -2.525  24.874  0.00  0.00    +0.000 C 
ATOM     14  N   UNL     1       8.074  -3.808  25.004  0.00  0.00    +0.000 N 
ATOM     15  C   UNL     1       7.209  -4.277  23.958  0.00  0.00    +0.000 C 
ATOM     16  C   UNL     1       7.569  -3.772  22.599  0.00  0.00    +0.000 C 
ATOM     17  C   UNL     1       8.587  -4.695  25.899  0.00  0.00    +0.000 C 
ATOM     18  O   UNL     1       9.756  -5.005  25.843  0.00  0.00    +0.000 OA
ATOM     19  N   UNL     1       7.632  -5.585  26.219  0.00  0.00    +0.000 NA
ENDBRANCH   1  11
TORSDOF 2
ENDMDL
MODEL 2
REMARK VINA RESULT:      -6.6      2.602      5.993
REMARK  Name = 
REMARK  2 active torsions:
REMARK  status: ('A' for Active; 'I' for Inactive)
REMARK    1  A    between atoms: N_7  and  C_10
REMARK    2  A    between atoms: C_10  and  N_11
REMARK                            x       y       z     vdW  Elec       q    Type
REMARK                         _______ _______ _______ _____ _____    ______ ____
ROOT
ATOM      1  C   UNL     1       8.253  -1.857  22.153  0.00  0.00    +0.000 C 
ENDROOT
BRANCH   1   8
ATOM      2  C   UNL     1      10.484   2.620  23.559  0.00  0.00    +0.000 C 
ATOM      3  C   UNL     1       9.516   1.783  24.370  0.00  0.00    +0.000 C 
ATOM      4  O   UNL     1       8.700   2.288  25.109  0.00  0.00    +0.000 OA
ATOM      5  N   UNL     1       9.686   0.453  24.303  0.00  0.00    +0.000 N 
ATOM      6  C   UNL     1       9.015  -0.422  25.244  0.00  0.00    +0.000 C 
ATOM      7  C   UNL     1       8.346  -1.561  24.502  0.00  0.00    +0.000 C 
ATOM      8  N   UNL     1       8.948  -1.915  23.324  0.00  0.00    +0.000 NA
ATOM      9  C   UNL     1      10.317  -1.619  23.223  0.00  0.00    +0.000 C 
ATOM     10  C   UNL     1      10.562  -0.116  23.293  0.00  0.00    +0.000 C 
ENDBRANCH   1   8
BRANCH   1  11
ATOM     11  N   UNL     1       7.046  -1.211  22.014  0.00  0.00    +0.000 NA
ATOM     12  C   UNL     1       7.182   0.180  21.767  0.00  0.00    +0.000 C 
ATOM     13  C   UNL     1       7.703   0.385  20.341  0.00  0.00    +0.000 C 
ATOM     14  N   UNL     1       6.737  -0.234  19.433  0.00  0.00    +0.000 N 
ATOM     15  C   UNL     1       6.168  -1.516  19.742  0.00  0.00    +0.000 C 
ATOM     16  C   UNL     1       6.097  -1.815  21.203  0.00  0.00    +0.000 C 
ATOM     17  C   UNL     1       6.099   0.590  18.559  0.00  0.00    +0.000 C 
ATOM     18  O   UNL     1       5.521   1.573  18.964  0.00  0.00    +0.000 OA
ATOM     19  N   UNL     1       5.617  -0.149  17.545  0.00  0.00    +0.000 NA
ENDBRANCH   1  11
TORSDOF 2
ENDMDL
MODEL 3
REMARK VINA RESULT:      -6.5      1.977      2.764
REMARK  Name = 
REMARK  2 active torsions:
REMARK  status: ('A' for Active; 'I' for Inactive)
REMARK    1  A    between atoms: N_7  and  C_10
REMARK    2  A    between atoms: C_10  and  N_11
REMARK                            x       y       z     vdW  Elec       q    Type
REMARK                         _______ _______ _______ _____ _____    ______ ____
ROOT
ATOM      1  C   UNL     1       8.718  -2.640  24.143  0.00  0.00    +0.000 C 
ENDROOT
BRANCH   1   8
ATOM      2  C   UNL     1       7.732   0.163  19.881  0.00  0.00    +0.000 C 
ATOM      3  C   UNL     1       7.793   0.660  21.311  0.00  0.00    +0.000 C 
ATOM      4  O   UNL     1       7.066   1.541  21.712  0.00  0.00    +0.000 OA
ATOM      5  N   UNL     1       8.768   0.141  22.075  0.00  0.00    +0.000 N 
ATOM      6  C   UNL     1       9.098   0.740  23.353  0.00  0.00    +0.000 C 
ATOM      7  C   UNL     1       9.180  -0.333  24.420  0.00  0.00    +0.000 C 
ATOM      8  N   UNL     1       9.545  -1.572  23.966  0.00  0.00    +0.000 NA
ATOM      9  C   UNL     1      10.303  -1.591  22.784  0.00  0.00    +0.000 C 
ATOM     10  C   UNL     1       9.512  -1.019  21.613  0.00  0.00    +0.000 C 
ENDBRANCH   1   8
BRANCH   1  11
ATOM     11  N   UNL     1       9.083  -3.782  24.820  0.00  0.00    +0.000 NA
ATOM     12  C   UNL     1       9.021  -3.637  26.230  0.00  0.00    +0.000 C 
ATOM     13  C   UNL     1       7.553  -3.586  26.664  0.00  0.00    +0.000 C 
ATOM     14  N   UNL     1       6.926  -4.832  26.220  0.00  0.00    +0.000 N 
ATOM     15  C   UNL     1       7.203  -5.358  24.913  0.00  0.00    +0.000 C 
ATOM     16  C   UNL     1       8.543  -4.978  24.374  0.00  0.00    +0.000 C 
ATOM     17  C   UNL     1       6.445  -5.658  27.187  0.00  0.00    +0.000 C 
ATOM     18  O   UNL     1       7.163  -6.008  28.097  0.00  0.00    +0.000 OA
ATOM     19  N   UNL     1       5.543  -6.488  26.636  0.00  0.00    +0.000 NA
ENDBRANCH   1  11
TORSDOF 2
ENDMDL
MODEL 4
REMARK VINA RESULT:      -6.4      1.712      6.496
REMARK  Name = 
REMARK  2 active torsions:
REMARK  status: ('A' for Active; 'I' for Inactive)
REMARK    1  A    between atoms: N_7  and  C_10
REMARK    2  A    between atoms: C_10  and  N_11
REMARK                            x       y       z     vdW  Elec       q    Type
REMARK                         _______ _______ _______ _____ _____    ______ ____
ROOT
ATOM      1  C   UNL     1       7.758  -0.586  22.965  0.00  0.00    +0.000 C 
ENDROOT
BRANCH   1   8
ATOM      2  C   UNL     1       6.073  -5.420  23.854  0.00  0.00    +0.000 C 
ATOM      3  C   UNL     1       7.504  -4.927  23.892  0.00  0.00    +0.000 C 
ATOM      4  O   UNL     1       8.428  -5.621  23.531  0.00  0.00    +0.000 OA
ATOM      5  N   UNL     1       7.698  -3.719  24.446  0.00  0.00    +0.000 N 
ATOM      6  C   UNL     1       9.034  -3.275  24.791  0.00  0.00    +0.000 C 
ATOM      7  C   UNL     1       9.261  -1.870  24.271  0.00  0.00    +0.000 C 
ATOM      8  N   UNL     1       8.132  -1.102  24.169  0.00  0.00    +0.000 NA
ATOM      9  C   UNL     1       7.075  -1.453  25.025  0.00  0.00    +0.000 C 
ATOM     10  C   UNL     1       6.562  -2.856  24.719  0.00  0.00    +0.000 C 
ENDBRANCH   1   8
BRANCH   1  11
ATOM     11  N   UNL     1       8.125  -1.131  21.755  0.00  0.00    +0.000 NA
ATOM     12  C   UNL     1       7.116  -1.948  21.182  0.00  0.00    +0.000 C 
ATOM     13  C   UNL     1       5.976  -1.056  20.681  0.00  0.00    +0.000 C 
ATOM     14  N   UNL     1       6.547  -0.132  19.701  0.00  0.00    +0.000 N 
ATOM     15  C   UNL     1       7.810   0.503  19.950  0.00  0.00    +0.000 C 
ATOM     16  C   UNL     1       8.721  -0.281  20.837  0.00  0.00    +0.000 C 
ATOM     17  C   UNL     1       6.084  -0.225  18.425  0.00  0.00    +0.000 C 
ATOM     18  O   UNL     1       6.095  -1.292  17.853  0.00  0.00    +0.000 OA
ATOM     19  N   UNL     1       6.350   0.926  17.785  0.00  0.00    +0.000 NA
ENDBRANCH   1  11
TORSDOF 2
ENDMDL
MODEL 5
REMARK VINA RESULT:      -6.4      2.428      3.155
REMARK  Name = 
REMARK  2 active torsions:
REMARK  status: ('A' for Active; 'I' for Inactive)
REMARK    1  A    between atoms: N_7  and  C_10
REMARK    2  A    between atoms: C_10  and  N_11
REMARK                            x       y       z     vdW  Elec       q    Type
REMARK                         _______ _______ _______ _____ _____    ______ ____
ROOT
ATOM      1  C   UNL     1       7.999  -2.221  23.884  0.00  0.00    +0.000 C 
ENDROOT
BRANCH   1   8
ATOM      2  C   UNL     1       7.981   2.844  22.728  0.00  0.00    +0.000 C 
ATOM      3  C   UNL     1       9.024   1.818  22.336  0.00  0.00    +0.000 C 
ATOM      4  O   UNL     1      10.200   2.098  22.266  0.00  0.00    +0.000 OA
ATOM      5  N   UNL     1       8.558   0.614  21.969  0.00  0.00    +0.000 N 
ATOM      6  C   UNL     1       9.427  -0.342  21.311  0.00  0.00    +0.000 C 
ATOM      7  C   UNL     1       9.298  -1.698  21.973  0.00  0.00    +0.000 C 
ATOM      8  N   UNL     1       8.083  -1.945  22.552  0.00  0.00    +0.000 NA
ATOM      9  C   UNL     1       6.995  -1.235  22.019  0.00  0.00    +0.000 C 
ATOM     10  C   UNL     1       7.169   0.267  22.217  0.00  0.00    +0.000 C 
ENDBRANCH   1   8
BRANCH   1  11
ATOM     11  N   UNL     1       8.581  -3.321  24.472  0.00  0.00    +0.000 NA
ATOM     12  C   UNL     1       8.672  -3.215  25.884  0.00  0.00    +0.000 C 
ATOM     13  C   UNL     1       7.271  -3.361  26.488  0.00  0.00    +0.000 C 
ATOM     14  N   UNL     1       6.756  -4.667  26.074  0.00  0.00    +0.000 N 
ATOM     15  C   UNL     1       6.936  -5.126  24.726  0.00  0.00    +0.000 C 
ATOM     16  C   UNL     1       8.145  -4.567  24.049  0.00  0.00    +0.000 C 
ATOM     17  C   UNL     1       6.501  -5.569  27.061  0.00  0.00    +0.000 C 
ATOM     18  O   UNL     1       7.361  -5.843  27.867  0.00  0.00    +0.000 OA
ATOM     19  N   UNL     1       5.649  -6.495  26.588  0.00  0.00    +0.000 NA
ENDBRANCH   1  11
TORSDOF 2
ENDMDL
MODEL 6
REMARK VINA RESULT:      -6.2      1.863      6.471
REMARK  Name = 
REMARK  2 active torsions:
REMARK  status: ('A' for Active; 'I' for Inactive)
REMARK    1  A    between atoms: N_7  and  C_10
REMARK    2  A    between atoms: C_10  and  N_11
REMARK                            x       y       z     vdW  Elec       q    Type
REMARK                         _______ _______ _______ _____ _____    ______ ____
ROOT
ATOM      1  C   UNL     1       6.700   0.367  23.559  0.00  0.00    +0.000 C 
ENDROOT
BRANCH   1   8
ATOM      2  C   UNL     1       8.098  -4.627  23.874  0.00  0.00    +0.000 C 
ATOM      3  C   UNL     1       8.919  -3.418  24.272  0.00  0.00    +0.000 C 
ATOM      4  O   UNL     1      10.121  -3.387  24.127  0.00  0.00    +0.000 OA
ATOM      5  N   UNL     1       8.253  -2.430  24.891  0.00  0.00    +0.000 N 
ATOM      6  C   UNL     1       8.973  -1.367  25.563  0.00  0.00    +0.000 C 
ATOM      7  C   UNL     1       8.408  -0.022  25.154  0.00  0.00    +0.000 C 
ATOM      8  N   UNL     1       7.085  -0.034  24.803  0.00  0.00    +0.000 NA
ATOM      9  C   UNL     1       6.312  -1.063  25.365  0.00  0.00    +0.000 C 
ATOM     10  C   UNL     1       6.800  -2.432  24.905  0.00  0.00    +0.000 C 
ENDBRANCH   1   8
BRANCH   1  11
ATOM     11  N   UNL     1       7.582   0.760  22.578  0.00  0.00    +0.000 NA
ATOM     12  C   UNL     1       8.041  -0.318  21.776  0.00  0.00    +0.000 C 
ATOM     13  C   UNL     1       6.900  -0.786  20.868  0.00  0.00    +0.000 C 
ATOM     14  N   UNL     1       6.496   0.361  20.054  0.00  0.00    +0.000 N 
ATOM     15  C   UNL     1       6.366   1.663  20.646  0.00  0.00    +0.000 C 
ATOM     16  C   UNL     1       7.242   1.880  21.836  0.00  0.00    +0.000 C 
ATOM     17  C   UNL     1       6.663   0.250  18.708  0.00  0.00    +0.000 C 
ATOM     18  O   UNL     1       7.743  -0.056  18.255  0.00  0.00    +0.000 OA
ATOM     19  N   UNL     1       5.866   1.145  18.100  0.00  0.00    +0.000 NA
ENDBRANCH   1  11
TORSDOF 2
ENDMDL
MODEL 7
REMARK VINA RESULT:      -6.0      2.131      2.535
REMARK  Name = 
REMARK  2 active torsions:
REMARK  status: ('A' for Active; 'I' for Inactive)
REMARK    1  A    between atoms: N_7  and  C_10
REMARK    2  A    between atoms: C_10  and  N_11
REMARK                            x       y       z     vdW  Elec       q    Type
REMARK                         _______ _______ _______ _____ _____    ______ ____
ROOT
ATOM      1  C   UNL     1       8.645  -1.506  23.016  0.00  0.00    +0.000 C 
ENDROOT
BRANCH   1   8
ATOM      2  C   UNL     1       6.440   3.065  21.905  0.00  0.00    +0.000 C 
ATOM      3  C   UNL     1       7.842   2.826  22.428  0.00  0.00    +0.000 C 
ATOM      4  O   UNL     1       8.376   3.594  23.197  0.00  0.00    +0.000 OA
ATOM      5  N   UNL     1       8.494   1.774  21.907  0.00  0.00    +0.000 N 
ATOM      6  C   UNL     1       9.920   1.617  22.115  0.00  0.00    +0.000 C 
ATOM      7  C   UNL     1      10.224   0.203  22.566  0.00  0.00    +0.000 C 
ATOM      8  N   UNL     1       9.341  -0.746  22.124  0.00  0.00    +0.000 NA
ATOM      9  C   UNL     1       8.655  -0.438  20.938  0.00  0.00    +0.000 C 
ATOM     10  C   UNL     1       7.773   0.793  21.116  0.00  0.00    +0.000 C 
ENDBRANCH   1   8
BRANCH   1  11
ATOM     11  N   UNL     1       8.777  -2.873  23.118  0.00  0.00    +0.000 NA
ATOM     12  C   UNL     1       9.445  -3.282  24.301  0.00  0.00    +0.000 C 
ATOM     13  C   UNL     1       8.517  -3.063  25.500  0.00  0.00    +0.000 C 
ATOM     14  N   UNL     1       7.307  -3.852  25.260  0.00  0.00    +0.000 N 
ATOM     15  C   UNL     1       6.699  -3.873  23.960  0.00  0.00    +0.000 C 
ATOM     16  C   UNL     1       7.656  -3.637  22.837  0.00  0.00    +0.000 C 
ATOM     17  C   UNL     1       7.041  -4.854  26.141  0.00  0.00    +0.000 C 
ATOM     18  O   UNL     1       7.883  -5.689  26.381  0.00  0.00    +0.000 OA
ATOM     19  N   UNL     1       5.736  -5.165  26.058  0.00  0.00    +0.000 NA
ENDBRANCH   1  11
TORSDOF 2
ENDMDL
MODEL 8
REMARK VINA RESULT:      -6.0      2.676      3.938
REMARK  Name = 
REMARK  2 active torsions:
REMARK  status: ('A' for Active; 'I' for Inactive)
REMARK    1  A    between atoms: N_7  and  C_10
REMARK    2  A    between atoms: C_10  and  N_11
REMARK                            x       y       z     vdW  Elec       q    Type
REMARK                         _______ _______ _______ _____ _____    ______ ____
ROOT
ATOM      1  C   UNL     1       7.528  -2.794  24.602  0.00  0.00    +0.000 C 
ENDROOT
BRANCH   1   8
ATOM      2  C   UNL     1       8.225   1.280  21.455  0.00  0.00    +0.000 C 
ATOM      3  C   UNL     1       9.285   0.540  22.244  0.00  0.00    +0.000 C 
ATOM      4  O   UNL     1      10.239   1.110  22.724  0.00  0.00    +0.000 OA
ATOM      5  N   UNL     1       9.161  -0.797  22.288  0.00  0.00    +0.000 N 
ATOM      6  C   UNL     1      10.254  -1.621  22.763  0.00  0.00    +0.000 C 
ATOM      7  C   UNL     1       9.741  -2.627  23.774  0.00  0.00    +0.000 C 
ATOM      8  N   UNL     1       8.435  -2.998  23.606  0.00  0.00    +0.000 NA
ATOM      9  C   UNL     1       7.927  -2.879  22.302  0.00  0.00    +0.000 C 
ATOM     10  C   UNL     1       7.930  -1.426  21.841  0.00  0.00    +0.000 C 
ENDBRANCH   1   8
BRANCH   1  11
ATOM     11  N   UNL     1       6.454  -3.623  24.838  0.00  0.00    +0.000 NA
ATOM     12  C   UNL     1       6.811  -4.995  24.890  0.00  0.00    +0.000 C 
ATOM     13  C   UNL     1       7.581  -5.263  26.187  0.00  0.00    +0.000 C 
ATOM     14  N   UNL     1       6.703  -4.889  27.297  0.00  0.00    +0.000 N 
ATOM     15  C   UNL     1       5.928  -3.681  27.235  0.00  0.00    +0.000 C 
ATOM     16  C   UNL     1       5.581  -3.251  25.848  0.00  0.00    +0.000 C 
ATOM     17  C   UNL     1       6.330  -5.881  28.149  0.00  0.00    +0.000 C 
ATOM     18  O   UNL     1       5.828  -6.894  27.716  0.00  0.00    +0.000 OA
ATOM     19  N   UNL     1       5.929  -5.328  29.305  0.00  0.00    +0.000 NA
ENDBRANCH   1  11
TORSDOF 2
ENDMDL
MODEL 9
REMARK VINA RESULT:      -6.0      3.197      6.075
REMARK  Name = 
REMARK  2 active torsions:
REMARK  status: ('A' for Active; 'I' for Inactive)
REMARK    1  A    between atoms: N_7  and  C_10
REMARK    2  A    between atoms: C_10  and  N_11
REMARK                            x       y       z     vdW  Elec       q    Type
REMARK                         _______ _______ _______ _____ _____    ______ ____
ROOT
ATOM      1  C   UNL     1       8.003  -3.014  23.077  0.00  0.00    +0.000 C 
ENDROOT
BRANCH   1   8
ATOM      2  C   UNL     1       3.554  -4.588  25.251  0.00  0.00    +0.000 C 
ATOM      3  C   UNL     1       4.040  -4.876  23.846  0.00  0.00    +0.000 C 
ATOM      4  O   UNL     1       3.276  -4.951  22.909  0.00  0.00    +0.000 OA
ATOM      5  N   UNL     1       5.349  -5.149  23.718  0.00  0.00    +0.000 N 
ATOM      6  C   UNL     1       5.865  -5.712  22.486  0.00  0.00    +0.000 C 
ATOM      7  C   UNL     1       7.092  -4.942  22.041  0.00  0.00    +0.000 C 
ATOM      8  N   UNL     1       7.809  -4.363  23.054  0.00  0.00    +0.000 NA
ATOM      9  C   UNL     1       7.688  -4.971  24.314  0.00  0.00    +0.000 C 
ATOM     10  C   UNL     1       6.254  -4.896  24.826  0.00  0.00    +0.000 C 
ENDBRANCH   1   8
BRANCH   1  11
ATOM     11  N   UNL     1       9.074  -2.389  22.481  0.00  0.00    +0.000 NA
ATOM     12  C   UNL     1       8.690  -1.368  21.573  0.00  0.00    +0.000 C 
ATOM     13  C   UNL     1       8.151  -0.172  22.363  0.00  0.00    +0.000 C 
ATOM     14  N   UNL     1       9.221   0.273  23.257  0.00  0.00    +0.000 N 
ATOM     15  C   UNL     1      10.011  -0.684  23.980  0.00  0.00    +0.000 C 
ATOM     16  C   UNL     1      10.123  -2.013  23.306  0.00  0.00    +0.000 C 
ATOM     17  C   UNL     1       9.706   1.529  23.059  0.00  0.00    +0.000 C 
ATOM     18  O   UNL     1      10.093   1.862  21.961  0.00  0.00    +0.000 OA
ATOM     19  N   UNL     1      10.322   1.935  24.182  0.00  0.00    +0.000 NA
ENDBRANCH   1  11
TORSDOF 2
ENDMDL
