MODEL 1
REMARK VINA RESULT:      -6.8      0.000      0.000
REMARK  Name = 
REMARK  2 active torsions:
REMARK  status: ('A' for Active; 'I' for Inactive)
REMARK    1  A    between atoms: N_10  and  C_11
REMARK    2  A    between atoms: C_15  and  C_18
REMARK                            x       y       z     vdW  Elec       q    Type
REMARK                         _______ _______ _______ _____ _____    ______ ____
ROOT
ATOM      1  C   UNL     1       6.857  -5.055  24.623  0.00  0.00    +0.000 C 
ATOM      2  C   UNL     1       6.735  -5.378  26.019  0.00  0.00    +0.000 C 
ATOM      3  C   UNL     1       6.772  -4.327  27.176  0.00  0.00    +0.000 C 
ATOM      4  C   UNL     1       5.312  -6.092  26.149  0.00  0.00    +0.000 C 
ATOM      5  C   UNL     1       4.731  -6.132  24.873  0.00  0.00    +0.000 C 
ATOM      6  C   UNL     1       5.740  -5.762  23.708  0.00  0.00    +0.000 C 
ATOM      7  C   UNL     1       5.196  -4.737  22.809  0.00  0.00    +0.000 C 
ATOM      8  O   UNL     1       5.401  -7.001  27.226  0.00  0.00    +0.000 OA
ENDROOT
BRANCH   1  18
ATOM      9  O   UNL     1       8.259   0.301  23.184  0.00  0.00    +0.000 OA
ATOM     10  C   UNL     1       8.231  -0.891  22.478  0.00  0.00    +0.000 C 
ATOM     11  C   UNL     1       9.565  -1.541  22.443  0.00  0.00    +0.000 C 
ATOM     12  C   UNL     1       9.889  -2.305  23.709  0.00  0.00    +0.000 C 
ATOM     13  N   UNL     1       8.756  -3.149  24.069  0.00  0.00    +0.000 N 
ATOM     14  C   UNL     1       7.452  -2.528  24.210  0.00  0.00    +0.000 C 
ATOM     15  C   UNL     1       7.118  -1.764  22.940  0.00  0.00    +0.000 C 
ATOM     16  C   UNL     1       8.962  -4.414  24.460  0.00  0.00    +0.000 C 
ATOM     17  O   UNL     1      10.070  -4.815  24.749  0.00  0.00    +0.000 OA
ATOM     18  N   UNL     1       8.060  -5.232  23.871  0.00  0.00    +0.000 NA
ENDBRANCH   1  18
BRANCH   5  19
ATOM     19  C   UNL     1       3.308  -5.598  24.501  0.00  0.00    +0.000 C 
ATOM     20  C   UNL     1       2.959  -6.043  23.124  0.00  0.00    +0.000 C 
ATOM     21  C   UNL     1       3.318  -4.096  24.642  0.00  0.00    +0.000 C 
ATOM     22  C   UNL     1       2.366  -6.205  25.539  0.00  0.00    +0.000 C 
ENDBRANCH   5  19
TORSDOF 2
ENDMDL
MODEL 2
REMARK VINA RESULT:      -6.8      2.687      6.231
REMARK  Name = 
REMARK  2 active torsions:
REMARK  status: ('A' for Active; 'I' for Inactive)
REMARK    1  A    between atoms: N_10  and  C_11
REMARK    2  A    between atoms: C_15  and  C_18
REMARK                            x       y       z     vdW  Elec       q    Type
REMARK                         _______ _______ _______ _____ _____    ______ ____
ROOT
ATOM      1  C   UNL     1       8.813  -1.601  24.633  0.00  0.00    +0.000 C 
ATOM      2  C   UNL     1      10.048  -1.136  24.062  0.00  0.00    +0.000 C 
ATOM      3  C   UNL     1      10.399  -1.205  22.540  0.00  0.00    +0.000 C 
ATOM      4  C   UNL     1      10.110   0.416  24.434  0.00  0.00    +0.000 C 
ATOM      5  C   UNL     1       8.955   0.731  25.165  0.00  0.00    +0.000 C 
ATOM      6  C   UNL     1       8.142  -0.544  25.641  0.00  0.00    +0.000 C 
ATOM      7  C   UNL     1       6.718  -0.452  25.298  0.00  0.00    +0.000 C 
ATOM      8  O   UNL     1      11.475   0.762  24.541  0.00  0.00    +0.000 OA
ENDROOT
BRANCH   1  18
ATOM      9  O   UNL     1       5.527  -4.669  21.095  0.00  0.00    +0.000 OA
ATOM     10  C   UNL     1       5.515  -4.476  22.467  0.00  0.00    +0.000 C 
ATOM     11  C   UNL     1       6.234  -5.561  23.182  0.00  0.00    +0.000 C 
ATOM     12  C   UNL     1       7.738  -5.384  23.175  0.00  0.00    +0.000 C 
ATOM     13  N   UNL     1       8.066  -4.016  23.557  0.00  0.00    +0.000 N 
ATOM     14  C   UNL     1       7.457  -2.928  22.813  0.00  0.00    +0.000 C 
ATOM     15  C   UNL     1       5.948  -3.097  22.821  0.00  0.00    +0.000 C 
ATOM     16  C   UNL     1       9.059  -3.784  24.426  0.00  0.00    +0.000 C 
ATOM     17  O   UNL     1       9.849  -4.653  24.732  0.00  0.00    +0.000 OA
ATOM     18  N   UNL     1       8.678  -2.846  25.323  0.00  0.00    +0.000 NA
ENDBRANCH   1  18
BRANCH   5  19
ATOM     19  C   UNL     1       7.948   1.880  24.830  0.00  0.00    +0.000 C 
ATOM     20  C   UNL     1       7.028   2.082  25.982  0.00  0.00    +0.000 C 
ATOM     21  C   UNL     1       7.219   1.510  23.562  0.00  0.00    +0.000 C 
ATOM     22  C   UNL     1       8.812   3.115  24.584  0.00  0.00    +0.000 C 
ENDBRANCH   5  19
TORSDOF 2
ENDMDL
MODEL 3
REMARK VINA RESULT:      -6.7      1.880      2.759
REMARK  Name = 
REMARK  2 active torsions:
REMARK  status: ('A' for Active; 'I' for Inactive)
REMARK    1  A    between atoms: N_10  and  C_11
REMARK    2  A    between atoms: C_15  and  C_18
REMARK                            x       y       z     vdW  Elec       q    Type
REMARK                         _______ _______ _______ _____ _____    ______ ____
ROOT
ATOM      1  C   UNL     1       8.197  -3.309  23.721  0.00  0.00    +0.000 C 
ATOM      2  C   UNL     1       8.431  -3.121  25.128  0.00  0.00    +0.000 C 
ATOM      3  C   UNL     1       8.039  -1.835  25.925  0.00  0.00    +0.000 C 
ATOM      4  C   UNL     1       7.633  -4.310  25.835  0.00  0.00    +0.000 C 
ATOM      5  C   UNL     1       7.017  -5.073  24.833  0.00  0.00    +0.000 C 
ATOM      6  C   UNL     1       7.529  -4.729  23.373  0.00  0.00    +0.000 C 
ATOM      7  C   UNL     1       6.422  -4.477  22.443  0.00  0.00    +0.000 C 
ATOM      8  O   UNL     1       8.317  -4.615  27.032  0.00  0.00    +0.000 OA
ENDROOT
BRANCH   1  18
ATOM      9  O   UNL     1       6.295   1.080  20.583  0.00  0.00    +0.000 OA
ATOM     10  C   UNL     1       6.842  -0.151  20.254  0.00  0.00    +0.000 C 
ATOM     11  C   UNL     1       8.301  -0.055  20.001  0.00  0.00    +0.000 C 
ATOM     12  C   UNL     1       9.125  -0.034  21.272  0.00  0.00    +0.000 C 
ATOM     13  N   UNL     1       8.681  -1.104  22.156  0.00  0.00    +0.000 N 
ATOM     14  C   UNL     1       7.274  -1.170  22.504  0.00  0.00    +0.000 C 
ATOM     15  C   UNL     1       6.441  -1.197  21.234  0.00  0.00    +0.000 C 
ATOM     16  C   UNL     1       9.582  -1.869  22.787  0.00  0.00    +0.000 C 
ATOM     17  O   UNL     1      10.755  -1.558  22.832  0.00  0.00    +0.000 OA
ATOM     18  N   UNL     1       9.211  -3.168  22.724  0.00  0.00    +0.000 NA
ENDBRANCH   1  18
BRANCH   5  19
ATOM     19  C   UNL     1       5.496  -5.435  24.765  0.00  0.00    +0.000 C 
ATOM     20  C   UNL     1       5.249  -6.314  23.590  0.00  0.00    +0.000 C 
ATOM     21  C   UNL     1       4.710  -4.149  24.704  0.00  0.00    +0.000 C 
ATOM     22  C   UNL     1       5.195  -6.158  26.076  0.00  0.00    +0.000 C 
ENDBRANCH   5  19
TORSDOF 2
ENDMDL
MODEL 4
REMARK VINA RESULT:      -6.7      2.103      3.124
REMARK  Name = 
REMARK  2 active torsions:
REMARK  status: ('A' for Active; 'I' for Inactive)
REMARK    1  A    between atoms: N_10  and  C_11
REMARK    2  A    between atoms: C_15  and  C_18
REMARK                            x       y       z     vdW  Elec       q    Type
REMARK                         _______ _______ _______ _____ _____    ______ ____
ROOT
ATOM      1  C   UNL     1       8.292  -2.425  24.469  0.00  0.00    +0.000 C 
ATOM      2  C   UNL     1       7.934  -2.535  25.857  0.00  0.00    +0.000 C 
ATOM      3  C   UNL     1       6.987  -1.542  26.607  0.00  0.00    +0.000 C 
ATOM      4  C   UNL     1       7.227  -3.962  25.984  0.00  0.00    +0.000 C 
ATOM      5  C   UNL     1       7.225  -4.556  24.713  0.00  0.00    +0.000 C 
ATOM      6  C   UNL     1       8.151  -3.810  23.665  0.00  0.00    +0.000 C 
ATOM      7  C   UNL     1       7.445  -3.520  22.411  0.00  0.00    +0.000 C 
ATOM      8  O   UNL     1       7.466  -4.428  27.294  0.00  0.00    +0.000 OA
ENDROOT
BRANCH   1  18
ATOM      9  O   UNL     1       6.746   2.249  21.556  0.00  0.00    +0.000 OA
ATOM     10  C   UNL     1       7.641   1.225  21.293  0.00  0.00    +0.000 C 
ATOM     11  C   UNL     1       9.026   1.591  21.682  0.00  0.00    +0.000 C 
ATOM     12  C   UNL     1       9.290   1.434  23.164  0.00  0.00    +0.000 C 
ATOM     13  N   UNL     1       8.806   0.132  23.608  0.00  0.00    +0.000 N 
ATOM     14  C   UNL     1       7.425  -0.219  23.331  0.00  0.00    +0.000 C 
ATOM     15  C   UNL     1       7.155  -0.069  21.844  0.00  0.00    +0.000 C 
ATOM     16  C   UNL     1       9.557  -0.618  24.425  0.00  0.00    +0.000 C 
ATOM     17  O   UNL     1      10.523  -0.158  24.997  0.00  0.00    +0.000 OA
ATOM     18  N   UNL     1       9.544  -1.906  24.012  0.00  0.00    +0.000 NA
ENDBRANCH   1  18
BRANCH   5  19
ATOM     19  C   UNL     1       5.967  -5.117  23.970  0.00  0.00    +0.000 C 
ATOM     20  C   UNL     1       6.400  -5.851  22.750  0.00  0.00    +0.000 C 
ATOM     21  C   UNL     1       5.051  -3.959  23.658  0.00  0.00    +0.000 C 
ATOM     22  C   UNL     1       5.290  -6.051  24.972  0.00  0.00    +0.000 C 
ENDBRANCH   5  19
TORSDOF 2
ENDMDL
MODEL 5
REMARK VINA RESULT:      -6.6      2.276      6.550
REMARK  Name = 
REMARK  2 active torsions:
REMARK  status: ('A' for Active; 'I' for Inactive)
REMARK    1  A    between atoms: N_10  and  C_11
REMARK    2  A    between atoms: C_15  and  C_18
REMARK                            x       y       z     vdW  Elec       q    Type
REMARK                         _______ _______ _______ _____ _____    ______ ____
ROOT
ATOM      1  C   UNL     1       8.539  -2.387  23.342  0.00  0.00    +0.000 C 
ATOM      2  C   UNL     1       7.964  -1.998  22.082  0.00  0.00    +0.000 C 
ATOM      3  C   UNL     1       6.441  -1.732  21.850  0.00  0.00    +0.000 C 
ATOM      4  C   UNL     1       8.689  -0.623  21.712  0.00  0.00    +0.000 C 
ATOM      5  C   UNL     1       9.596  -0.323  22.739  0.00  0.00    +0.000 C 
ATOM      6  C   UNL     1       9.838  -1.528  23.740  0.00  0.00    +0.000 C 
ATOM      7  C   UNL     1       9.684  -1.122  25.142  0.00  0.00    +0.000 C 
ATOM      8  O   UNL     1       8.726  -0.540  20.303  0.00  0.00    +0.000 OA
ENDROOT
BRANCH   1  18
ATOM      9  O   UNL     1       4.889  -3.802  27.514  0.00  0.00    +0.000 OA
ATOM     10  C   UNL     1       6.254  -3.980  27.351  0.00  0.00    +0.000 C 
ATOM     11  C   UNL     1       6.573  -5.321  26.800  0.00  0.00    +0.000 C 
ATOM     12  C   UNL     1       6.388  -5.408  25.300  0.00  0.00    +0.000 C 
ATOM     13  N   UNL     1       7.035  -4.267  24.665  0.00  0.00    +0.000 N 
ATOM     14  C   UNL     1       6.673  -2.934  25.111  0.00  0.00    +0.000 C 
ATOM     15  C   UNL     1       6.862  -2.838  26.615  0.00  0.00    +0.000 C 
ATOM     16  C   UNL     1       7.779  -4.446  23.565  0.00  0.00    +0.000 C 
ATOM     17  O   UNL     1       7.748  -5.487  22.942  0.00  0.00    +0.000 OA
ATOM     18  N   UNL     1       8.921  -3.727  23.658  0.00  0.00    +0.000 NA
ENDBRANCH   1  18
BRANCH   5  19
ATOM     19  C   UNL     1       9.657   1.022  23.538  0.00  0.00    +0.000 C 
ATOM     20  C   UNL     1      10.849   1.012  24.429  0.00  0.00    +0.000 C 
ATOM     21  C   UNL     1       8.363   1.175  24.298  0.00  0.00    +0.000 C 
ATOM     22  C   UNL     1       9.762   2.116  22.478  0.00  0.00    +0.000 C 
ENDBRANCH   5  19
TORSDOF 2
ENDMDL
MODEL 6
REMARK VINA RESULT:      -6.2      1.935      2.933
REMARK  Name = 
REMARK  2 active torsions:
REMARK  status: ('A' for Active; 'I' for Inactive)
REMARK    1  A    between atoms: N_10  and  C_11
REMARK    2  A    between atoms: C_15  and  C_18
REMARK                            x       y       z     vdW  Elec       q    Type
REMARK                         _______ _______ _______ _____ _____    ______ ____
ROOT
ATOM      1  C   UNL     1       7.999  -2.927  23.358  0.00  0.00    +0.000 C 
ATOM      2  C   UNL     1       8.569  -3.435  24.576  0.00  0.00    +0.000 C 
ATOM      3  C   UNL     1       8.783  -2.588  25.873  0.00  0.00    +0.000 C 
ATOM      4  C   UNL     1       7.601  -4.628  25.012  0.00  0.00    +0.000 C 
ATOM      5  C   UNL     1       6.579  -4.726  24.057  0.00  0.00    +0.000 C 
ATOM      6  C   UNL     1       6.856  -3.879  22.747  0.00  0.00    +0.000 C 
ATOM      7  C   UNL     1       5.717  -3.025  22.389  0.00  0.00    +0.000 C 
ATOM      8  O   UNL     1       8.388  -5.563  25.720  0.00  0.00    +0.000 OA
ENDROOT
BRANCH   1  18
ATOM      9  O   UNL     1       7.564   2.776  23.286  0.00  0.00    +0.000 OA
ATOM     10  C   UNL     1       7.472   1.809  22.298  0.00  0.00    +0.000 C 
ATOM     11  C   UNL     1       8.761   1.624  21.586  0.00  0.00    +0.000 C 
ATOM     12  C   UNL     1       9.739   0.751  22.344  0.00  0.00    +0.000 C 
ATOM     13  N   UNL     1       9.061  -0.457  22.797  0.00  0.00    +0.000 N 
ATOM     14  C   UNL     1       7.848  -0.312  23.581  0.00  0.00    +0.000 C 
ATOM     15  C   UNL     1       6.860   0.558  22.825  0.00  0.00    +0.000 C 
ATOM     16  C   UNL     1       9.659  -1.649  22.668  0.00  0.00    +0.000 C 
ATOM     17  O   UNL     1      10.839  -1.740  22.399  0.00  0.00    +0.000 OA
ATOM     18  N   UNL     1       8.772  -2.564  22.212  0.00  0.00    +0.000 NA
ENDBRANCH   1  18
BRANCH   5  19
ATOM     19  C   UNL     1       5.043  -4.708  24.358  0.00  0.00    +0.000 C 
ATOM     20  C   UNL     1       4.612  -3.311  24.638  0.00  0.00    +0.000 C 
ATOM     21  C   UNL     1       4.780  -5.641  25.514  0.00  0.00    +0.000 C 
ATOM     22  C   UNL     1       4.378  -5.255  23.096  0.00  0.00    +0.000 C 
ENDBRANCH   5  19
TORSDOF 2
ENDMDL
MODEL 7
REMARK VINA RESULT:      -6.1      3.489      7.926
REMARK  Name = 
REMARK  2 active torsions:
REMARK  status: ('A' for Active; 'I' for Inactive)
REMARK    1  A    between atoms: N_10  and  C_11
REMARK    2  A    between atoms: C_15  and  C_18
REMARK                            x       y       z     vdW  Elec       q    Type
REMARK                         _______ _______ _______ _____ _____    ______ ____
ROOT
ATOM      1  C   UNL     1       7.836   0.854  21.782  0.00  0.00    +0.000 C 
ATOM      2  C   UNL     1       6.861   1.903  21.905  0.00  0.00    +0.000 C 
ATOM      3  C   UNL     1       5.630   1.857  22.869  0.00  0.00    +0.000 C 
ATOM      4  C   UNL     1       7.697   3.186  22.358  0.00  0.00    +0.000 C 
ATOM      5  C   UNL     1       9.044   2.809  22.462  0.00  0.00    +0.000 C 
ATOM      6  C   UNL     1       9.352   1.388  21.830  0.00  0.00    +0.000 C 
ATOM      7  C   UNL     1      10.094   0.521  22.754  0.00  0.00    +0.000 C 
ATOM      8  O   UNL     1       7.022   4.320  21.855  0.00  0.00    +0.000 OA
ENDROOT
BRANCH   1  18
ATOM      9  O   UNL     1       6.533  -4.067  24.392  0.00  0.00    +0.000 OA
ATOM     10  C   UNL     1       7.484  -3.722  23.445  0.00  0.00    +0.000 C 
ATOM     11  C   UNL     1       7.017  -4.013  22.066  0.00  0.00    +0.000 C 
ATOM     12  C   UNL     1       6.090  -2.950  21.515  0.00  0.00    +0.000 C 
ATOM     13  N   UNL     1       6.670  -1.633  21.749  0.00  0.00    +0.000 N 
ATOM     14  C   UNL     1       7.047  -1.277  23.104  0.00  0.00    +0.000 C 
ATOM     15  C   UNL     1       7.982  -2.336  23.661  0.00  0.00    +0.000 C 
ATOM     16  C   UNL     1       6.655  -0.713  20.774  0.00  0.00    +0.000 C 
ATOM     17  O   UNL     1       5.972  -0.853  19.781  0.00  0.00    +0.000 OA
ATOM     18  N   UNL     1       7.854  -0.090  20.709  0.00  0.00    +0.000 NA
ENDBRANCH   1  18
BRANCH   5  19
ATOM     19  C   UNL     1       9.956   3.015  23.717  0.00  0.00    +0.000 C 
ATOM     20  C   UNL     1      11.354   3.270  23.275  0.00  0.00    +0.000 C 
ATOM     21  C   UNL     1       9.836   1.791  24.591  0.00  0.00    +0.000 C 
ATOM     22  C   UNL     1       9.372   4.225  24.445  0.00  0.00    +0.000 C 
ENDBRANCH   5  19
TORSDOF 2
ENDMDL
MODEL 8
REMARK VINA RESULT:      -6.0      3.007      6.551
REMARK  Name = 
REMARK  2 active torsions:
REMARK  status: ('A' for Active; 'I' for Inactive)
REMARK    1  A    between atoms: N_10  and  C_11
REMARK    2  A    between atoms: C_15  and  C_18
REMARK                            x       y       z     vdW  Elec       q    Type
REMARK                         _______ _______ _______ _____ _____    ______ ____
ROOT
ATOM      1  C   UNL     1       8.502  -1.741  25.242  0.00  0.00    +0.000 C 
ATOM      2  C   UNL     1       9.004  -2.436  24.088  0.00  0.00    +0.000 C 
ATOM      3  C   UNL     1       8.108  -3.183  23.047  0.00  0.00    +0.000 C 
ATOM      4  C   UNL     1       9.780  -1.321  23.248  0.00  0.00    +0.000 C 
ATOM      5  C   UNL     1       9.678  -0.107  23.943  0.00  0.00    +0.000 C 
ATOM      6  C   UNL     1       9.126  -0.270  25.420  0.00  0.00    +0.000 C 
ATOM      7  C   UNL     1       8.016   0.648  25.701  0.00  0.00    +0.000 C 
ATOM      8  O   UNL     1      10.814  -1.976  22.545  0.00  0.00    +0.000 OA
ENDROOT
BRANCH   1  18
ATOM      9  O   UNL     1       2.971  -2.615  26.414  0.00  0.00    +0.000 OA
ATOM     10  C   UNL     1       4.016  -2.068  27.142  0.00  0.00    +0.000 C 
ATOM     11  C   UNL     1       4.647  -3.070  28.037  0.00  0.00    +0.000 C 
ATOM     12  C   UNL     1       5.626  -3.977  27.321  0.00  0.00    +0.000 C 
ATOM     13  N   UNL     1       6.523  -3.170  26.502  0.00  0.00    +0.000 N 
ATOM     14  C   UNL     1       5.940  -2.250  25.544  0.00  0.00    +0.000 C 
ATOM     15  C   UNL     1       4.961  -1.334  26.257  0.00  0.00    +0.000 C 
ATOM     16  C   UNL     1       7.838  -3.431  26.495  0.00  0.00    +0.000 C 
ATOM     17  O   UNL     1       8.282  -4.458  26.964  0.00  0.00    +0.000 OA
ATOM     18  N   UNL     1       8.538  -2.276  26.568  0.00  0.00    +0.000 NA
ENDBRANCH   1  18
BRANCH   5  19
ATOM     19  C   UNL     1       9.153   1.243  23.351  0.00  0.00    +0.000 C 
ATOM     20  C   UNL     1       9.436   2.346  24.310  0.00  0.00    +0.000 C 
ATOM     21  C   UNL     1       7.680   1.088  23.061  0.00  0.00    +0.000 C 
ATOM     22  C   UNL     1       9.916   1.433  22.041  0.00  0.00    +0.000 C 
ENDBRANCH   5  19
TORSDOF 2
ENDMDL
MODEL 9
REMARK VINA RESULT:      -6.0      2.551      4.268
REMARK  Name = 
REMARK  2 active torsions:
REMARK  status: ('A' for Active; 'I' for Inactive)
REMARK    1  A    between atoms: N_10  and  C_11
REMARK    2  A    between atoms: C_15  and  C_18
REMARK                            x       y       z     vdW  Elec       q    Type
REMARK                         _______ _______ _______ _____ _____    ______ ____
ROOT
ATOM      1  C   UNL     1       7.495  -1.850  23.231  0.00  0.00    +0.000 C 
ATOM      2  C   UNL     1       8.529  -2.849  23.247  0.00  0.00    +0.000 C 
ATOM      3  C   UNL     1       9.967  -2.623  23.821  0.00  0.00    +0.000 C 
ATOM      4  C   UNL     1       7.921  -4.050  24.106  0.00  0.00    +0.000 C 
ATOM      5  C   UNL     1       6.630  -3.681  24.512  0.00  0.00    +0.000 C 
ATOM      6  C   UNL     1       6.081  -2.390  23.773  0.00  0.00    +0.000 C 
ATOM      7  C   UNL     1       5.561  -1.392  24.715  0.00  0.00    +0.000 C 
ATOM      8  O   UNL     1       8.504  -5.242  23.624  0.00  0.00    +0.000 OA
ENDROOT
BRANCH   1  18
ATOM      9  O   UNL     1       9.025   3.481  24.635  0.00  0.00    +0.000 OA
ATOM     10  C   UNL     1       7.897   2.949  24.030  0.00  0.00    +0.000 C 
ATOM     11  C   UNL     1       7.980   3.022  22.550  0.00  0.00    +0.000 C 
ATOM     12  C   UNL     1       8.820   1.916  21.946  0.00  0.00    +0.000 C 
ATOM     13  N   UNL     1       8.421   0.637  22.519  0.00  0.00    +0.000 N 
ATOM     14  C   UNL     1       8.422   0.499  23.963  0.00  0.00    +0.000 C 
ATOM     15  C   UNL     1       7.577   1.602  24.576  0.00  0.00    +0.000 C 
ATOM     16  C   UNL     1       8.263  -0.431  21.725  0.00  0.00    +0.000 C 
ATOM     17  O   UNL     1       8.663  -0.434  20.580  0.00  0.00    +0.000 OA
ATOM     18  N   UNL     1       7.137  -1.099  22.068  0.00  0.00    +0.000 NA
ENDBRANCH   1  18
BRANCH   5  19
ATOM     19  C   UNL     1       6.098  -3.687  25.983  0.00  0.00    +0.000 C 
ATOM     20  C   UNL     1       4.622  -3.499  25.976  0.00  0.00    +0.000 C 
ATOM     21  C   UNL     1       6.819  -2.605  26.748  0.00  0.00    +0.000 C 
ATOM     22  C   UNL     1       6.483  -5.055  26.545  0.00  0.00    +0.000 C 
ENDBRANCH   5  19
TORSDOF 2
ENDMDL
