MODEL 1
REMARK VINA RESULT:      -7.1      0.000      0.000
REMARK  Name = 
REMARK  2 active torsions:
REMARK  status: ('A' for Active; 'I' for Inactive)
REMARK    1  A    between atoms: C_2  and  C_3
REMARK    2  A    between atoms: C_11  and  N_12
REMARK                            x       y       z     vdW  Elec       q    Type
REMARK                         _______ _______ _______ _____ _____    ______ ____
ROOT
ATOM      1  C   UNL     1       9.036   0.408  23.792  0.00  0.00    +0.000 C 
ATOM      2  C   UNL     1      10.188   0.335  24.787  0.00  0.00    +0.000 C 
ATOM      3  C   UNL     1       8.536   1.836  24.011  0.00  0.00    +0.000 C 
ATOM      4  C   UNL     1       8.101   2.129  25.337  0.00  0.00    +0.000 C 
ATOM      5  O   UNL     1       9.287   2.977  23.611  0.00  0.00    +0.000 OA
ATOM      6  C   UNL     1      10.335   2.589  22.867  0.00  0.00    +0.000 C 
ATOM      7  C   UNL     1       9.972   1.475  22.060  0.00  0.00    +0.000 C 
ATOM      8  C   UNL     1       8.455   1.167  21.870  0.00  0.00    +0.000 C 
ATOM      9  C   UNL     1       8.992  -0.574  23.433  0.00  0.00    +0.000 C 
ATOM     10  C   UNL     1       9.334  -0.873  21.502  0.00  0.00    +0.000 C 
ATOM     11  C   UNL     1       8.534   0.281  20.810  0.00  0.00    +0.000 C 
ATOM     12  C   UNL     1       7.770   0.092  19.655  0.00  0.00    +0.000 C 
ATOM     13  C   UNL     1       7.576   1.895  22.733  0.00  0.00    +0.000 C 
ENDROOT
BRANCH   9  14
ATOM     14  N   UNL     1       7.304  -1.025  22.530  0.00  0.00    +0.000 NA
ATOM     15  C   UNL     1       7.443  -2.237  22.954  0.00  0.00    +0.000 C 
ATOM     16  O   UNL     1       8.453  -2.897  23.133  0.00  0.00    +0.000 OA
ATOM     17  O   UNL     1       6.398  -2.461  23.801  0.00  0.00    +0.000 OA
ENDBRANCH   9  14
BRANCH   1  19
ATOM     18  O   UNL     1       7.057  -0.082  24.527  0.00  0.00    +0.000 OA
ATOM     19  C   UNL     1       8.217  -0.050  22.972  0.00  0.00    +0.000 C 
ENDBRANCH   1  19
TORSDOF 2
ENDMDL
MODEL 2
REMARK VINA RESULT:      -7.0      4.457      6.374
REMARK  Name = 
REMARK  2 active torsions:
REMARK  status: ('A' for Active; 'I' for Inactive)
REMARK    1  A    between atoms: C_2  and  C_3
REMARK    2  A    between atoms: C_11  and  N_12
REMARK                            x       y       z     vdW  Elec       q    Type
REMARK                         _______ _______ _______ _____ _____    ______ ____
ROOT
ATOM      1  C   UNL     1       6.957  -4.691  23.018  0.00  0.00    +0.000 C 
ATOM      2  C   UNL     1       7.154  -5.780  21.970  0.00  0.00    +0.000 C 
ATOM      3  C   UNL     1       5.734  -3.958  22.467  0.00  0.00    +0.000 C 
ATOM      4  C   UNL     1       5.895  -3.406  21.162  0.00  0.00    +0.000 C 
ATOM      5  O   UNL     1       4.435  -4.541  22.459  0.00  0.00    +0.000 OA
ATOM      6  C   UNL     1       4.446  -5.678  23.172  0.00  0.00    +0.000 C 
ATOM      7  C   UNL     1       5.320  -5.545  24.286  0.00  0.00    +0.000 C 
ATOM      8  C   UNL     1       5.764  -4.110  24.705  0.00  0.00    +0.000 C 
ATOM      9  C   UNL     1       7.790  -4.825  23.636  0.00  0.00    +0.000 C 
ATOM     10  C   UNL     1       7.473  -5.322  25.529  0.00  0.00    +0.000 C 
ATOM     11  C   UNL     1       6.289  -4.391  25.955  0.00  0.00    +0.000 C 
ATOM     12  C   UNL     1       6.240  -3.735  27.188  0.00  0.00    +0.000 C 
ATOM     13  C   UNL     1       5.441  -3.077  23.769  0.00  0.00    +0.000 C 
ENDROOT
BRANCH   9  14
ATOM     14  N   UNL     1       8.188  -3.285  24.794  0.00  0.00    +0.000 NA
ATOM     15  C   UNL     1       9.442  -3.580  24.691  0.00  0.00    +0.000 C 
ATOM     16  O   UNL     1       9.990  -4.664  24.590  0.00  0.00    +0.000 OA
ATOM     17  O   UNL     1      10.022  -2.528  24.046  0.00  0.00    +0.000 OA
ENDBRANCH   9  14
BRANCH   1  19
ATOM     18  O   UNL     1       7.905  -2.778  22.650  0.00  0.00    +0.000 OA
ATOM     19  C   UNL     1       7.267  -4.005  24.010  0.00  0.00    +0.000 C 
ENDBRANCH   1  19
TORSDOF 2
ENDMDL
MODEL 3
REMARK VINA RESULT:      -6.9      1.893      2.921
REMARK  Name = 
REMARK  2 active torsions:
REMARK  status: ('A' for Active; 'I' for Inactive)
REMARK    1  A    between atoms: C_2  and  C_3
REMARK    2  A    between atoms: C_11  and  N_12
REMARK                            x       y       z     vdW  Elec       q    Type
REMARK                         _______ _______ _______ _____ _____    ______ ____
ROOT
ATOM      1  C   UNL     1       9.235  -0.630  22.817  0.00  0.00    +0.000 C 
ATOM      2  C   UNL     1      10.441  -1.543  22.626  0.00  0.00    +0.000 C 
ATOM      3  C   UNL     1       8.938  -0.828  24.304  0.00  0.00    +0.000 C 
ATOM      4  C   UNL     1       8.645  -2.170  24.690  0.00  0.00    +0.000 C 
ATOM      5  O   UNL     1       9.795  -0.332  25.326  0.00  0.00    +0.000 OA
ATOM      6  C   UNL     1      10.726   0.469  24.784  0.00  0.00    +0.000 C 
ATOM      7  C   UNL     1      10.165   1.204  23.703  0.00  0.00    +0.000 C 
ATOM      8  C   UNL     1       8.611   1.273  23.588  0.00  0.00    +0.000 C 
ATOM      9  C   UNL     1       9.040  -0.314  21.840  0.00  0.00    +0.000 C 
ATOM     10  C   UNL     1       9.194   1.623  21.442  0.00  0.00    +0.000 C 
ATOM     11  C   UNL     1       8.496   2.301  22.668  0.00  0.00    +0.000 C 
ATOM     12  C   UNL     1       7.630   3.390  22.546  0.00  0.00    +0.000 C 
ATOM     13  C   UNL     1       7.899   0.379  24.449  0.00  0.00    +0.000 C 
ENDROOT
BRANCH   9  14
ATOM     14  N   UNL     1       7.244   0.448  21.584  0.00  0.00    +0.000 NA
ATOM     15  C   UNL     1       7.269   0.004  20.371  0.00  0.00    +0.000 C 
ATOM     16  O   UNL     1       8.201  -0.116  19.596  0.00  0.00    +0.000 OA
ATOM     17  O   UNL     1       6.272  -0.924  20.293  0.00  0.00    +0.000 OA
ENDBRANCH   9  14
BRANCH   1  19
ATOM     18  O   UNL     1       7.273  -1.525  22.599  0.00  0.00    +0.000 OA
ATOM     19  C   UNL     1       8.305   0.110  22.445  0.00  0.00    +0.000 C 
ENDBRANCH   1  19
TORSDOF 2
ENDMDL
MODEL 4
REMARK VINA RESULT:      -6.7      2.798      5.180
REMARK  Name = 
REMARK  2 active torsions:
REMARK  status: ('A' for Active; 'I' for Inactive)
REMARK    1  A    between atoms: C_2  and  C_3
REMARK    2  A    between atoms: C_11  and  N_12
REMARK                            x       y       z     vdW  Elec       q    Type
REMARK                         _______ _______ _______ _____ _____    ______ ____
ROOT
ATOM      1  C   UNL     1       8.237  -3.027  24.890  0.00  0.00    +0.000 C 
ATOM      2  C   UNL     1       8.363  -2.609  26.350  0.00  0.00    +0.000 C 
ATOM      3  C   UNL     1       8.180  -4.550  25.015  0.00  0.00    +0.000 C 
ATOM      4  C   UNL     1       9.315  -5.150  25.635  0.00  0.00    +0.000 C 
ATOM      5  O   UNL     1       7.059  -5.228  25.570  0.00  0.00    +0.000 OA
ATOM      6  C   UNL     1       6.049  -4.361  25.747  0.00  0.00    +0.000 C 
ATOM      7  C   UNL     1       6.039  -3.406  24.694  0.00  0.00    +0.000 C 
ATOM      8  C   UNL     1       6.855  -3.724  23.403  0.00  0.00    +0.000 C 
ATOM      9  C   UNL     1       8.337  -2.114  24.390  0.00  0.00    +0.000 C 
ATOM     10  C   UNL     1       6.803  -1.475  23.307  0.00  0.00    +0.000 C 
ATOM     11  C   UNL     1       6.327  -2.764  22.557  0.00  0.00    +0.000 C 
ATOM     12  C   UNL     1       5.955  -2.769  21.211  0.00  0.00    +0.000 C 
ATOM     13  C   UNL     1       7.739  -4.844  23.506  0.00  0.00    +0.000 C 
ENDROOT
BRANCH   9  14
ATOM     14  N   UNL     1       8.765  -2.289  22.477  0.00  0.00    +0.000 NA
ATOM     15  C   UNL     1       9.502  -1.233  22.584  0.00  0.00    +0.000 C 
ATOM     16  O   UNL     1       9.364  -0.244  23.283  0.00  0.00    +0.000 OA
ATOM     17  O   UNL     1      10.778  -1.641  22.330  0.00  0.00    +0.000 OA
ENDBRANCH   9  14
BRANCH   1  19
ATOM     18  O   UNL     1      10.079  -3.448  23.830  0.00  0.00    +0.000 OA
ATOM     19  C   UNL     1       8.242  -2.850  23.657  0.00  0.00    +0.000 C 
ENDBRANCH   1  19
TORSDOF 2
ENDMDL
MODEL 5
REMARK VINA RESULT:      -6.7      1.840      3.542
REMARK  Name = 
REMARK  2 active torsions:
REMARK  status: ('A' for Active; 'I' for Inactive)
REMARK    1  A    between atoms: C_2  and  C_3
REMARK    2  A    between atoms: C_11  and  N_12
REMARK                            x       y       z     vdW  Elec       q    Type
REMARK                         _______ _______ _______ _____ _____    ______ ____
ROOT
ATOM      1  C   UNL     1       8.050  -0.572  23.307  0.00  0.00    +0.000 C 
ATOM      2  C   UNL     1       7.510   0.814  23.640  0.00  0.00    +0.000 C 
ATOM      3  C   UNL     1       9.371  -0.226  22.619  0.00  0.00    +0.000 C 
ATOM      4  C   UNL     1       9.252   0.584  21.451  0.00  0.00    +0.000 C 
ATOM      5  O   UNL     1      10.481   0.314  23.327  0.00  0.00    +0.000 OA
ATOM      6  C   UNL     1      10.243   0.261  24.647  0.00  0.00    +0.000 C 
ATOM      7  C   UNL     1       9.517  -0.920  24.963  0.00  0.00    +0.000 C 
ATOM      8  C   UNL     1       9.475  -2.063  23.902  0.00  0.00    +0.000 C 
ATOM      9  C   UNL     1       7.259  -1.193  23.595  0.00  0.00    +0.000 C 
ATOM     10  C   UNL     1       7.587  -2.501  25.049  0.00  0.00    +0.000 C 
ATOM     11  C   UNL     1       8.993  -3.091  24.695  0.00  0.00    +0.000 C 
ATOM     12  C   UNL     1       9.296  -4.451  24.795  0.00  0.00    +0.000 C 
ATOM     13  C   UNL     1       9.970  -1.708  22.608  0.00  0.00    +0.000 C 
ENDROOT
BRANCH   9  14
ATOM     14  N   UNL     1       7.343  -3.007  22.839  0.00  0.00    +0.000 NA
ATOM     15  C   UNL     1       6.053  -3.046  22.885  0.00  0.00    +0.000 C 
ATOM     16  O   UNL     1       5.279  -2.552  23.687  0.00  0.00    +0.000 OA
ATOM     17  O   UNL     1       5.634  -3.133  21.590  0.00  0.00    +0.000 OA
ENDBRANCH   9  14
BRANCH   1  19
ATOM     18  O   UNL     1       7.519  -1.374  21.365  0.00  0.00    +0.000 OA
ATOM     19  C   UNL     1       7.996  -1.812  23.193  0.00  0.00    +0.000 C 
ENDBRANCH   1  19
TORSDOF 2
ENDMDL
MODEL 6
REMARK VINA RESULT:      -6.6      1.929      3.480
REMARK  Name = 
REMARK  2 active torsions:
REMARK  status: ('A' for Active; 'I' for Inactive)
REMARK    1  A    between atoms: C_2  and  C_3
REMARK    2  A    between atoms: C_11  and  N_12
REMARK                            x       y       z     vdW  Elec       q    Type
REMARK                         _______ _______ _______ _____ _____    ______ ____
ROOT
ATOM      1  C   UNL     1       8.455   0.471  23.390  0.00  0.00    +0.000 C 
ATOM      2  C   UNL     1       8.118  -0.008  24.797  0.00  0.00    +0.000 C 
ATOM      3  C   UNL     1       9.953   0.174  23.319  0.00  0.00    +0.000 C 
ATOM      4  C   UNL     1      10.749   0.835  24.302  0.00  0.00    +0.000 C 
ATOM      5  O   UNL     1      10.466  -1.152  23.264  0.00  0.00    +0.000 OA
ATOM      6  C   UNL     1       9.458  -2.018  23.079  0.00  0.00    +0.000 C 
ATOM      7  C   UNL     1       8.473  -1.444  22.229  0.00  0.00    +0.000 C 
ATOM      8  C   UNL     1       8.868  -0.190  21.389  0.00  0.00    +0.000 C 
ATOM      9  C   UNL     1       7.551   0.895  23.078  0.00  0.00    +0.000 C 
ATOM     10  C   UNL     1       6.637   0.089  21.514  0.00  0.00    +0.000 C 
ATOM     11  C   UNL     1       7.805  -0.166  20.503  0.00  0.00    +0.000 C 
ATOM     12  C   UNL     1       7.699   0.097  19.135  0.00  0.00    +0.000 C 
ATOM     13  C   UNL     1      10.117   0.410  21.746  0.00  0.00    +0.000 C 
ENDROOT
BRANCH   9  14
ATOM     14  N   UNL     1       7.719   2.096  21.529  0.00  0.00    +0.000 NA
ATOM     15  C   UNL     1       6.750   2.799  22.016  0.00  0.00    +0.000 C 
ATOM     16  O   UNL     1       5.771   2.453  22.655  0.00  0.00    +0.000 OA
ATOM     17  O   UNL     1       7.283   4.020  22.308  0.00  0.00    +0.000 OA
ENDBRANCH   9  14
BRANCH   1  19
ATOM     18  O   UNL     1       9.164   2.507  23.171  0.00  0.00    +0.000 OA
ATOM     19  C   UNL     1       8.234   1.042  22.304  0.00  0.00    +0.000 C 
ENDBRANCH   1  19
TORSDOF 2
ENDMDL
MODEL 7
REMARK VINA RESULT:      -6.6      3.821      6.044
REMARK  Name = 
REMARK  2 active torsions:
REMARK  status: ('A' for Active; 'I' for Inactive)
REMARK    1  A    between atoms: C_2  and  C_3
REMARK    2  A    between atoms: C_11  and  N_12
REMARK                            x       y       z     vdW  Elec       q    Type
REMARK                         _______ _______ _______ _____ _____    ______ ____
ROOT
ATOM      1  C   UNL     1       6.694  -4.883  24.178  0.00  0.00    +0.000 C 
ATOM      2  C   UNL     1       5.652  -5.974  24.396  0.00  0.00    +0.000 C 
ATOM      3  C   UNL     1       6.720  -4.790  22.652  0.00  0.00    +0.000 C 
ATOM      4  C   UNL     1       7.074  -5.994  21.977  0.00  0.00    +0.000 C 
ATOM      5  O   UNL     1       5.634  -4.256  21.903  0.00  0.00    +0.000 OA
ATOM      6  C   UNL     1       4.744  -3.693  22.736  0.00  0.00    +0.000 C 
ATOM      7  C   UNL     1       5.420  -3.076  23.824  0.00  0.00    +0.000 C 
ATOM      8  C   UNL     1       6.951  -2.810  23.684  0.00  0.00    +0.000 C 
ATOM      9  C   UNL     1       7.038  -4.709  25.150  0.00  0.00    +0.000 C 
ATOM     10  C   UNL     1       6.757  -2.905  25.925  0.00  0.00    +0.000 C 
ATOM     11  C   UNL     1       7.129  -1.943  24.748  0.00  0.00    +0.000 C 
ATOM     12  C   UNL     1       7.882  -0.779  24.924  0.00  0.00    +0.000 C 
ATOM     13  C   UNL     1       7.576  -3.442  22.563  0.00  0.00    +0.000 C 
ENDROOT
BRANCH   9  14
ATOM     14  N   UNL     1       8.757  -3.756  25.236  0.00  0.00    +0.000 NA
ATOM     15  C   UNL     1       9.050  -4.456  26.281  0.00  0.00    +0.000 C 
ATOM     16  O   UNL     1       8.332  -4.886  27.168  0.00  0.00    +0.000 OA
ATOM     17  O   UNL     1      10.129  -5.215  25.934  0.00  0.00    +0.000 OA
ENDBRANCH   9  14
BRANCH   1  19
ATOM     18  O   UNL     1       8.744  -5.510  23.866  0.00  0.00    +0.000 OA
ATOM     19  C   UNL     1       7.593  -4.092  24.520  0.00  0.00    +0.000 C 
ENDBRANCH   1  19
TORSDOF 2
ENDMDL
MODEL 8
REMARK VINA RESULT:      -6.5      1.973      4.159
REMARK  Name = 
REMARK  2 active torsions:
REMARK  status: ('A' for Active; 'I' for Inactive)
REMARK    1  A    between atoms: C_2  and  C_3
REMARK    2  A    between atoms: C_11  and  N_12
REMARK                            x       y       z     vdW  Elec       q    Type
REMARK                         _______ _______ _______ _____ _____    ______ ____
ROOT
ATOM      1  C   UNL     1       7.924  -2.151  23.063  0.00  0.00    +0.000 C 
ATOM      2  C   UNL     1       7.588  -3.431  22.308  0.00  0.00    +0.000 C 
ATOM      3  C   UNL     1       7.435  -2.492  24.471  0.00  0.00    +0.000 C 
ATOM      4  C   UNL     1       6.049  -2.811  24.571  0.00  0.00    +0.000 C 
ATOM      5  O   UNL     1       8.091  -3.451  25.294  0.00  0.00    +0.000 OA
ATOM      6  C   UNL     1       9.255  -3.809  24.730  0.00  0.00    +0.000 C 
ATOM      7  C   UNL     1       9.845  -2.690  24.080  0.00  0.00    +0.000 C 
ATOM      8  C   UNL     1       9.315  -1.267  24.439  0.00  0.00    +0.000 C 
ATOM      9  C   UNL     1       8.262  -1.525  22.297  0.00  0.00    +0.000 C 
ATOM     10  C   UNL     1      10.138  -0.888  22.378  0.00  0.00    +0.000 C 
ATOM     11  C   UNL     1      10.326  -0.502  23.883  0.00  0.00    +0.000 C 
ATOM     12  C   UNL     1      10.995   0.653  24.297  0.00  0.00    +0.000 C 
ATOM     13  C   UNL     1       8.111  -1.246  25.211  0.00  0.00    +0.000 C 
ENDROOT
BRANCH   9  14
ATOM     14  N   UNL     1       8.287   0.385  22.772  0.00  0.00    +0.000 NA
ATOM     15  C   UNL     1       8.045   0.658  21.532  0.00  0.00    +0.000 C 
ATOM     16  O   UNL     1       8.399   0.084  20.516  0.00  0.00    +0.000 OA
ATOM     17  O   UNL     1       6.820   1.256  21.513  0.00  0.00    +0.000 OA
ENDBRANCH   9  14
BRANCH   1  19
ATOM     18  O   UNL     1       6.370  -0.652  23.247  0.00  0.00    +0.000 OA
ATOM     19  C   UNL     1       8.283  -0.963  23.175  0.00  0.00    +0.000 C 
ENDBRANCH   1  19
TORSDOF 2
ENDMDL
MODEL 9
REMARK VINA RESULT:      -6.5      1.700      3.994
REMARK  Name = 
REMARK  2 active torsions:
REMARK  status: ('A' for Active; 'I' for Inactive)
REMARK    1  A    between atoms: C_2  and  C_3
REMARK    2  A    between atoms: C_11  and  N_12
REMARK                            x       y       z     vdW  Elec       q    Type
REMARK                         _______ _______ _______ _____ _____    ______ ____
ROOT
ATOM      1  C   UNL     1       8.190  -0.496  23.439  0.00  0.00    +0.000 C 
ATOM      2  C   UNL     1       7.546  -0.595  24.816  0.00  0.00    +0.000 C 
ATOM      3  C   UNL     1       8.812  -1.885  23.293  0.00  0.00    +0.000 C 
ATOM      4  C   UNL     1       9.768  -2.229  24.294  0.00  0.00    +0.000 C 
ATOM      5  O   UNL     1       8.025  -3.058  23.120  0.00  0.00    +0.000 OA
ATOM      6  C   UNL     1       6.745  -2.715  22.906  0.00  0.00    +0.000 C 
ATOM      7  C   UNL     1       6.684  -1.521  22.137  0.00  0.00    +0.000 C 
ATOM      8  C   UNL     1       7.970  -1.066  21.381  0.00  0.00    +0.000 C 
ATOM      9  C   UNL     1       8.030   0.508  23.192  0.00  0.00    +0.000 C 
ATOM     10  C   UNL     1       6.910   0.908  21.605  0.00  0.00    +0.000 C 
ATOM     11  C   UNL     1       7.416  -0.119  20.537  0.00  0.00    +0.000 C 
ATOM     12  C   UNL     1       7.627   0.216  19.197  0.00  0.00    +0.000 C 
ATOM     13  C   UNL     1       9.164  -1.770  21.738  0.00  0.00    +0.000 C 
ENDROOT
BRANCH   9  14
ATOM     14  N   UNL     1       9.172   1.170  21.733  0.00  0.00    +0.000 NA
ATOM     15  C   UNL     1       9.178   2.325  22.312  0.00  0.00    +0.000 C 
ATOM     16  O   UNL     1       8.312   2.884  22.962  0.00  0.00    +0.000 OA
ATOM     17  O   UNL     1      10.473   2.555  22.674  0.00  0.00    +0.000 OA
ENDBRANCH   9  14
BRANCH   1  19
ATOM     18  O   UNL     1      10.278   0.076  23.336  0.00  0.00    +0.000 OA
ATOM     19  C   UNL     1       8.575   0.089  22.408  0.00  0.00    +0.000 C 
ENDBRANCH   1  19
TORSDOF 2
ENDMDL
