MODEL 1
REMARK VINA RESULT:      -7.4      0.000      0.000
REMARK  Name = 
REMARK  7 active torsions:
REMARK  status: ('A' for Active; 'I' for Inactive)
REMARK    1  A    between atoms: C_2  and  N_3
REMARK    2  A    between atoms: N_3  and  C_4
REMARK    3  A    between atoms: C_9  and  C_10
REMARK    4  A    between atoms: C_10  and  N_11
REMARK    5  A    between atoms: C_16  and  S_17
REMARK    6  A    between atoms: C_21  and  C_23
REMARK    7  A    between atoms: C_23  and  N_24
REMARK                            x       y       z     vdW  Elec       q    Type
REMARK                         _______ _______ _______ _____ _____    ______ ____
ROOT
ATOM      1  N   UNL     1       7.884  -0.768  25.188  0.00  0.00    +0.000 NA
ATOM      2  C   UNL     1       6.823  -0.888  26.100  0.00  0.00    +0.000 C 
ATOM      3  C   UNL     1       6.088  -2.222  25.924  0.00  0.00    +0.000 C 
ATOM      4  N   UNL     1       7.102  -3.277  26.138  0.00  0.00    +0.000 N 
ATOM      5  C   UNL     1       8.452  -2.754  26.461  0.00  0.00    +0.000 C 
ATOM      6  C   UNL     1       8.822  -1.800  25.310  0.00  0.00    +0.000 C 
ATOM      7  C   UNL     1       7.046  -4.377  25.347  0.00  0.00    +0.000 C 
ATOM      8  O   UNL     1       7.602  -5.400  25.690  0.00  0.00    +0.000 OA
ENDROOT
BRANCH   6   9
ATOM      9  S   UNL     1       9.012  -2.763  23.829  0.00  0.00    +0.000 S 
ATOM     10  O   UNL     1       9.547  -4.047  24.237  0.00  0.00    +0.000 OA
ATOM     11  O   UNL     1       7.750  -2.813  23.156  0.00  0.00    +0.000 OA
ATOM     12  N   UNL     1      10.117  -2.043  22.846  0.00  0.00    +0.000 NA
ENDBRANCH   6   9
BRANCH   1  13
ATOM     13  C   UNL     1       7.542  -0.395  23.916  0.00  0.00    +0.000 C 
BRANCH  13  19
ATOM     14  C   UNL     1       8.198   1.103  22.085  0.00  0.00    +0.000 C 
ATOM     15  C   UNL     1       9.267   2.043  22.007  0.00  0.00    +0.000 C 
ATOM     16  F   UNL     1      10.485   1.592  21.580  0.00  0.00    +0.000 F 
ATOM     17  C   UNL     1       9.570   2.495  23.458  0.00  0.00    +0.000 C 
ATOM     18  C   UNL     1       8.626   1.806  24.324  0.00  0.00    +0.000 C 
ATOM     19  C   UNL     1       7.529   1.061  23.582  0.00  0.00    +0.000 C 
ATOM     20  F   UNL     1       8.242   2.609  25.325  0.00  0.00    +0.000 F 
BRANCH  14  21
ATOM     21  N   UNL     1       7.081   1.111  21.208  0.00  0.00    +0.000 NA
BRANCH  21  23
ATOM     22  C   UNL     1       7.450   0.238  18.973  0.00  0.00    +0.000 C 
ATOM     23  C   UNL     1       6.905  -0.053  20.367  0.00  0.00    +0.000 C 
ENDBRANCH  21  23
ENDBRANCH  14  21
ENDBRANCH  13  19
ENDBRANCH   1  13
BRANCH   7  24
ATOM     24  C   UNL     1       6.142  -4.310  24.154  0.00  0.00    +0.000 C 
BRANCH  24  25
ATOM     25  N   UNL     1       4.968  -5.025  24.261  0.00  0.00    +0.000 NA
ATOM     26  C   UNL     1       3.864  -4.422  24.770  0.00  0.00    +0.000 C 
ATOM     27  C   UNL     1       3.453  -4.833  26.164  0.00  0.00    +0.000 C 
ATOM     28  N   UNL     1       4.033  -6.135  26.482  0.00  0.00    +0.000 N 
ATOM     29  C   UNL     1       4.239  -7.069  25.377  0.00  0.00    +0.000 C 
ATOM     30  C   UNL     1       5.082  -6.397  24.312  0.00  0.00    +0.000 C 
ATOM     31  C   UNL     1       4.796  -6.255  27.588  0.00  0.00    +0.000 C 
ATOM     32  O   UNL     1       5.479  -7.233  27.789  0.00  0.00    +0.000 OA
ATOM     33  C   UNL     1       4.692  -5.132  28.596  0.00  0.00    +0.000 C 
ENDBRANCH  24  25
ENDBRANCH   7  24
TORSDOF 7
ENDMDL
MODEL 2
REMARK VINA RESULT:      -7.2      1.651      2.555
REMARK  Name = 
REMARK  7 active torsions:
REMARK  status: ('A' for Active; 'I' for Inactive)
REMARK    1  A    between atoms: C_2  and  N_3
REMARK    2  A    between atoms: N_3  and  C_4
REMARK    3  A    between atoms: C_9  and  C_10
REMARK    4  A    between atoms: C_10  and  N_11
REMARK    5  A    between atoms: C_16  and  S_17
REMARK    6  A    between atoms: C_21  and  C_23
REMARK    7  A    between atoms: C_23  and  N_24
REMARK                            x       y       z     vdW  Elec       q    Type
REMARK                         _______ _______ _______ _____ _____    ______ ____
ROOT
ATOM      1  N   UNL     1       7.719  -0.131  23.628  0.00  0.00    +0.000 NA
ATOM      2  C   UNL     1       6.460  -0.135  24.253  0.00  0.00    +0.000 C 
ATOM      3  C   UNL     1       5.852  -1.542  24.266  0.00  0.00    +0.000 C 
ATOM      4  N   UNL     1       6.815  -2.395  24.995  0.00  0.00    +0.000 N 
ATOM      5  C   UNL     1       8.011  -1.666  25.485  0.00  0.00    +0.000 C 
ATOM      6  C   UNL     1       8.632  -0.993  24.247  0.00  0.00    +0.000 C 
ATOM      7  C   UNL     1       7.014  -3.656  24.538  0.00  0.00    +0.000 C 
ATOM      8  O   UNL     1       7.501  -4.496  25.267  0.00  0.00    +0.000 OA
ENDROOT
BRANCH   6   9
ATOM      9  S   UNL     1       9.245  -2.267  23.170  0.00  0.00    +0.000 S 
ATOM     10  O   UNL     1       9.712  -3.341  24.025  0.00  0.00    +0.000 OA
ATOM     11  O   UNL     1       8.204  -2.624  22.253  0.00  0.00    +0.000 OA
ATOM     12  N   UNL     1      10.533  -1.696  22.323  0.00  0.00    +0.000 NA
ENDBRANCH   6   9
BRANCH   1  13
ATOM     13  C   UNL     1       7.709  -0.125  22.260  0.00  0.00    +0.000 C 
BRANCH  13  19
ATOM     14  C   UNL     1       8.512   2.153  22.704  0.00  0.00    +0.000 C 
ATOM     15  C   UNL     1       7.784   3.370  22.853  0.00  0.00    +0.000 C 
ATOM     16  F   UNL     1       7.317   3.689  24.097  0.00  0.00    +0.000 F 
ATOM     17  C   UNL     1       6.475   3.208  22.038  0.00  0.00    +0.000 C 
ATOM     18  C   UNL     1       6.519   1.892  21.421  0.00  0.00    +0.000 C 
ATOM     19  C   UNL     1       7.857   1.185  21.554  0.00  0.00    +0.000 C 
ATOM     20  F   UNL     1       5.977   1.934  20.196  0.00  0.00    +0.000 F 
BRANCH  14  21
ATOM     21  N   UNL     1       9.908   2.100  22.446  0.00  0.00    +0.000 NA
BRANCH  21  23
ATOM     22  C   UNL     1      11.404   3.772  23.371  0.00  0.00    +0.000 C 
ATOM     23  C   UNL     1      10.787   2.391  23.558  0.00  0.00    +0.000 C 
ENDBRANCH  21  23
ENDBRANCH  14  21
ENDBRANCH  13  19
ENDBRANCH   1  13
BRANCH   7  24
ATOM     24  C   UNL     1       6.454  -3.986  23.188  0.00  0.00    +0.000 C 
BRANCH  24  25
ATOM     25  N   UNL     1       5.346  -4.806  23.190  0.00  0.00    +0.000 NA
ATOM     26  C   UNL     1       4.136  -4.290  23.521  0.00  0.00    +0.000 C 
ATOM     27  C   UNL     1       3.587  -4.671  24.876  0.00  0.00    +0.000 C 
ATOM     28  N   UNL     1       4.236  -5.894  25.341  0.00  0.00    +0.000 N 
ATOM     29  C   UNL     1       4.668  -6.856  24.329  0.00  0.00    +0.000 C 
ATOM     30  C   UNL     1       5.577  -6.156  23.338  0.00  0.00    +0.000 C 
ATOM     31  C   UNL     1       4.857  -5.885  26.538  0.00  0.00    +0.000 C 
ATOM     32  O   UNL     1       5.595  -6.781  26.881  0.00  0.00    +0.000 OA
ATOM     33  C   UNL     1       4.523  -4.731  27.456  0.00  0.00    +0.000 C 
ENDBRANCH  24  25
ENDBRANCH   7  24
TORSDOF 7
ENDMDL
MODEL 3
REMARK VINA RESULT:      -7.2      2.611      4.524
REMARK  Name = 
REMARK  7 active torsions:
REMARK  status: ('A' for Active; 'I' for Inactive)
REMARK    1  A    between atoms: C_2  and  N_3
REMARK    2  A    between atoms: N_3  and  C_4
REMARK    3  A    between atoms: C_9  and  C_10
REMARK    4  A    between atoms: C_10  and  N_11
REMARK    5  A    between atoms: C_16  and  S_17
REMARK    6  A    between atoms: C_21  and  C_23
REMARK    7  A    between atoms: C_23  and  N_24
REMARK                            x       y       z     vdW  Elec       q    Type
REMARK                         _______ _______ _______ _____ _____    ______ ____
ROOT
ATOM      1  N   UNL     1       9.591   1.009  22.634  0.00  0.00    +0.000 NA
ATOM      2  C   UNL     1      10.396   0.255  23.506  0.00  0.00    +0.000 C 
ATOM      3  C   UNL     1       9.630  -0.948  24.067  0.00  0.00    +0.000 C 
ATOM      4  N   UNL     1       9.212  -1.748  22.896  0.00  0.00    +0.000 N 
ATOM      5  C   UNL     1       9.653  -1.184  21.597  0.00  0.00    +0.000 C 
ATOM      6  C   UNL     1       9.111   0.257  21.556  0.00  0.00    +0.000 C 
ATOM      7  C   UNL     1       7.983  -2.320  22.928  0.00  0.00    +0.000 C 
ATOM      8  O   UNL     1       7.725  -3.246  22.186  0.00  0.00    +0.000 OA
ENDROOT
BRANCH   6   9
ATOM      9  S   UNL     1       7.337   0.182  21.478  0.00  0.00    +0.000 S 
ATOM     10  O   UNL     1       7.006  -1.050  20.790  0.00  0.00    +0.000 OA
ATOM     11  O   UNL     1       6.821   0.297  22.808  0.00  0.00    +0.000 OA
ATOM     12  N   UNL     1       6.775   1.435  20.574  0.00  0.00    +0.000 NA
ENDBRANCH   6   9
BRANCH   1  13
ATOM     13  C   UNL     1       8.706   1.867  23.228  0.00  0.00    +0.000 C 
BRANCH  13  19
ATOM     14  C   UNL     1       9.623   3.988  24.060  0.00  0.00    +0.000 C 
ATOM     15  C   UNL     1       8.958   5.115  24.626  0.00  0.00    +0.000 C 
ATOM     16  F   UNL     1       8.729   5.112  25.974  0.00  0.00    +0.000 F 
ATOM     17  C   UNL     1       7.522   5.124  24.044  0.00  0.00    +0.000 C 
ATOM     18  C   UNL     1       7.427   3.998  23.129  0.00  0.00    +0.000 C 
ATOM     19  C   UNL     1       8.752   3.311  22.846  0.00  0.00    +0.000 C 
ATOM     20  F   UNL     1       6.675   4.322  22.069  0.00  0.00    +0.000 F 
BRANCH  14  21
ATOM     21  N   UNL     1      10.948   4.033  23.551  0.00  0.00    +0.000 NA
BRANCH  21  23
ATOM     22  C   UNL     1      13.044   5.166  23.087  0.00  0.00    +0.000 C 
ATOM     23  C   UNL     1      11.595   5.327  23.532  0.00  0.00    +0.000 C 
ENDBRANCH  21  23
ENDBRANCH  14  21
ENDBRANCH  13  19
ENDBRANCH   1  13
BRANCH   7  24
ATOM     24  C   UNL     1       7.054  -1.874  24.015  0.00  0.00    +0.000 C 
BRANCH  24  25
ATOM     25  N   UNL     1       6.674  -2.853  24.908  0.00  0.00    +0.000 NA
ATOM     26  C   UNL     1       7.527  -3.870  25.184  0.00  0.00    +0.000 C 
ATOM     27  C   UNL     1       7.184  -5.218  24.595  0.00  0.00    +0.000 C 
ATOM     28  N   UNL     1       5.762  -5.260  24.263  0.00  0.00    +0.000 N 
ATOM     29  C   UNL     1       4.853  -4.468  25.089  0.00  0.00    +0.000 C 
ATOM     30  C   UNL     1       5.320  -3.026  25.095  0.00  0.00    +0.000 C 
ATOM     31  C   UNL     1       5.398  -5.563  23.000  0.00  0.00    +0.000 C 
ATOM     32  O   UNL     1       4.266  -5.400  22.606  0.00  0.00    +0.000 OA
ATOM     33  C   UNL     1       6.465  -6.186  22.129  0.00  0.00    +0.000 C 
ENDBRANCH  24  25
ENDBRANCH   7  24
TORSDOF 7
ENDMDL
MODEL 4
REMARK VINA RESULT:      -7.1      2.345      3.787
REMARK  Name = 
REMARK  7 active torsions:
REMARK  status: ('A' for Active; 'I' for Inactive)
REMARK    1  A    between atoms: C_2  and  N_3
REMARK    2  A    between atoms: N_3  and  C_4
REMARK    3  A    between atoms: C_9  and  C_10
REMARK    4  A    between atoms: C_10  and  N_11
REMARK    5  A    between atoms: C_16  and  S_17
REMARK    6  A    between atoms: C_21  and  C_23
REMARK    7  A    between atoms: C_23  and  N_24
REMARK                            x       y       z     vdW  Elec       q    Type
REMARK                         _______ _______ _______ _____ _____    ______ ____
ROOT
ATOM      1  N   UNL     1       8.208   0.710  23.623  0.00  0.00    +0.000 NA
ATOM      2  C   UNL     1       7.442   1.104  24.732  0.00  0.00    +0.000 C 
ATOM      3  C   UNL     1       6.950  -0.112  25.527  0.00  0.00    +0.000 C 
ATOM      4  N   UNL     1       8.165  -0.843  25.946  0.00  0.00    +0.000 N 
ATOM      5  C   UNL     1       9.430  -0.204  25.510  0.00  0.00    +0.000 C 
ATOM      6  C   UNL     1       9.324  -0.056  23.981  0.00  0.00    +0.000 C 
ATOM      7  C   UNL     1       8.126  -2.198  25.923  0.00  0.00    +0.000 C 
ATOM      8  O   UNL     1       8.931  -2.840  26.567  0.00  0.00    +0.000 OA
ENDROOT
BRANCH   6   9
ATOM      9  S   UNL     1       9.327  -1.682  23.264  0.00  0.00    +0.000 S 
ATOM     10  O   UNL     1      10.076  -2.531  24.169  0.00  0.00    +0.000 OA
ATOM     11  O   UNL     1       7.970  -2.079  23.036  0.00  0.00    +0.000 OA
ATOM     12  N   UNL     1      10.124  -1.646  21.826  0.00  0.00    +0.000 NA
ENDBRANCH   6   9
BRANCH   1  13
ATOM     13  C   UNL     1       7.504   0.295  22.525  0.00  0.00    +0.000 C 
BRANCH  13  19
ATOM     14  C   UNL     1       6.298   1.926  21.141  0.00  0.00    +0.000 C 
ATOM     15  C   UNL     1       5.656   1.760  19.879  0.00  0.00    +0.000 C 
ATOM     16  F   UNL     1       4.353   1.348  19.873  0.00  0.00    +0.000 F 
ATOM     17  C   UNL     1       6.378   0.593  19.160  0.00  0.00    +0.000 C 
ATOM     18  C   UNL     1       7.444   0.145  20.043  0.00  0.00    +0.000 C 
ATOM     19  C   UNL     1       7.678   1.045  21.244  0.00  0.00    +0.000 C 
ATOM     20  F   UNL     1       8.523  -0.205  19.330  0.00  0.00    +0.000 F 
BRANCH  14  21
ATOM     21  N   UNL     1       6.655   3.191  21.680  0.00  0.00    +0.000 NA
BRANCH  21  23
ATOM     22  C   UNL     1       4.830   2.916  23.257  0.00  0.00    +0.000 C 
ATOM     23  C   UNL     1       5.625   3.901  22.408  0.00  0.00    +0.000 C 
ENDBRANCH  21  23
ENDBRANCH  14  21
ENDBRANCH  13  19
ENDBRANCH   1  13
BRANCH   7  24
ATOM     24  C   UNL     1       6.963  -2.833  25.222  0.00  0.00    +0.000 C 
BRANCH  24  25
ATOM     25  N   UNL     1       6.866  -4.201  25.357  0.00  0.00    +0.000 NA
ATOM     26  C   UNL     1       7.801  -4.996  24.780  0.00  0.00    +0.000 C 
ATOM     27  C   UNL     1       7.371  -5.762  23.552  0.00  0.00    +0.000 C 
ATOM     28  N   UNL     1       5.914  -5.869  23.525  0.00  0.00    +0.000 N 
ATOM     29  C   UNL     1       5.218  -5.917  24.810  0.00  0.00    +0.000 C 
ATOM     30  C   UNL     1       5.614  -4.706  25.632  0.00  0.00    +0.000 C 
ATOM     31  C   UNL     1       5.249  -5.423  22.440  0.00  0.00    +0.000 C 
ATOM     32  O   UNL     1       4.048  -5.277  22.443  0.00  0.00    +0.000 OA
ATOM     33  C   UNL     1       6.079  -5.186  21.199  0.00  0.00    +0.000 C 
ENDBRANCH  24  25
ENDBRANCH   7  24
TORSDOF 7
ENDMDL
MODEL 5
REMARK VINA RESULT:      -7.1      2.732      4.158
REMARK  Name = 
REMARK  7 active torsions:
REMARK  status: ('A' for Active; 'I' for Inactive)
REMARK    1  A    between atoms: C_2  and  N_3
REMARK    2  A    between atoms: N_3  and  C_4
REMARK    3  A    between atoms: C_9  and  C_10
REMARK    4  A    between atoms: C_10  and  N_11
REMARK    5  A    between atoms: C_16  and  S_17
REMARK    6  A    between atoms: C_21  and  C_23
REMARK    7  A    between atoms: C_23  and  N_24
REMARK                            x       y       z     vdW  Elec       q    Type
REMARK                         _______ _______ _______ _____ _____    ______ ____
ROOT
ATOM      1  N   UNL     1       8.368  -3.042  22.818  0.00  0.00    +0.000 NA
ATOM      2  C   UNL     1       8.983  -3.397  24.031  0.00  0.00    +0.000 C 
ATOM      3  C   UNL     1       7.943  -3.641  25.130  0.00  0.00    +0.000 C 
ATOM      4  N   UNL     1       7.071  -4.727  24.632  0.00  0.00    +0.000 N 
ATOM      5  C   UNL     1       7.458  -5.240  23.295  0.00  0.00    +0.000 C 
ATOM      6  C   UNL     1       7.473  -4.016  22.361  0.00  0.00    +0.000 C 
ATOM      7  C   UNL     1       5.744  -4.642  24.893  0.00  0.00    +0.000 C 
ATOM      8  O   UNL     1       5.047  -5.635  24.828  0.00  0.00    +0.000 OA
ENDROOT
BRANCH   6   9
ATOM      9  S   UNL     1       5.806  -3.424  22.193  0.00  0.00    +0.000 S 
ATOM     10  O   UNL     1       4.946  -4.590  22.249  0.00  0.00    +0.000 OA
ATOM     11  O   UNL     1       5.570  -2.441  23.207  0.00  0.00    +0.000 OA
ATOM     12  N   UNL     1       5.618  -2.726  20.716  0.00  0.00    +0.000 NA
ENDBRANCH   6   9
BRANCH   1  13
ATOM     13  C   UNL     1       7.967  -1.738  22.709  0.00  0.00    +0.000 C 
BRANCH  13  19
ATOM     14  C   UNL     1       9.141   0.402  22.982  0.00  0.00    +0.000 C 
ATOM     15  C   UNL     1       8.839   1.687  22.445  0.00  0.00    +0.000 C 
ATOM     16  F   UNL     1       7.984   2.490  23.148  0.00  0.00    +0.000 F 
ATOM     17  C   UNL     1       8.064   1.449  21.125  0.00  0.00    +0.000 C 
ATOM     18  C   UNL     1       7.974   0.010  20.939  0.00  0.00    +0.000 C 
ATOM     19  C   UNL     1       8.814  -0.799  21.913  0.00  0.00    +0.000 C 
ATOM     20  F   UNL     1       8.087  -0.300  19.640  0.00  0.00    +0.000 F 
BRANCH  14  21
ATOM     21  N   UNL     1      10.409   0.051  23.517  0.00  0.00    +0.000 NA
BRANCH  21  23
ATOM     22  C   UNL     1       9.434  -0.153  25.731  0.00  0.00    +0.000 C 
ATOM     23  C   UNL     1      10.626   0.341  24.918  0.00  0.00    +0.000 C 
ENDBRANCH  21  23
ENDBRANCH  14  21
ENDBRANCH  13  19
ENDBRANCH   1  13
BRANCH   7  24
ATOM     24  C   UNL     1       5.237  -3.334  25.420  0.00  0.00    +0.000 C 
BRANCH  24  25
ATOM     25  N   UNL     1       4.334  -3.423  26.457  0.00  0.00    +0.000 NA
ATOM     26  C   UNL     1       3.054  -3.016  26.263  0.00  0.00    +0.000 C 
ATOM     27  C   UNL     1       2.654  -1.715  26.917  0.00  0.00    +0.000 C 
ATOM     28  N   UNL     1       3.569  -1.415  28.015  0.00  0.00    +0.000 N 
ATOM     29  C   UNL     1       4.159  -2.546  28.728  0.00  0.00    +0.000 C 
ATOM     30  C   UNL     1       4.857  -3.450  27.731  0.00  0.00    +0.000 C 
ATOM     31  C   UNL     1       4.220  -0.233  28.015  0.00  0.00    +0.000 C 
ATOM     32  O   UNL     1       5.146  -0.015  28.763  0.00  0.00    +0.000 OA
ATOM     33  C   UNL     1       3.679   0.827  27.083  0.00  0.00    +0.000 C 
ENDBRANCH  24  25
ENDBRANCH   7  24
TORSDOF 7
ENDMDL
MODEL 6
REMARK VINA RESULT:      -7.0      1.510      1.781
REMARK  Name = 
REMARK  7 active torsions:
REMARK  status: ('A' for Active; 'I' for Inactive)
REMARK    1  A    between atoms: C_2  and  N_3
REMARK    2  A    between atoms: N_3  and  C_4
REMARK    3  A    between atoms: C_9  and  C_10
REMARK    4  A    between atoms: C_10  and  N_11
REMARK    5  A    between atoms: C_16  and  S_17
REMARK    6  A    between atoms: C_21  and  C_23
REMARK    7  A    between atoms: C_23  and  N_24
REMARK                            x       y       z     vdW  Elec       q    Type
REMARK                         _______ _______ _______ _____ _____    ______ ____
ROOT
ATOM      1  N   UNL     1       8.509  -1.445  25.389  0.00  0.00    +0.000 NA
ATOM      2  C   UNL     1       7.934  -1.364  26.669  0.00  0.00    +0.000 C 
ATOM      3  C   UNL     1       6.805  -2.387  26.836  0.00  0.00    +0.000 C 
ATOM      4  N   UNL     1       7.419  -3.713  26.606  0.00  0.00    +0.000 N 
ATOM      5  C   UNL     1       8.873  -3.658  26.316  0.00  0.00    +0.000 C 
ATOM      6  C   UNL     1       9.028  -2.714  25.109  0.00  0.00    +0.000 C 
ATOM      7  C   UNL     1       6.695  -4.634  25.926  0.00  0.00    +0.000 C 
ATOM      8  O   UNL     1       6.981  -5.812  26.007  0.00  0.00    +0.000 OA
ENDROOT
BRANCH   6   9
ATOM      9  S   UNL     1       8.277  -3.491  23.697  0.00  0.00    +0.000 S 
ATOM     10  O   UNL     1       8.520  -4.914  23.831  0.00  0.00    +0.000 OA
ATOM     11  O   UNL     1       6.899  -3.107  23.649  0.00  0.00    +0.000 OA
ATOM     12  N   UNL     1       9.026  -2.976  22.327  0.00  0.00    +0.000 NA
ENDBRANCH   6   9
BRANCH   1  13
ATOM     13  C   UNL     1       7.819  -0.827  24.382  0.00  0.00    +0.000 C 
BRANCH  13  19
ATOM     14  C   UNL     1       7.682   0.547  22.351  0.00  0.00    +0.000 C 
ATOM     15  C   UNL     1       8.662   0.800  21.348  0.00  0.00    +0.000 C 
ATOM     16  F   UNL     1       8.748  -0.077  20.303  0.00  0.00    +0.000 F 
ATOM     17  C   UNL     1      10.046   0.646  22.027  0.00  0.00    +0.000 C 
ATOM     18  C   UNL     1       9.801   0.333  23.426  0.00  0.00    +0.000 C 
ATOM     19  C   UNL     1       8.347   0.466  23.848  0.00  0.00    +0.000 C 
ATOM     20  F   UNL     1      10.713   0.931  24.203  0.00  0.00    +0.000 F 
BRANCH  14  21
ATOM     21  N   UNL     1       6.520   1.344  22.533  0.00  0.00    +0.000 NA
BRANCH  21  23
ATOM     22  C   UNL     1       6.770   3.754  22.391  0.00  0.00    +0.000 C 
ATOM     23  C   UNL     1       6.368   2.482  21.653  0.00  0.00    +0.000 C 
ENDBRANCH  21  23
ENDBRANCH  14  21
ENDBRANCH  13  19
ENDBRANCH   1  13
BRANCH   7  24
ATOM     24  C   UNL     1       5.458  -4.150  25.232  0.00  0.00    +0.000 C 
BRANCH  24  25
ATOM     25  N   UNL     1       4.273  -4.678  25.699  0.00  0.00    +0.000 NA
ATOM     26  C   UNL     1       3.570  -4.006  26.644  0.00  0.00    +0.000 C 
ATOM     27  C   UNL     1       3.596  -4.581  28.041  0.00  0.00    +0.000 C 
ATOM     28  N   UNL     1       3.962  -5.994  27.982  0.00  0.00    +0.000 N 
ATOM     29  C   UNL     1       3.568  -6.744  26.791  0.00  0.00    +0.000 C 
ATOM     30  C   UNL     1       4.107  -6.038  25.562  0.00  0.00    +0.000 C 
ATOM     31  C   UNL     1       5.020  -6.422  28.701  0.00  0.00    +0.000 C 
ATOM     32  O   UNL     1       5.508  -7.516  28.528  0.00  0.00    +0.000 OA
ATOM     33  C   UNL     1       5.514  -5.489  29.783  0.00  0.00    +0.000 C 
ENDBRANCH  24  25
ENDBRANCH   7  24
TORSDOF 7
ENDMDL
MODEL 7
REMARK VINA RESULT:      -6.9      2.921      4.783
REMARK  Name = 
REMARK  7 active torsions:
REMARK  status: ('A' for Active; 'I' for Inactive)
REMARK    1  A    between atoms: C_2  and  N_3
REMARK    2  A    between atoms: N_3  and  C_4
REMARK    3  A    between atoms: C_9  and  C_10
REMARK    4  A    between atoms: C_10  and  N_11
REMARK    5  A    between atoms: C_16  and  S_17
REMARK    6  A    between atoms: C_21  and  C_23
REMARK    7  A    between atoms: C_23  and  N_24
REMARK                            x       y       z     vdW  Elec       q    Type
REMARK                         _______ _______ _______ _____ _____    ______ ____
ROOT
ATOM      1  N   UNL     1       8.366   2.234  23.538  0.00  0.00    +0.000 NA
ATOM      2  C   UNL     1       9.329   2.007  24.536  0.00  0.00    +0.000 C 
ATOM      3  C   UNL     1       9.667   0.516  24.652  0.00  0.00    +0.000 C 
ATOM      4  N   UNL     1      10.167   0.107  23.321  0.00  0.00    +0.000 N 
ATOM      5  C   UNL     1      10.206   1.210  22.331  0.00  0.00    +0.000 C 
ATOM      6  C   UNL     1       8.777   1.782  22.278  0.00  0.00    +0.000 C 
ATOM      7  C   UNL     1       9.806  -1.116  22.860  0.00  0.00    +0.000 C 
ATOM      8  O   UNL     1      10.443  -1.641  21.970  0.00  0.00    +0.000 OA
ENDROOT
BRANCH   6   9
ATOM      9  S   UNL     1       7.707   0.543  21.586  0.00  0.00    +0.000 S 
ATOM     10  O   UNL     1       8.507  -0.214  20.644  0.00  0.00    +0.000 OA
ATOM     11  O   UNL     1       7.144  -0.219  22.660  0.00  0.00    +0.000 OA
ATOM     12  N   UNL     1       6.493   1.272  20.751  0.00  0.00    +0.000 NA
ENDBRANCH   6   9
BRANCH   1  13
ATOM     13  C   UNL     1       7.068   1.981  23.889  0.00  0.00    +0.000 C 
BRANCH  13  19
ATOM     14  C   UNL     1       4.729   2.709  23.718  0.00  0.00    +0.000 C 
ATOM     15  C   UNL     1       4.147   3.748  22.935  0.00  0.00    +0.000 C 
ATOM     16  F   UNL     1       3.759   3.446  21.659  0.00  0.00    +0.000 F 
ATOM     17  C   UNL     1       5.254   4.807  22.705  0.00  0.00    +0.000 C 
ATOM     18  C   UNL     1       6.441   4.339  23.402  0.00  0.00    +0.000 C 
ATOM     19  C   UNL     1       6.205   3.132  24.294  0.00  0.00    +0.000 C 
ATOM     20  F   UNL     1       7.101   5.372  23.943  0.00  0.00    +0.000 F 
BRANCH  14  21
ATOM     21  N   UNL     1       4.083   2.109  24.832  0.00  0.00    +0.000 NA
BRANCH  21  23
ATOM     22  C   UNL     1       4.116   1.855  27.246  0.00  0.00    +0.000 C 
ATOM     23  C   UNL     1       4.128   2.838  26.081  0.00  0.00    +0.000 C 
ENDBRANCH  21  23
ENDBRANCH  14  21
ENDBRANCH  13  19
ENDBRANCH   1  13
BRANCH   7  24
ATOM     24  C   UNL     1       8.721  -1.831  23.606  0.00  0.00    +0.000 C 
BRANCH  24  25
ATOM     25  N   UNL     1       8.798  -3.207  23.588  0.00  0.00    +0.000 NA
ATOM     26  C   UNL     1       7.827  -3.921  22.967  0.00  0.00    +0.000 C 
ATOM     27  C   UNL     1       6.856  -4.659  23.859  0.00  0.00    +0.000 C 
ATOM     28  N   UNL     1       7.451  -4.849  25.179  0.00  0.00    +0.000 N 
ATOM     29  C   UNL     1       8.904  -4.992  25.249  0.00  0.00    +0.000 C 
ATOM     30  C   UNL     1       9.551  -3.796  24.580  0.00  0.00    +0.000 C 
ATOM     31  C   UNL     1       6.787  -4.397  26.263  0.00  0.00    +0.000 C 
ATOM     32  O   UNL     1       7.315  -4.323  27.349  0.00  0.00    +0.000 OA
ATOM     33  C   UNL     1       5.327  -4.060  26.059  0.00  0.00    +0.000 C 
ENDBRANCH  24  25
ENDBRANCH   7  24
TORSDOF 7
ENDMDL
MODEL 8
REMARK VINA RESULT:      -6.9      1.979      2.595
REMARK  Name = 
REMARK  7 active torsions:
REMARK  status: ('A' for Active; 'I' for Inactive)
REMARK    1  A    between atoms: C_2  and  N_3
REMARK    2  A    between atoms: N_3  and  C_4
REMARK    3  A    between atoms: C_9  and  C_10
REMARK    4  A    between atoms: C_10  and  N_11
REMARK    5  A    between atoms: C_16  and  S_17
REMARK    6  A    between atoms: C_21  and  C_23
REMARK    7  A    between atoms: C_23  and  N_24
REMARK                            x       y       z     vdW  Elec       q    Type
REMARK                         _______ _______ _______ _____ _____    ______ ____
ROOT
ATOM      1  N   UNL     1       8.728  -1.592  25.249  0.00  0.00    +0.000 NA
ATOM      2  C   UNL     1       8.226  -2.043  26.482  0.00  0.00    +0.000 C 
ATOM      3  C   UNL     1       6.874  -2.745  26.308  0.00  0.00    +0.000 C 
ATOM      4  N   UNL     1       7.117  -3.872  25.382  0.00  0.00    +0.000 N 
ATOM      5  C   UNL     1       8.527  -3.990  24.938  0.00  0.00    +0.000 C 
ATOM      6  C   UNL     1       8.891  -2.627  24.321  0.00  0.00    +0.000 C 
ATOM      7  C   UNL     1       6.161  -4.150  24.462  0.00  0.00    +0.000 C 
ATOM      8  O   UNL     1       6.132  -5.239  23.926  0.00  0.00    +0.000 OA
ENDROOT
BRANCH   6   9
ATOM      9  S   UNL     1       7.929  -2.411  22.842  0.00  0.00    +0.000 S 
ATOM     10  O   UNL     1       7.722  -3.734  22.288  0.00  0.00    +0.000 OA
ATOM     11  O   UNL     1       6.736  -1.695  23.179  0.00  0.00    +0.000 OA
ATOM     12  N   UNL     1       8.792  -1.533  21.752  0.00  0.00    +0.000 NA
ENDBRANCH   6   9
BRANCH   1  13
ATOM     13  C   UNL     1       8.197  -0.422  24.779  0.00  0.00    +0.000 C 
BRANCH  13  19
ATOM     14  C   UNL     1       8.367   1.800  23.748  0.00  0.00    +0.000 C 
ATOM     15  C   UNL     1       9.368   2.337  22.887  0.00  0.00    +0.000 C 
ATOM     16  F   UNL     1       9.234   2.131  21.542  0.00  0.00    +0.000 F 
ATOM     17  C   UNL     1      10.684   1.585  23.210  0.00  0.00    +0.000 C 
ATOM     18  C   UNL     1      10.386   0.649  24.282  0.00  0.00    +0.000 C 
ATOM     19  C   UNL     1       9.010   0.826  24.900  0.00  0.00    +0.000 C 
ATOM     20  F   UNL     1      11.423   0.564  25.127  0.00  0.00    +0.000 F 
BRANCH  14  21
ATOM     21  N   UNL     1       7.428   2.598  24.455  0.00  0.00    +0.000 NA
BRANCH  21  23
ATOM     22  C   UNL     1       8.053   4.676  25.544  0.00  0.00    +0.000 C 
ATOM     23  C   UNL     1       7.874   3.171  25.707  0.00  0.00    +0.000 C 
ENDBRANCH  21  23
ENDBRANCH  14  21
ENDBRANCH  13  19
ENDBRANCH   1  13
BRANCH   7  24
ATOM     24  C   UNL     1       5.075  -3.133  24.281  0.00  0.00    +0.000 C 
BRANCH  24  25
ATOM     25  N   UNL     1       3.817  -3.534  24.677  0.00  0.00    +0.000 NA
ATOM     26  C   UNL     1       3.448  -3.389  25.974  0.00  0.00    +0.000 C 
ATOM     27  C   UNL     1       3.375  -4.651  26.800  0.00  0.00    +0.000 C 
ATOM     28  N   UNL     1       3.240  -5.807  25.919  0.00  0.00    +0.000 N 
ATOM     29  C   UNL     1       2.536  -5.611  24.653  0.00  0.00    +0.000 C 
ATOM     30  C   UNL     1       3.194  -4.479  23.891  0.00  0.00    +0.000 C 
ATOM     31  C   UNL     1       4.140  -6.808  26.016  0.00  0.00    +0.000 C 
ATOM     32  O   UNL     1       4.219  -7.678  25.179  0.00  0.00    +0.000 OA
ATOM     33  C   UNL     1       4.992  -6.821  27.265  0.00  0.00    +0.000 C 
ENDBRANCH  24  25
ENDBRANCH   7  24
TORSDOF 7
ENDMDL
MODEL 9
REMARK VINA RESULT:      -6.9      3.039      5.218
REMARK  Name = 
REMARK  7 active torsions:
REMARK  status: ('A' for Active; 'I' for Inactive)
REMARK    1  A    between atoms: C_2  and  N_3
REMARK    2  A    between atoms: N_3  and  C_4
REMARK    3  A    between atoms: C_9  and  C_10
REMARK    4  A    between atoms: C_10  and  N_11
REMARK    5  A    between atoms: C_16  and  S_17
REMARK    6  A    between atoms: C_21  and  C_23
REMARK    7  A    between atoms: C_23  and  N_24
REMARK                            x       y       z     vdW  Elec       q    Type
REMARK                         _______ _______ _______ _____ _____    ______ ____
ROOT
ATOM      1  N   UNL     1       8.452  -2.268  22.308  0.00  0.00    +0.000 NA
ATOM      2  C   UNL     1       9.535  -1.742  23.033  0.00  0.00    +0.000 C 
ATOM      3  C   UNL     1       9.123  -1.389  24.467  0.00  0.00    +0.000 C 
ATOM      4  N   UNL     1       8.634  -2.648  25.071  0.00  0.00    +0.000 N 
ATOM      5  C   UNL     1       8.703  -3.816  24.160  0.00  0.00    +0.000 C 
ATOM      6  C   UNL     1       7.913  -3.417  22.900  0.00  0.00    +0.000 C 
ATOM      7  C   UNL     1       7.559  -2.577  25.894  0.00  0.00    +0.000 C 
ATOM      8  O   UNL     1       7.332  -3.479  26.675  0.00  0.00    +0.000 OA
ENDROOT
BRANCH   6   9
ATOM      9  S   UNL     1       6.202  -3.246  23.347  0.00  0.00    +0.000 S 
ATOM     10  O   UNL     1       5.955  -4.204  24.406  0.00  0.00    +0.000 OA
ATOM     11  O   UNL     1       5.958  -1.878  23.691  0.00  0.00    +0.000 OA
ATOM     12  N   UNL     1       5.257  -3.654  22.064  0.00  0.00    +0.000 NA
ENDBRANCH   6   9
BRANCH   1  13
ATOM     13  C   UNL     1       7.562  -1.355  21.813  0.00  0.00    +0.000 C 
BRANCH  13  19
ATOM     14  C   UNL     1       7.377   1.093  21.786  0.00  0.00    +0.000 C 
ATOM     15  C   UNL     1       6.735   1.954  20.848  0.00  0.00    +0.000 C 
ATOM     16  F   UNL     1       5.408   2.226  21.034  0.00  0.00    +0.000 F 
ATOM     17  C   UNL     1       6.735   1.211  19.488  0.00  0.00    +0.000 C 
ATOM     18  C   UNL     1       7.415  -0.057  19.696  0.00  0.00    +0.000 C 
ATOM     19  C   UNL     1       8.093  -0.185  21.050  0.00  0.00    +0.000 C 
ATOM     20  F   UNL     1       8.148  -0.375  18.620  0.00  0.00    +0.000 F 
BRANCH  14  21
ATOM     21  N   UNL     1       8.346   1.539  22.724  0.00  0.00    +0.000 NA
BRANCH  21  23
ATOM     22  C   UNL     1      10.456   2.612  23.259  0.00  0.00    +0.000 C 
ATOM     23  C   UNL     1       9.660   1.849  22.206  0.00  0.00    +0.000 C 
ENDBRANCH  21  23
ENDBRANCH  14  21
ENDBRANCH  13  19
ENDBRANCH   1  13
BRANCH   7  24
ATOM     24  C   UNL     1       6.796  -1.287  25.906  0.00  0.00    +0.000 C 
BRANCH  24  25
ATOM     25  N   UNL     1       6.558  -0.753  27.154  0.00  0.00    +0.000 NA
ATOM     26  C   UNL     1       5.296  -0.759  27.652  0.00  0.00    +0.000 C 
ATOM     27  C   UNL     1       4.578   0.569  27.687  0.00  0.00    +0.000 C 
ATOM     28  N   UNL     1       5.552   1.656  27.635  0.00  0.00    +0.000 N 
ATOM     29  C   UNL     1       6.863   1.414  28.235  0.00  0.00    +0.000 C 
ATOM     30  C   UNL     1       7.470   0.172  27.614  0.00  0.00    +0.000 C 
ATOM     31  C   UNL     1       5.441   2.583  26.662  0.00  0.00    +0.000 C 
ATOM     32  O   UNL     1       6.329   3.371  26.428  0.00  0.00    +0.000 OA
ATOM     33  C   UNL     1       4.119   2.629  25.930  0.00  0.00    +0.000 C 
ENDBRANCH  24  25
ENDBRANCH   7  24
TORSDOF 7
ENDMDL
