MODEL 1
REMARK VINA RESULT:      -7.3      0.000      0.000
REMARK  Name = 
REMARK  2 active torsions:
REMARK  status: ('A' for Active; 'I' for Inactive)
REMARK    1  A    between atoms: N_5  and  C_8
REMARK    2  A    between atoms: C_14  and  C_21
REMARK                            x       y       z     vdW  Elec       q    Type
REMARK                         _______ _______ _______ _____ _____    ______ ____
ROOT
ATOM      1  C   UNL     1       7.589  -2.288  22.379  0.00  0.00    +0.000 C 
ATOM      2  C   UNL     1       6.372  -1.529  21.842  0.00  0.00    +0.000 C 
ATOM      3  C   UNL     1       8.900  -1.482  22.098  0.00  0.00    +0.000 C 
ATOM      4  C   UNL     1       9.353  -0.919  23.670  0.00  0.00    +0.000 C 
ATOM      5  C   UNL     1       7.915  -0.929  24.200  0.00  0.00    +0.000 C 
ATOM      6  C   UNL     1       7.751  -2.351  23.758  0.00  0.00    +0.000 C 
ATOM      7  C   UNL     1       6.199  -2.590  24.454  0.00  0.00    +0.000 C 
ATOM      8  C   UNL     1       6.300  -2.337  25.798  0.00  0.00    +0.000 C 
ATOM      9  N   UNL     1       6.401  -1.093  26.109  0.00  0.00    +0.000 NA
ATOM     10  C   UNL     1       7.748  -0.743  25.618  0.00  0.00    +0.000 C 
ATOM     11  C   UNL     1       8.789  -1.208  26.566  0.00  0.00    +0.000 C 
ATOM     12  C   UNL     1       7.043   0.050  23.452  0.00  0.00    +0.000 C 
ATOM     13  C   UNL     1       7.754   0.758  22.356  0.00  0.00    +0.000 C 
ATOM     14  C   UNL     1       8.627  -0.137  21.534  0.00  0.00    +0.000 C 
ATOM     15  C   UNL     1       8.337  -0.152  20.077  0.00  0.00    +0.000 C 
ATOM     16  O   UNL     1       9.967   0.481  21.669  0.00  0.00    +0.000 OA
ENDROOT
BRANCH   1  21
ATOM     17  O   UNL     1       4.642  -6.130  23.226  0.00  0.00    +0.000 OA
ATOM     18  C   UNL     1       5.406  -5.081  23.615  0.00  0.00    +0.000 C 
ATOM     19  C   UNL     1       5.054  -3.829  22.845  0.00  0.00    +0.000 C 
ATOM     20  C   UNL     1       5.998  -3.620  21.794  0.00  0.00    +0.000 C 
ATOM     21  N   UNL     1       7.038  -3.408  22.963  0.00  0.00    +0.000 NA
ATOM     22  C   UNL     1       7.694  -4.671  22.681  0.00  0.00    +0.000 C 
ATOM     23  C   UNL     1       6.853  -5.447  23.606  0.00  0.00    +0.000 C 
ENDBRANCH   1  21
BRANCH   6  24
ATOM     24  C   UNL     1       8.643  -3.147  24.579  0.00  0.00    +0.000 C 
ATOM     25  O   UNL     1       8.422  -3.710  25.586  0.00  0.00    +0.000 OA
ATOM     26  O   UNL     1       9.836  -3.140  23.981  0.00  0.00    +0.000 OA
ENDBRANCH   6  24
TORSDOF 2
ENDMDL
MODEL 2
REMARK VINA RESULT:      -7.3      2.755      5.222
REMARK  Name = 
REMARK  2 active torsions:
REMARK  status: ('A' for Active; 'I' for Inactive)
REMARK    1  A    between atoms: N_5  and  C_8
REMARK    2  A    between atoms: C_14  and  C_21
REMARK                            x       y       z     vdW  Elec       q    Type
REMARK                         _______ _______ _______ _____ _____    ______ ____
ROOT
ATOM      1  C   UNL     1       6.452  -3.945  25.039  0.00  0.00    +0.000 C 
ATOM      2  C   UNL     1       7.717  -4.780  24.822  0.00  0.00    +0.000 C 
ATOM      3  C   UNL     1       6.195  -3.016  23.806  0.00  0.00    +0.000 C 
ATOM      4  C   UNL     1       4.820  -3.745  23.052  0.00  0.00    +0.000 C 
ATOM      5  C   UNL     1       5.140  -5.145  23.587  0.00  0.00    +0.000 C 
ATOM      6  C   UNL     1       5.229  -4.602  24.981  0.00  0.00    +0.000 C 
ATOM      7  C   UNL     1       5.417  -6.119  25.766  0.00  0.00    +0.000 C 
ATOM      8  C   UNL     1       4.333  -6.894  25.441  0.00  0.00    +0.000 C 
ATOM      9  N   UNL     1       4.338  -7.357  24.241  0.00  0.00    +0.000 NA
ATOM     10  C   UNL     1       4.119  -6.148  23.424  0.00  0.00    +0.000 C 
ATOM     11  C   UNL     1       2.686  -5.770  23.420  0.00  0.00    +0.000 C 
ATOM     12  C   UNL     1       6.451  -5.659  23.045  0.00  0.00    +0.000 C 
ATOM     13  C   UNL     1       7.147  -4.687  22.162  0.00  0.00    +0.000 C 
ATOM     14  C   UNL     1       7.135  -3.286  22.689  0.00  0.00    +0.000 C 
ATOM     15  C   UNL     1       8.469  -2.658  22.871  0.00  0.00    +0.000 C 
ATOM     16  O   UNL     1       6.477  -2.523  21.602  0.00  0.00    +0.000 OA
ENDROOT
BRANCH   1  21
ATOM     17  O   UNL     1       6.344  -5.534  29.689  0.00  0.00    +0.000 OA
ATOM     18  C   UNL     1       5.898  -5.501  28.409  0.00  0.00    +0.000 C 
ATOM     19  C   UNL     1       7.034  -5.670  27.427  0.00  0.00    +0.000 C 
ATOM     20  C   UNL     1       7.425  -4.398  26.908  0.00  0.00    +0.000 C 
ATOM     21  N   UNL     1       5.985  -4.378  26.260  0.00  0.00    +0.000 NA
ATOM     22  C   UNL     1       5.526  -3.352  27.176  0.00  0.00    +0.000 C 
ATOM     23  C   UNL     1       5.032  -4.307  28.182  0.00  0.00    +0.000 C 
ENDBRANCH   1  21
BRANCH   6  24
ATOM     24  C   UNL     1       3.893  -4.168  25.344  0.00  0.00    +0.000 C 
ATOM     25  O   UNL     1       3.049  -4.758  25.909  0.00  0.00    +0.000 OA
ATOM     26  O   UNL     1       3.757  -2.915  24.908  0.00  0.00    +0.000 OA
ENDBRANCH   6  24
TORSDOF 2
ENDMDL
MODEL 3
REMARK VINA RESULT:      -7.0      1.879      3.905
REMARK  Name = 
REMARK  2 active torsions:
REMARK  status: ('A' for Active; 'I' for Inactive)
REMARK    1  A    between atoms: N_5  and  C_8
REMARK    2  A    between atoms: C_14  and  C_21
REMARK                            x       y       z     vdW  Elec       q    Type
REMARK                         _______ _______ _______ _____ _____    ______ ____
ROOT
ATOM      1  C   UNL     1       8.109  -2.088  25.133  0.00  0.00    +0.000 C 
ATOM      2  C   UNL     1       9.567  -2.538  25.002  0.00  0.00    +0.000 C 
ATOM      3  C   UNL     1       7.924  -0.659  24.525  0.00  0.00    +0.000 C 
ATOM      4  C   UNL     1       7.035  -0.968  23.073  0.00  0.00    +0.000 C 
ATOM      5  C   UNL     1       7.582  -2.391  22.920  0.00  0.00    +0.000 C 
ATOM      6  C   UNL     1       7.167  -2.713  24.323  0.00  0.00    +0.000 C 
ATOM      7  C   UNL     1       7.561  -4.383  24.262  0.00  0.00    +0.000 C 
ATOM      8  C   UNL     1       6.849  -4.943  23.231  0.00  0.00    +0.000 C 
ATOM      9  N   UNL     1       7.281  -4.655  22.055  0.00  0.00    +0.000 NA
ATOM     10  C   UNL     1       6.950  -3.222  21.928  0.00  0.00    +0.000 C 
ATOM     11  C   UNL     1       5.516  -3.042  21.597  0.00  0.00    +0.000 C 
ATOM     12  C   UNL     1       9.076  -2.390  22.707  0.00  0.00    +0.000 C 
ATOM     13  C   UNL     1       9.677  -1.031  22.739  0.00  0.00    +0.000 C 
ATOM     14  C   UNL     1       9.149  -0.171  23.845  0.00  0.00    +0.000 C 
ATOM     15  C   UNL     1      10.170   0.371  24.778  0.00  0.00    +0.000 C 
ATOM     16  O   UNL     1       8.601   1.004  23.126  0.00  0.00    +0.000 OA
ENDROOT
BRANCH   1  21
ATOM     17  O   UNL     1       7.292  -6.018  27.970  0.00  0.00    +0.000 OA
ATOM     18  C   UNL     1       7.178  -5.310  26.821  0.00  0.00    +0.000 C 
ATOM     19  C   UNL     1       8.522  -4.800  26.354  0.00  0.00    +0.000 C 
ATOM     20  C   UNL     1       8.680  -3.429  26.721  0.00  0.00    +0.000 C 
ATOM     21  N   UNL     1       7.489  -3.171  25.718  0.00  0.00    +0.000 NA
ATOM     22  C   UNL     1       6.568  -2.879  26.800  0.00  0.00    +0.000 C 
ATOM     23  C   UNL     1       6.111  -4.272  26.942  0.00  0.00    +0.000 C 
ENDBRANCH   1  21
BRANCH   6  24
ATOM     24  C   UNL     1       5.718  -2.682  24.346  0.00  0.00    +0.000 C 
ATOM     25  O   UNL     1       4.954  -3.563  24.203  0.00  0.00    +0.000 OA
ATOM     26  O   UNL     1       5.356  -1.416  24.565  0.00  0.00    +0.000 OA
ENDBRANCH   6  24
TORSDOF 2
ENDMDL
MODEL 4
REMARK VINA RESULT:      -7.0      1.978      3.028
REMARK  Name = 
REMARK  2 active torsions:
REMARK  status: ('A' for Active; 'I' for Inactive)
REMARK    1  A    between atoms: N_5  and  C_8
REMARK    2  A    between atoms: C_14  and  C_21
REMARK                            x       y       z     vdW  Elec       q    Type
REMARK                         _______ _______ _______ _____ _____    ______ ____
ROOT
ATOM      1  C   UNL     1       7.692  -1.368  22.547  0.00  0.00    +0.000 C 
ATOM      2  C   UNL     1       6.210  -1.042  22.749  0.00  0.00    +0.000 C 
ATOM      3  C   UNL     1       8.149  -0.956  21.108  0.00  0.00    +0.000 C 
ATOM      4  C   UNL     1       9.144   0.428  21.399  0.00  0.00    +0.000 C 
ATOM      5  C   UNL     1       8.420   0.804  22.696  0.00  0.00    +0.000 C 
ATOM      6  C   UNL     1       8.621  -0.584  23.222  0.00  0.00    +0.000 C 
ATOM      7  C   UNL     1       8.001  -0.285  24.796  0.00  0.00    +0.000 C 
ATOM      8  C   UNL     1       8.740   0.731  25.349  0.00  0.00    +0.000 C 
ATOM      9  N   UNL     1       8.491   1.901  24.877  0.00  0.00    +0.000 NA
ATOM     10  C   UNL     1       9.036   1.822  23.507  0.00  0.00    +0.000 C 
ATOM     11  C   UNL     1      10.509   1.988  23.519  0.00  0.00    +0.000 C 
ATOM     12  C   UNL     1       6.976   1.160  22.441  0.00  0.00    +0.000 C 
ATOM     13  C   UNL     1       6.576   1.024  21.016  0.00  0.00    +0.000 C 
ATOM     14  C   UNL     1       7.092  -0.223  20.367  0.00  0.00    +0.000 C 
ATOM     15  C   UNL     1       6.058  -1.110  19.774  0.00  0.00    +0.000 C 
ATOM     16  O   UNL     1       7.881   0.293  19.224  0.00  0.00    +0.000 OA
ENDROOT
BRANCH   1  21
ATOM     17  O   UNL     1       7.610  -3.785  26.826  0.00  0.00    +0.000 OA
ATOM     18  C   UNL     1       7.952  -2.743  26.030  0.00  0.00    +0.000 C 
ATOM     19  C   UNL     1       6.756  -2.215  25.271  0.00  0.00    +0.000 C 
ATOM     20  C   UNL     1       6.760  -2.725  23.937  0.00  0.00    +0.000 C 
ATOM     21  N   UNL     1       8.080  -1.876  23.767  0.00  0.00    +0.000 NA
ATOM     22  C   UNL     1       8.908  -3.066  23.736  0.00  0.00    +0.000 C 
ATOM     23  C   UNL     1       9.139  -3.085  25.190  0.00  0.00    +0.000 C 
ENDBRANCH   1  21
BRANCH   6  24
ATOM     24  C   UNL     1      10.048  -0.752  23.419  0.00  0.00    +0.000 C 
ATOM     25  O   UNL     1      10.705  -0.483  24.355  0.00  0.00    +0.000 OA
ATOM     26  O   UNL     1      10.537  -1.291  22.301  0.00  0.00    +0.000 OA
ENDBRANCH   6  24
TORSDOF 2
ENDMDL
MODEL 5
REMARK VINA RESULT:      -6.9      3.132      5.548
REMARK  Name = 
REMARK  2 active torsions:
REMARK  status: ('A' for Active; 'I' for Inactive)
REMARK    1  A    between atoms: N_5  and  C_8
REMARK    2  A    between atoms: C_14  and  C_21
REMARK                            x       y       z     vdW  Elec       q    Type
REMARK                         _______ _______ _______ _____ _____    ______ ____
ROOT
ATOM      1  C   UNL     1       7.368   1.597  22.677  0.00  0.00    +0.000 C 
ATOM      2  C   UNL     1       8.159   2.324  21.586  0.00  0.00    +0.000 C 
ATOM      3  C   UNL     1       6.617   0.363  22.074  0.00  0.00    +0.000 C 
ATOM      4  C   UNL     1       7.505  -0.978  22.711  0.00  0.00    +0.000 C 
ATOM      5  C   UNL     1       8.807  -0.183  22.849  0.00  0.00    +0.000 C 
ATOM      6  C   UNL     1       8.088   0.878  23.624  0.00  0.00    +0.000 C 
ATOM      7  C   UNL     1       9.481   1.800  24.026  0.00  0.00    +0.000 C 
ATOM      8  C   UNL     1      10.346   0.977  24.702  0.00  0.00    +0.000 C 
ATOM      9  N   UNL     1      10.956   0.113  23.970  0.00  0.00    +0.000 NA
ATOM     10  C   UNL     1       9.873  -0.812  23.585  0.00  0.00    +0.000 C 
ATOM     11  C   UNL     1       9.571  -1.755  24.689  0.00  0.00    +0.000 C 
ATOM     12  C   UNL     1       9.319   0.279  21.506  0.00  0.00    +0.000 C 
ATOM     13  C   UNL     1       8.433  -0.098  20.374  0.00  0.00    +0.000 C 
ATOM     14  C   UNL     1       6.979   0.119  20.656  0.00  0.00    +0.000 C 
ATOM     15  C   UNL     1       6.267   1.005  19.700  0.00  0.00    +0.000 C 
ATOM     16  O   UNL     1       6.394  -1.229  20.464  0.00  0.00    +0.000 OA
ENDROOT
BRANCH   1  21
ATOM     17  O   UNL     1       8.358   5.331  25.715  0.00  0.00    +0.000 OA
ATOM     18  C   UNL     1       8.510   4.061  25.268  0.00  0.00    +0.000 C 
ATOM     19  C   UNL     1       8.745   4.029  23.775  0.00  0.00    +0.000 C 
ATOM     20  C   UNL     1       7.531   3.705  23.096  0.00  0.00    +0.000 C 
ATOM     21  N   UNL     1       7.666   2.307  23.819  0.00  0.00    +0.000 NA
ATOM     22  C   UNL     1       6.556   2.597  24.706  0.00  0.00    +0.000 C 
ATOM     23  C   UNL     1       7.399   3.192  25.756  0.00  0.00    +0.000 C 
ENDBRANCH   1  21
BRANCH   6  24
ATOM     24  C   UNL     1       7.680   0.273  24.877  0.00  0.00    +0.000 C 
ATOM     25  O   UNL     1       8.226   0.278  25.917  0.00  0.00    +0.000 OA
ATOM     26  O   UNL     1       6.512  -0.333  24.656  0.00  0.00    +0.000 OA
ENDBRANCH   6  24
TORSDOF 2
ENDMDL
MODEL 6
REMARK VINA RESULT:      -6.9      2.067      4.810
REMARK  Name = 
REMARK  2 active torsions:
REMARK  status: ('A' for Active; 'I' for Inactive)
REMARK    1  A    between atoms: N_5  and  C_8
REMARK    2  A    between atoms: C_14  and  C_21
REMARK                            x       y       z     vdW  Elec       q    Type
REMARK                         _______ _______ _______ _____ _____    ______ ____
ROOT
ATOM      1  C   UNL     1       7.734  -2.138  25.431  0.00  0.00    +0.000 C 
ATOM      2  C   UNL     1       6.491  -3.010  25.234  0.00  0.00    +0.000 C 
ATOM      3  C   UNL     1       9.026  -3.020  25.418  0.00  0.00    +0.000 C 
ATOM      4  C   UNL     1       9.758  -2.612  23.905  0.00  0.00    +0.000 C 
ATOM      5  C   UNL     1       8.427  -2.238  23.245  0.00  0.00    +0.000 C 
ATOM      6  C   UNL     1       8.113  -1.311  24.379  0.00  0.00    +0.000 C 
ATOM      7  C   UNL     1       6.683  -0.649  23.697  0.00  0.00    +0.000 C 
ATOM      8  C   UNL     1       7.014  -0.099  22.484  0.00  0.00    +0.000 C 
ATOM      9  N   UNL     1       7.235  -0.951  21.546  0.00  0.00    +0.000 NA
ATOM     10  C   UNL     1       8.503  -1.578  21.967  0.00  0.00    +0.000 C 
ATOM     11  C   UNL     1       9.655  -0.706  21.637  0.00  0.00    +0.000 C 
ATOM     12  C   UNL     1       7.502  -3.427  23.151  0.00  0.00    +0.000 C 
ATOM     13  C   UNL     1       8.066  -4.663  23.752  0.00  0.00    +0.000 C 
ATOM     14  C   UNL     1       8.742  -4.433  25.067  0.00  0.00    +0.000 C 
ATOM     15  C   UNL     1       8.220  -5.234  26.205  0.00  0.00    +0.000 C 
ATOM     16  O   UNL     1      10.119  -4.927  24.830  0.00  0.00    +0.000 OA
ENDROOT
BRANCH   1  21
ATOM     17  O   UNL     1       4.776   1.645  26.482  0.00  0.00    +0.000 OA
ATOM     18  C   UNL     1       5.626   0.959  25.681  0.00  0.00    +0.000 C 
ATOM     19  C   UNL     1       5.225  -0.493  25.567  0.00  0.00    +0.000 C 
ATOM     20  C   UNL     1       6.026  -1.292  26.439  0.00  0.00    +0.000 C 
ATOM     21  N   UNL     1       7.222  -0.860  25.503  0.00  0.00    +0.000 NA
ATOM     22  C   UNL     1       7.783   0.002  26.525  0.00  0.00    +0.000 C 
ATOM     23  C   UNL     1       7.044   1.198  26.086  0.00  0.00    +0.000 C 
ENDBRANCH   1  21
BRANCH   6  24
ATOM     24  C   UNL     1       9.080  -0.232  24.314  0.00  0.00    +0.000 C 
ATOM     25  O   UNL     1       8.984   0.822  23.804  0.00  0.00    +0.000 OA
ATOM     26  O   UNL     1      10.171  -0.644  24.962  0.00  0.00    +0.000 OA
ENDBRANCH   6  24
TORSDOF 2
ENDMDL
MODEL 7
REMARK VINA RESULT:      -6.9      1.693      4.550
REMARK  Name = 
REMARK  2 active torsions:
REMARK  status: ('A' for Active; 'I' for Inactive)
REMARK    1  A    between atoms: N_5  and  C_8
REMARK    2  A    between atoms: C_14  and  C_21
REMARK                            x       y       z     vdW  Elec       q    Type
REMARK                         _______ _______ _______ _____ _____    ______ ____
ROOT
ATOM      1  C   UNL     1       7.085  -2.977  24.748  0.00  0.00    +0.000 C 
ATOM      2  C   UNL     1       5.565  -2.794  24.714  0.00  0.00    +0.000 C 
ATOM      3  C   UNL     1       7.503  -4.223  23.900  0.00  0.00    +0.000 C 
ATOM      4  C   UNL     1       8.255  -3.513  22.513  0.00  0.00    +0.000 C 
ATOM      5  C   UNL     1       7.450  -2.213  22.614  0.00  0.00    +0.000 C 
ATOM      6  C   UNL     1       7.859  -2.059  24.047  0.00  0.00    +0.000 C 
ATOM      7  C   UNL     1       7.163  -0.506  24.280  0.00  0.00    +0.000 C 
ATOM      8  C   UNL     1       7.714   0.342  23.353  0.00  0.00    +0.000 C 
ATOM      9  N   UNL     1       7.291   0.179  22.150  0.00  0.00    +0.000 NA
ATOM     10  C   UNL     1       7.874  -1.124  21.773  0.00  0.00    +0.000 C 
ATOM     11  C   UNL     1       9.300  -0.972  21.399  0.00  0.00    +0.000 C 
ATOM     12  C   UNL     1       5.973  -2.461  22.422  0.00  0.00    +0.000 C 
ATOM     13  C   UNL     1       5.635  -3.894  22.226  0.00  0.00    +0.000 C 
ATOM     14  C   UNL     1       6.360  -4.813  23.160  0.00  0.00    +0.000 C 
ATOM     15  C   UNL     1       5.498  -5.685  23.998  0.00  0.00    +0.000 C 
ATOM     16  O   UNL     1       7.082  -5.725  22.243  0.00  0.00    +0.000 OA
ENDROOT
BRANCH   1  21
ATOM     17  O   UNL     1       7.309   0.482  28.234  0.00  0.00    +0.000 OA
ATOM     18  C   UNL     1       7.483   0.022  26.971  0.00  0.00    +0.000 C 
ATOM     19  C   UNL     1       6.235  -0.659  26.458  0.00  0.00    +0.000 C 
ATOM     20  C   UNL     1       6.370  -2.076  26.571  0.00  0.00    +0.000 C 
ATOM     21  N   UNL     1       7.521  -1.910  25.504  0.00  0.00    +0.000 NA
ATOM     22  C   UNL     1       8.549  -2.193  26.487  0.00  0.00    +0.000 C 
ATOM     23  C   UNL     1       8.736  -0.783  26.868  0.00  0.00    +0.000 C 
ENDBRANCH   1  21
BRANCH   6  24
ATOM     24  C   UNL     1       9.290  -1.819  24.047  0.00  0.00    +0.000 C 
ATOM     25  O   UNL     1       9.872  -0.800  24.101  0.00  0.00    +0.000 OA
ATOM     26  O   UNL     1       9.886  -3.010  23.968  0.00  0.00    +0.000 OA
ENDBRANCH   6  24
TORSDOF 2
ENDMDL
MODEL 8
REMARK VINA RESULT:      -6.8      2.217      5.559
REMARK  Name = 
REMARK  2 active torsions:
REMARK  status: ('A' for Active; 'I' for Inactive)
REMARK    1  A    between atoms: N_5  and  C_8
REMARK    2  A    between atoms: C_14  and  C_21
REMARK                            x       y       z     vdW  Elec       q    Type
REMARK                         _______ _______ _______ _____ _____    ______ ____
ROOT
ATOM      1  C   UNL     1       8.390  -0.482  24.292  0.00  0.00    +0.000 C 
ATOM      2  C   UNL     1       7.023  -0.592  24.972  0.00  0.00    +0.000 C 
ATOM      3  C   UNL     1       8.929  -1.904  23.921  0.00  0.00    +0.000 C 
ATOM      4  C   UNL     1       8.781  -1.937  22.198  0.00  0.00    +0.000 C 
ATOM      5  C   UNL     1       7.623  -0.933  22.176  0.00  0.00    +0.000 C 
ATOM      6  C   UNL     1       8.426   0.027  22.999  0.00  0.00    +0.000 C 
ATOM      7  C   UNL     1       7.307   1.328  22.921  0.00  0.00    +0.000 C 
ATOM      8  C   UNL     1       7.102   1.624  21.598  0.00  0.00    +0.000 C 
ATOM      9  N   UNL     1       6.374   0.777  20.960  0.00  0.00    +0.000 NA
ATOM     10  C   UNL     1       7.245  -0.412  20.887  0.00  0.00    +0.000 C 
ATOM     11  C   UNL     1       8.254  -0.259  19.812  0.00  0.00    +0.000 C 
ATOM     12  C   UNL     1       6.405  -1.477  22.882  0.00  0.00    +0.000 C 
ATOM     13  C   UNL     1       6.616  -2.825  23.471  0.00  0.00    +0.000 C 
ATOM     14  C   UNL     1       7.929  -2.971  24.175  0.00  0.00    +0.000 C 
ATOM     15  C   UNL     1       7.850  -3.384  25.599  0.00  0.00    +0.000 C 
ATOM     16  O   UNL     1       8.569  -4.104  23.464  0.00  0.00    +0.000 OA
ENDROOT
BRANCH   1  21
ATOM     17  O   UNL     1       8.461   4.289  25.471  0.00  0.00    +0.000 OA
ATOM     18  C   UNL     1       8.339   3.259  24.599  0.00  0.00    +0.000 C 
ATOM     19  C   UNL     1       7.366   2.220  25.108  0.00  0.00    +0.000 C 
ATOM     20  C   UNL     1       8.078   1.127  25.691  0.00  0.00    +0.000 C 
ATOM     21  N   UNL     1       8.608   0.876  24.225  0.00  0.00    +0.000 NA
ATOM     22  C   UNL     1       9.941   1.332  24.570  0.00  0.00    +0.000 C 
ATOM     23  C   UNL     1       9.681   2.735  24.207  0.00  0.00    +0.000 C 
ENDBRANCH   1  21
BRANCH   6  24
ATOM     24  C   UNL     1       9.538   0.454  22.172  0.00  0.00    +0.000 C 
ATOM     25  O   UNL     1       9.649   1.425  21.520  0.00  0.00    +0.000 OA
ATOM     26  O   UNL     1      10.480  -0.486  22.266  0.00  0.00    +0.000 OA
ENDBRANCH   6  24
TORSDOF 2
ENDMDL
MODEL 9
REMARK VINA RESULT:      -6.8      1.770      2.381
REMARK  Name = 
REMARK  2 active torsions:
REMARK  status: ('A' for Active; 'I' for Inactive)
REMARK    1  A    between atoms: N_5  and  C_8
REMARK    2  A    between atoms: C_14  and  C_21
REMARK                            x       y       z     vdW  Elec       q    Type
REMARK                         _______ _______ _______ _____ _____    ______ ____
ROOT
ATOM      1  C   UNL     1       8.634  -0.768  23.597  0.00  0.00    +0.000 C 
ATOM      2  C   UNL     1       7.935  -0.480  22.266  0.00  0.00    +0.000 C 
ATOM      3  C   UNL     1       9.352   0.518  24.125  0.00  0.00    +0.000 C 
ATOM      4  C   UNL     1       8.369   0.986  25.469  0.00  0.00    +0.000 C 
ATOM      5  C   UNL     1       7.102   0.339  24.899  0.00  0.00    +0.000 C 
ATOM      6  C   UNL     1       7.832  -0.956  24.718  0.00  0.00    +0.000 C 
ATOM      7  C   UNL     1       6.468  -1.880  24.232  0.00  0.00    +0.000 C 
ATOM      8  C   UNL     1       5.532  -1.798  25.231  0.00  0.00    +0.000 C 
ATOM      9  N   UNL     1       4.917  -0.671  25.307  0.00  0.00    +0.000 NA
ATOM     10  C   UNL     1       5.971   0.244  25.786  0.00  0.00    +0.000 C 
ATOM     11  C   UNL     1       6.170   0.096  27.247  0.00  0.00    +0.000 C 
ATOM     12  C   UNL     1       6.681   0.992  23.605  0.00  0.00    +0.000 C 
ATOM     13  C   UNL     1       7.603   2.069  23.159  0.00  0.00    +0.000 C 
ATOM     14  C   UNL     1       9.050   1.713  23.299  0.00  0.00    +0.000 C 
ATOM     15  C   UNL     1       9.852   1.790  22.051  0.00  0.00    +0.000 C 
ATOM     16  O   UNL     1       9.577   2.781  24.180  0.00  0.00    +0.000 OA
ENDROOT
BRANCH   1  21
ATOM     17  O   UNL     1       7.640  -5.535  22.922  0.00  0.00    +0.000 OA
ATOM     18  C   UNL     1       7.468  -4.336  23.531  0.00  0.00    +0.000 C 
ATOM     19  C   UNL     1       7.288  -3.227  22.520  0.00  0.00    +0.000 C 
ATOM     20  C   UNL     1       8.517  -2.520  22.346  0.00  0.00    +0.000 C 
ATOM     21  N   UNL     1       8.315  -2.085  23.851  0.00  0.00    +0.000 NA
ATOM     22  C   UNL     1       9.399  -2.936  24.300  0.00  0.00    +0.000 C 
ATOM     23  C   UNL     1       8.535  -4.102  24.549  0.00  0.00    +0.000 C 
ENDBRANCH   1  21
BRANCH   6  24
ATOM     24  C   UNL     1       8.148  -1.445  26.046  0.00  0.00    +0.000 C 
ATOM     25  O   UNL     1       7.586  -2.247  26.695  0.00  0.00    +0.000 OA
ATOM     26  O   UNL     1       9.244  -0.801  26.450  0.00  0.00    +0.000 OA
ENDBRANCH   6  24
TORSDOF 2
ENDMDL
