MODEL 1
REMARK VINA RESULT:      -6.0      0.000      0.000
REMARK  Name = 
REMARK  2 active torsions:
REMARK  status: ('A' for Active; 'I' for Inactive)
REMARK    1  A    between atoms: N_7  and  C_10
REMARK    2  A    between atoms: C_10  and  C_11
REMARK                            x       y       z     vdW  Elec       q    Type
REMARK                         _______ _______ _______ _____ _____    ______ ____
ROOT
ATOM      1  C   UNL     1       8.867  -3.055  24.934  0.00  0.00    +0.000 C 
ATOM      2  C   UNL     1       8.202  -4.289  24.372  0.00  0.00    +0.000 C 
ATOM      3  O   UNL     1       8.811  -5.314  24.181  0.00  0.00    +0.000 OA
ATOM      4  N   UNL     1       6.951  -4.113  23.851  0.00  0.00    +0.000 N 
ATOM      5  C   UNL     1       6.183  -2.975  24.439  0.00  0.00    +0.000 C 
ATOM      6  C   UNL     1       6.802  -1.720  23.812  0.00  0.00    +0.000 C 
ATOM      7  N   UNL     1       7.122  -1.845  22.478  0.00  0.00    +0.000 NA
ATOM      8  C   UNL     1       6.481  -2.900  21.800  0.00  0.00    +0.000 C 
ATOM      9  C   UNL     1       6.830  -4.254  22.391  0.00  0.00    +0.000 C 
ENDROOT
BRANCH   7  10
ATOM     10  C   UNL     1       8.534  -1.848  22.228  0.00  0.00    +0.000 C 
BRANCH  10  11
ATOM     11  C   UNL     1       8.807  -0.687  21.206  0.00  0.00    +0.000 A 
ATOM     12  C   UNL     1      10.142   0.079  21.881  0.00  0.00    +0.000 A 
ATOM     13  N   UNL     1       9.797   1.375  22.029  0.00  0.00    +0.000 NA
ATOM     14  C   UNL     1       8.734   2.162  22.043  0.00  0.00    +0.000 A 
ATOM     15  C   UNL     1       7.410   1.649  21.400  0.00  0.00    +0.000 A 
ATOM     16  C   UNL     1       7.767   0.256  20.832  0.00  0.00    +0.000 A 
ATOM     17  C   UNL     1       7.393   0.330  19.298  0.00  0.00    +0.000 C 
ATOM     18  O   UNL     1       6.303   1.677  22.197  0.00  0.00    +0.000 OA
ENDBRANCH  10  11
ENDBRANCH   7  10
TORSDOF 2
ENDMDL
MODEL 2
REMARK VINA RESULT:      -5.9      1.890      5.750
REMARK  Name = 
REMARK  2 active torsions:
REMARK  status: ('A' for Active; 'I' for Inactive)
REMARK    1  A    between atoms: N_7  and  C_10
REMARK    2  A    between atoms: C_10  and  C_11
REMARK                            x       y       z     vdW  Elec       q    Type
REMARK                         _______ _______ _______ _____ _____    ______ ____
ROOT
ATOM      1  C   UNL     1       8.079   1.380  24.235  0.00  0.00    +0.000 C 
ATOM      2  C   UNL     1       8.822   1.534  22.929  0.00  0.00    +0.000 C 
ATOM      3  O   UNL     1       8.335   2.098  21.978  0.00  0.00    +0.000 OA
ATOM      4  N   UNL     1       9.954   0.783  22.790  0.00  0.00    +0.000 N 
ATOM      5  C   UNL     1      10.636   0.435  24.073  0.00  0.00    +0.000 C 
ATOM      6  C   UNL     1       9.774  -0.677  24.683  0.00  0.00    +0.000 C 
ATOM      7  N   UNL     1       9.296  -1.595  23.774  0.00  0.00    +0.000 NA
ATOM      8  C   UNL     1       9.975  -1.633  22.541  0.00  0.00    +0.000 C 
ATOM      9  C   UNL     1       9.894  -0.307  21.804  0.00  0.00    +0.000 C 
ENDROOT
BRANCH   7  10
ATOM     10  C   UNL     1       7.876  -1.523  23.584  0.00  0.00    +0.000 C 
BRANCH  10  11
ATOM     11  C   UNL     1       7.287  -2.875  24.123  0.00  0.00    +0.000 A 
ATOM     12  C   UNL     1       6.908  -2.493  25.714  0.00  0.00    +0.000 A 
ATOM     13  N   UNL     1       7.550  -3.399  26.482  0.00  0.00    +0.000 NA
ATOM     14  C   UNL     1       8.520  -4.296  26.422  0.00  0.00    +0.000 A 
ATOM     15  C   UNL     1       8.969  -4.826  25.026  0.00  0.00    +0.000 A 
ATOM     16  C   UNL     1       8.028  -4.121  24.021  0.00  0.00    +0.000 A 
ATOM     17  C   UNL     1       7.342  -5.292  23.211  0.00  0.00    +0.000 C 
ATOM     18  O   UNL     1      10.298  -4.718  24.740  0.00  0.00    +0.000 OA
ENDBRANCH  10  11
ENDBRANCH   7  10
TORSDOF 2
ENDMDL
MODEL 3
REMARK VINA RESULT:      -5.8      1.917      5.778
REMARK  Name = 
REMARK  2 active torsions:
REMARK  status: ('A' for Active; 'I' for Inactive)
REMARK    1  A    between atoms: N_7  and  C_10
REMARK    2  A    between atoms: C_10  and  C_11
REMARK                            x       y       z     vdW  Elec       q    Type
REMARK                         _______ _______ _______ _____ _____    ______ ____
ROOT
ATOM      1  C   UNL     1      10.546   0.091  24.307  0.00  0.00    +0.000 C 
ATOM      2  C   UNL     1       9.671   1.240  23.861  0.00  0.00    +0.000 C 
ATOM      3  O   UNL     1       9.389   2.153  24.599  0.00  0.00    +0.000 OA
ATOM      4  N   UNL     1       9.008   1.068  22.680  0.00  0.00    +0.000 N 
ATOM      5  C   UNL     1       9.673   0.135  21.719  0.00  0.00    +0.000 C 
ATOM      6  C   UNL     1       9.389  -1.265  22.275  0.00  0.00    +0.000 C 
ATOM      7  N   UNL     1       8.118  -1.433  22.782  0.00  0.00    +0.000 NA
ATOM      8  C   UNL     1       7.169  -0.485  22.356  0.00  0.00    +0.000 C 
ATOM      9  C   UNL     1       7.547   0.926  22.770  0.00  0.00    +0.000 C 
ENDROOT
BRANCH   7  10
ATOM     10  C   UNL     1       8.088  -1.596  24.206  0.00  0.00    +0.000 C 
BRANCH  10  11
ATOM     11  C   UNL     1       7.429  -2.994  24.480  0.00  0.00    +0.000 A 
ATOM     12  C   UNL     1       6.959  -2.862  26.088  0.00  0.00    +0.000 A 
ATOM     13  N   UNL     1       7.524  -3.903  26.732  0.00  0.00    +0.000 NA
ATOM     14  C   UNL     1       8.472  -4.815  26.583  0.00  0.00    +0.000 A 
ATOM     15  C   UNL     1       8.994  -5.128  25.148  0.00  0.00    +0.000 A 
ATOM     16  C   UNL     1       8.140  -4.234  24.219  0.00  0.00    +0.000 A 
ATOM     17  C   UNL     1       7.475  -5.232  23.188  0.00  0.00    +0.000 C 
ATOM     18  O   UNL     1      10.342  -5.025  24.963  0.00  0.00    +0.000 OA
ENDBRANCH  10  11
ENDBRANCH   7  10
TORSDOF 2
ENDMDL
MODEL 4
REMARK VINA RESULT:      -5.7      1.976      5.957
REMARK  Name = 
REMARK  2 active torsions:
REMARK  status: ('A' for Active; 'I' for Inactive)
REMARK    1  A    between atoms: N_7  and  C_10
REMARK    2  A    between atoms: C_10  and  C_11
REMARK                            x       y       z     vdW  Elec       q    Type
REMARK                         _______ _______ _______ _____ _____    ______ ____
ROOT
ATOM      1  C   UNL     1       7.447   0.761  23.946  0.00  0.00    +0.000 C 
ATOM      2  C   UNL     1       7.976   0.793  22.531  0.00  0.00    +0.000 C 
ATOM      3  O   UNL     1       7.240   0.824  21.574  0.00  0.00    +0.000 OA
ATOM      4  N   UNL     1       9.306   0.525  22.380  0.00  0.00    +0.000 N 
ATOM      5  C   UNL     1      10.151   0.856  23.567  0.00  0.00    +0.000 C 
ATOM      6  C   UNL     1       9.867  -0.267  24.573  0.00  0.00    +0.000 C 
ATOM      7  N   UNL     1       9.756  -1.522  24.013  0.00  0.00    +0.000 NA
ATOM      8  C   UNL     1      10.310  -1.660  22.726  0.00  0.00    +0.000 C 
ATOM      9  C   UNL     1       9.641  -0.745  21.716  0.00  0.00    +0.000 C 
ENDROOT
BRANCH   7  10
ATOM     10  C   UNL     1       8.425  -2.054  24.066  0.00  0.00    +0.000 C 
BRANCH  10  11
ATOM     11  C   UNL     1       8.573  -3.617  24.095  0.00  0.00    +0.000 A 
ATOM     12  C   UNL     1       7.250  -4.120  23.189  0.00  0.00    +0.000 A 
ATOM     13  N   UNL     1       6.562  -4.977  23.971  0.00  0.00    +0.000 NA
ATOM     14  C   UNL     1       6.450  -5.354  25.234  0.00  0.00    +0.000 A 
ATOM     15  C   UNL     1       7.614  -5.035  26.220  0.00  0.00    +0.000 A 
ATOM     16  C   UNL     1       8.688  -4.347  25.346  0.00  0.00    +0.000 A 
ATOM     17  C   UNL     1       9.996  -5.212  25.547  0.00  0.00    +0.000 C 
ATOM     18  O   UNL     1       7.273  -4.354  27.352  0.00  0.00    +0.000 OA
ENDBRANCH  10  11
ENDBRANCH   7  10
TORSDOF 2
ENDMDL
MODEL 5
REMARK VINA RESULT:      -5.7      1.768      2.344
REMARK  Name = 
REMARK  2 active torsions:
REMARK  status: ('A' for Active; 'I' for Inactive)
REMARK    1  A    between atoms: N_7  and  C_10
REMARK    2  A    between atoms: C_10  and  C_11
REMARK                            x       y       z     vdW  Elec       q    Type
REMARK                         _______ _______ _______ _____ _____    ______ ____
ROOT
ATOM      1  C   UNL     1       8.531  -3.355  25.287  0.00  0.00    +0.000 C 
ATOM      2  C   UNL     1       8.502  -4.758  24.728  0.00  0.00    +0.000 C 
ATOM      3  O   UNL     1       9.505  -5.422  24.612  0.00  0.00    +0.000 OA
ATOM      4  N   UNL     1       7.339  -5.140  24.123  0.00  0.00    +0.000 N 
ATOM      5  C   UNL     1       6.116  -4.442  24.621  0.00  0.00    +0.000 C 
ATOM      6  C   UNL     1       6.180  -3.045  23.990  0.00  0.00    +0.000 C 
ATOM      7  N   UNL     1       6.618  -3.027  22.684  0.00  0.00    +0.000 NA
ATOM      8  C   UNL     1       6.543  -4.257  22.004  0.00  0.00    +0.000 C 
ATOM      9  C   UNL     1       7.396  -5.326  22.664  0.00  0.00    +0.000 C 
ENDROOT
BRANCH   7  10
ATOM     10  C   UNL     1       7.909  -2.422  22.524  0.00  0.00    +0.000 C 
BRANCH  10  11
ATOM     11  C   UNL     1       7.686  -0.870  22.602  0.00  0.00    +0.000 A 
ATOM     12  C   UNL     1       7.960  -0.387  21.016  0.00  0.00    +0.000 A 
ATOM     13  N   UNL     1       8.919   0.560  21.071  0.00  0.00    +0.000 NA
ATOM     14  C   UNL     1       9.841   1.045  21.887  0.00  0.00    +0.000 A 
ATOM     15  C   UNL     1       9.720   0.758  23.414  0.00  0.00    +0.000 A 
ATOM     16  C   UNL     1       8.406  -0.045  23.557  0.00  0.00    +0.000 A 
ATOM     17  C   UNL     1       7.533   0.777  24.587  0.00  0.00    +0.000 C 
ATOM     18  O   UNL     1      10.808   0.187  24.007  0.00  0.00    +0.000 OA
ENDBRANCH  10  11
ENDBRANCH   7  10
TORSDOF 2
ENDMDL
MODEL 6
REMARK VINA RESULT:      -5.7      2.342      3.580
REMARK  Name = 
REMARK  2 active torsions:
REMARK  status: ('A' for Active; 'I' for Inactive)
REMARK    1  A    between atoms: N_7  and  C_10
REMARK    2  A    between atoms: C_10  and  C_11
REMARK                            x       y       z     vdW  Elec       q    Type
REMARK                         _______ _______ _______ _____ _____    ______ ____
ROOT
ATOM      1  C   UNL     1       4.987  -3.796  23.158  0.00  0.00    +0.000 C 
ATOM      2  C   UNL     1       5.293  -4.872  24.173  0.00  0.00    +0.000 C 
ATOM      3  O   UNL     1       4.545  -5.119  25.089  0.00  0.00    +0.000 OA
ATOM      4  N   UNL     1       6.565  -5.369  24.158  0.00  0.00    +0.000 N 
ATOM      5  C   UNL     1       7.255  -5.284  22.836  0.00  0.00    +0.000 C 
ATOM      6  C   UNL     1       7.650  -3.809  22.695  0.00  0.00    +0.000 C 
ATOM      7  N   UNL     1       8.106  -3.226  23.858  0.00  0.00    +0.000 NA
ATOM      8  C   UNL     1       8.530  -4.123  24.857  0.00  0.00    +0.000 C 
ATOM      9  C   UNL     1       7.406  -5.034  25.318  0.00  0.00    +0.000 C 
ENDROOT
BRANCH   7  10
ATOM     10  C   UNL     1       7.212  -2.238  24.390  0.00  0.00    +0.000 C 
BRANCH  10  11
ATOM     11  C   UNL     1       7.913  -0.848  24.185  0.00  0.00    +0.000 A 
ATOM     12  C   UNL     1       7.006  -0.168  22.945  0.00  0.00    +0.000 A 
ATOM     13  N   UNL     1       7.881   0.153  21.970  0.00  0.00    +0.000 NA
ATOM     14  C   UNL     1       9.122  -0.091  21.579  0.00  0.00    +0.000 A 
ATOM     15  C   UNL     1      10.137  -0.666  22.613  0.00  0.00    +0.000 A 
ATOM     16  C   UNL     1       9.341  -0.746  23.937  0.00  0.00    +0.000 A 
ATOM     17  C   UNL     1      10.184   0.098  24.974  0.00  0.00    +0.000 C 
ATOM     18  O   UNL     1      10.773  -1.818  22.255  0.00  0.00    +0.000 OA
ENDBRANCH  10  11
ENDBRANCH   7  10
TORSDOF 2
ENDMDL
MODEL 7
REMARK VINA RESULT:      -5.5      2.049      5.806
REMARK  Name = 
REMARK  2 active torsions:
REMARK  status: ('A' for Active; 'I' for Inactive)
REMARK    1  A    between atoms: N_7  and  C_10
REMARK    2  A    between atoms: C_10  and  C_11
REMARK                            x       y       z     vdW  Elec       q    Type
REMARK                         _______ _______ _______ _____ _____    ______ ____
ROOT
ATOM      1  C   UNL     1       9.050  -0.771  25.555  0.00  0.00    +0.000 C 
ATOM      2  C   UNL     1       8.643   0.413  24.710  0.00  0.00    +0.000 C 
ATOM      3  O   UNL     1       7.766   1.171  25.050  0.00  0.00    +0.000 OA
ATOM      4  N   UNL     1       9.128   0.437  23.434  0.00  0.00    +0.000 N 
ATOM      5  C   UNL     1      10.420  -0.289  23.242  0.00  0.00    +0.000 C 
ATOM      6  C   UNL     1      10.039  -1.774  23.248  0.00  0.00    +0.000 C 
ATOM      7  N   UNL     1       8.868  -2.067  22.583  0.00  0.00    +0.000 NA
ATOM      8  C   UNL     1       8.428  -1.085  21.675  0.00  0.00    +0.000 C 
ATOM      9  C   UNL     1       8.141   0.239  22.360  0.00  0.00    +0.000 C 
ENDROOT
BRANCH   7  10
ATOM     10  C   UNL     1       7.806  -2.483  23.454  0.00  0.00    +0.000 C 
BRANCH  10  11
ATOM     11  C   UNL     1       8.085  -3.988  23.806  0.00  0.00    +0.000 A 
ATOM     12  C   UNL     1       6.770  -4.769  23.110  0.00  0.00    +0.000 A 
ATOM     13  N   UNL     1       6.191  -5.483  24.097  0.00  0.00    +0.000 NA
ATOM     14  C   UNL     1       6.166  -5.584  25.417  0.00  0.00    +0.000 A 
ATOM     15  C   UNL     1       7.342  -4.975  26.239  0.00  0.00    +0.000 A 
ATOM     16  C   UNL     1       8.315  -4.418  25.174  0.00  0.00    +0.000 A 
ATOM     17  C   UNL     1       9.698  -5.123  25.475  0.00  0.00    +0.000 C 
ATOM     18  O   UNL     1       6.996  -4.090  27.218  0.00  0.00    +0.000 OA
ENDBRANCH  10  11
ENDBRANCH   7  10
TORSDOF 2
ENDMDL
MODEL 8
REMARK VINA RESULT:      -5.5      1.316      1.678
REMARK  Name = 
REMARK  2 active torsions:
REMARK  status: ('A' for Active; 'I' for Inactive)
REMARK    1  A    between atoms: N_7  and  C_10
REMARK    2  A    between atoms: C_10  and  C_11
REMARK                            x       y       z     vdW  Elec       q    Type
REMARK                         _______ _______ _______ _____ _____    ______ ____
ROOT
ATOM      1  C   UNL     1       5.724  -1.770  24.766  0.00  0.00    +0.000 C 
ATOM      2  C   UNL     1       6.105  -3.177  25.162  0.00  0.00    +0.000 C 
ATOM      3  O   UNL     1       6.670  -3.418  26.202  0.00  0.00    +0.000 OA
ATOM      4  N   UNL     1       6.016  -4.123  24.181  0.00  0.00    +0.000 N 
ATOM      5  C   UNL     1       5.013  -3.826  23.114  0.00  0.00    +0.000 C 
ATOM      6  C   UNL     1       5.675  -2.748  22.246  0.00  0.00    +0.000 C 
ATOM      7  N   UNL     1       7.022  -2.937  22.028  0.00  0.00    +0.000 NA
ATOM      8  C   UNL     1       7.494  -4.244  22.257  0.00  0.00    +0.000 C 
ATOM      9  C   UNL     1       7.290  -4.679  23.697  0.00  0.00    +0.000 C 
ENDROOT
BRANCH   7  10
ATOM     10  C   UNL     1       7.848  -1.964  22.681  0.00  0.00    +0.000 C 
BRANCH  10  11
ATOM     11  C   UNL     1       8.530  -1.123  21.543  0.00  0.00    +0.000 A 
ATOM     12  C   UNL     1      10.020  -0.744  22.220  0.00  0.00    +0.000 A 
ATOM     13  N   UNL     1      10.126   0.600  22.168  0.00  0.00    +0.000 NA
ATOM     14  C   UNL     1       9.388   1.685  21.992  0.00  0.00    +0.000 A 
ATOM     15  C   UNL     1       7.992   1.542  21.314  0.00  0.00    +0.000 A 
ATOM     16  C   UNL     1       7.880   0.041  20.965  0.00  0.00    +0.000 A 
ATOM     17  C   UNL     1       7.605   0.001  19.408  0.00  0.00    +0.000 C 
ATOM     18  O   UNL     1       6.933   2.051  22.007  0.00  0.00    +0.000 OA
ENDBRANCH  10  11
ENDBRANCH   7  10
TORSDOF 2
ENDMDL
MODEL 9
REMARK VINA RESULT:      -5.5      2.043      5.689
REMARK  Name = 
REMARK  2 active torsions:
REMARK  status: ('A' for Active; 'I' for Inactive)
REMARK    1  A    between atoms: N_7  and  C_10
REMARK    2  A    between atoms: C_10  and  C_11
REMARK                            x       y       z     vdW  Elec       q    Type
REMARK                         _______ _______ _______ _____ _____    ______ ____
ROOT
ATOM      1  C   UNL     1       8.234   1.917  24.142  0.00  0.00    +0.000 C 
ATOM      2  C   UNL     1       7.656   2.255  22.789  0.00  0.00    +0.000 C 
ATOM      3  O   UNL     1       6.500   2.575  22.649  0.00  0.00    +0.000 OA
ATOM      4  N   UNL     1       8.426   1.932  21.708  0.00  0.00    +0.000 N 
ATOM      5  C   UNL     1       9.896   1.897  21.975  0.00  0.00    +0.000 C 
ATOM      6  C   UNL     1      10.123   0.587  22.738  0.00  0.00    +0.000 C 
ATOM      7  N   UNL     1       9.383  -0.480  22.277  0.00  0.00    +0.000 NA
ATOM      8  C   UNL     1       8.870  -0.340  20.973  0.00  0.00    +0.000 C 
ATOM      9  C   UNL     1       7.925   0.843  20.856  0.00  0.00    +0.000 C 
ENDROOT
BRANCH   7  10
ATOM     10  C   UNL     1       8.365  -0.908  23.192  0.00  0.00    +0.000 C 
BRANCH  10  11
ATOM     11  C   UNL     1       9.110  -1.451  24.463  0.00  0.00    +0.000 A 
ATOM     12  C   UNL     1       9.942  -2.777  23.853  0.00  0.00    +0.000 A 
ATOM     13  N   UNL     1       9.574  -3.832  24.609  0.00  0.00    +0.000 NA
ATOM     14  C   UNL     1       8.645  -4.204  25.475  0.00  0.00    +0.000 A 
ATOM     15  C   UNL     1       7.809  -3.106  26.199  0.00  0.00    +0.000 A 
ATOM     16  C   UNL     1       8.394  -1.770  25.687  0.00  0.00    +0.000 A 
ATOM     17  C   UNL     1       8.826  -0.984  26.989  0.00  0.00    +0.000 C 
ATOM     18  O   UNL     1       6.453  -3.216  26.095  0.00  0.00    +0.000 OA
ENDBRANCH  10  11
ENDBRANCH   7  10
TORSDOF 2
ENDMDL
