MODEL 1
REMARK VINA RESULT:      -7.3      0.000      0.000
REMARK  Name = 
REMARK  9 active torsions:
REMARK  status: ('A' for Active; 'I' for Inactive)
REMARK    1  A    between atoms: C_2  and  N_3
REMARK    2  A    between atoms: N_3  and  C_4
REMARK    3  A    between atoms: N_3  and  C_30
REMARK    4  A    between atoms: C_7  and  C_28
REMARK    5  A    between atoms: C_9  and  C_10
REMARK    6  A    between atoms: C_13  and  C_26
REMARK    7  A    between atoms: C_15  and  C_16
REMARK    8  A    between atoms: N_18  and  C_19
REMARK    9  A    between atoms: C_30  and  C_31
REMARK                            x       y       z     vdW  Elec       q    Type
REMARK                         _______ _______ _______ _____ _____    ______ ____
ROOT
ATOM      1  C   UNL     1       8.598  -3.350  24.160  0.00  0.00    +0.000 A 
ATOM      2  N   UNL     1       8.516  -4.818  24.061  0.00  0.00    +0.000 NA
ATOM      3  C   UNL     1       7.679  -5.069  23.094  0.00  0.00    +0.000 A 
ATOM      4  C   UNL     1       6.947  -4.556  21.952  0.00  0.00    +0.000 A 
ATOM      5  C   UNL     1       7.073  -3.014  21.922  0.00  0.00    +0.000 A 
ATOM      6  C   UNL     1       8.254  -2.695  22.917  0.00  0.00    +0.000 A 
ENDROOT
BRANCH   1  12
ATOM      7  C   UNL     1       6.866  -2.002  25.209  0.00  0.00    +0.000 A 
ATOM      8  N   UNL     1       5.554  -2.460  25.751  0.00  0.00    +0.000 NA
ATOM      9  C   UNL     1       5.835  -3.400  26.592  0.00  0.00    +0.000 A 
ATOM     10  C   UNL     1       6.859  -4.188  27.231  0.00  0.00    +0.000 A 
ATOM     11  C   UNL     1       8.182  -3.906  26.614  0.00  0.00    +0.000 A 
ATOM     12  C   UNL     1       7.986  -2.869  25.452  0.00  0.00    +0.000 A 
BRANCH  10  13
ATOM     13  C   UNL     1       6.539  -5.442  27.198  0.00  0.00    +0.000 C 
ATOM     14  N   UNL     1       7.263  -6.023  27.877  0.00  0.00    +0.000 NA
ENDBRANCH  10  13
BRANCH   7  15
ATOM     15  N   UNL     1       6.731  -0.693  25.675  0.00  0.00    +0.000 N 
BRANCH  15  17
ATOM     16  C   UNL     1       5.136   1.064  26.191  0.00  0.00    +0.000 C 
ATOM     17  C   UNL     1       5.729   0.164  25.116  0.00  0.00    +0.000 C 
ENDBRANCH  15  17
BRANCH  15  18
ATOM     18  C   UNL     1       7.883  -0.161  26.369  0.00  0.00    +0.000 C 
BRANCH  18  19
ATOM     19  C   UNL     1       8.704   0.683  25.427  0.00  0.00    +0.000 C 
ATOM     20  O   UNL     1       8.605   1.885  25.366  0.00  0.00    +0.000 OA
ATOM     21  O   UNL     1       9.874   0.058  25.255  0.00  0.00    +0.000 OA
ENDBRANCH  18  19
ENDBRANCH  15  18
ENDBRANCH   7  15
ENDBRANCH   1  12
BRANCH   6  22
ATOM     22  C   UNL     1       9.231  -1.892  22.241  0.00  0.00    +0.000 C 
ATOM     23  O   UNL     1      10.388  -1.814  22.494  0.00  0.00    +0.000 OA
ATOM     24  N   UNL     1       8.675  -1.541  21.080  0.00  0.00    +0.000 NA
BRANCH  24  25
ATOM     25  C   UNL     1       8.745  -0.196  20.840  0.00  0.00    +0.000 A 
ATOM     26  C   UNL     1       7.699  -0.034  19.510  0.00  0.00    +0.000 A 
ATOM     27  N   UNL     1       6.692   0.747  19.987  0.00  0.00    +0.000 NA
ATOM     28  C   UNL     1       6.442   1.700  20.825  0.00  0.00    +0.000 A 
ATOM     29  C   UNL     1       7.273   1.654  22.176  0.00  0.00    +0.000 A 
ATOM     30  C   UNL     1       8.553   0.864  21.796  0.00  0.00    +0.000 A 
ATOM     31  C   UNL     1       9.746   1.848  22.072  0.00  0.00    +0.000 C 
ENDBRANCH  24  25
ENDBRANCH   6  22
BRANCH   4  32
ATOM     32  C   UNL     1       5.678  -4.852  22.124  0.00  0.00    +0.000 C 
ATOM     33  N   UNL     1       5.055  -3.868  22.227  0.00  0.00    +0.000 NA
ENDBRANCH   4  32
TORSDOF 9
ENDMDL
MODEL 2
REMARK VINA RESULT:      -7.0      2.458      6.587
REMARK  Name = 
REMARK  9 active torsions:
REMARK  status: ('A' for Active; 'I' for Inactive)
REMARK    1  A    between atoms: C_2  and  N_3
REMARK    2  A    between atoms: N_3  and  C_4
REMARK    3  A    between atoms: N_3  and  C_30
REMARK    4  A    between atoms: C_7  and  C_28
REMARK    5  A    between atoms: C_9  and  C_10
REMARK    6  A    between atoms: C_13  and  C_26
REMARK    7  A    between atoms: C_15  and  C_16
REMARK    8  A    between atoms: N_18  and  C_19
REMARK    9  A    between atoms: C_30  and  C_31
REMARK                            x       y       z     vdW  Elec       q    Type
REMARK                         _______ _______ _______ _____ _____    ______ ____
ROOT
ATOM      1  C   UNL     1       8.714  -1.342  22.449  0.00  0.00    +0.000 A 
ATOM      2  N   UNL     1      10.021  -1.453  23.123  0.00  0.00    +0.000 NA
ATOM      3  C   UNL     1       9.770  -1.437  24.403  0.00  0.00    +0.000 A 
ATOM      4  C   UNL     1       8.774  -1.554  25.451  0.00  0.00    +0.000 A 
ATOM      5  C   UNL     1       7.365  -1.552  24.812  0.00  0.00    +0.000 A 
ATOM      6  C   UNL     1       7.626  -1.811  23.279  0.00  0.00    +0.000 A 
ENDROOT
BRANCH   1  12
ATOM      7  C   UNL     1       7.242   0.469  21.763  0.00  0.00    +0.000 A 
ATOM      8  N   UNL     1       7.030   1.782  22.440  0.00  0.00    +0.000 NA
ATOM      9  C   UNL     1       8.206   2.302  22.563  0.00  0.00    +0.000 A 
ATOM     10  C   UNL     1       9.622   2.168  22.326  0.00  0.00    +0.000 A 
ATOM     11  C   UNL     1       9.928   0.808  21.810  0.00  0.00    +0.000 A 
ATOM     12  C   UNL     1       8.594  -0.017  21.739  0.00  0.00    +0.000 A 
BRANCH  10  13
ATOM     13  C   UNL     1      10.281   2.464  23.401  0.00  0.00    +0.000 C 
ATOM     14  N   UNL     1      10.652   3.550  23.317  0.00  0.00    +0.000 NA
ENDBRANCH  10  13
BRANCH   7  15
ATOM     15  N   UNL     1       6.471   0.791  20.645  0.00  0.00    +0.000 N 
BRANCH  15  17
ATOM     16  C   UNL     1       4.514   1.886  19.711  0.00  0.00    +0.000 C 
ATOM     17  C   UNL     1       5.730   2.016  20.618  0.00  0.00    +0.000 C 
ENDBRANCH  15  17
BRANCH  15  18
ATOM     18  C   UNL     1       6.127  -0.322  19.788  0.00  0.00    +0.000 C 
BRANCH  18  19
ATOM     19  C   UNL     1       6.777  -0.149  18.438  0.00  0.00    +0.000 C 
ATOM     20  O   UNL     1       7.974  -0.125  18.284  0.00  0.00    +0.000 OA
ATOM     21  O   UNL     1       5.955  -0.692  17.532  0.00  0.00    +0.000 OA
ENDBRANCH  18  19
ENDBRANCH  15  18
ENDBRANCH   7  15
ENDBRANCH   1  12
BRANCH   6  22
ATOM     22  C   UNL     1       6.838  -2.930  22.852  0.00  0.00    +0.000 C 
ATOM     23  O   UNL     1       5.760  -2.895  22.354  0.00  0.00    +0.000 OA
ATOM     24  N   UNL     1       7.677  -3.966  22.789  0.00  0.00    +0.000 NA
BRANCH  24  25
ATOM     25  C   UNL     1       7.216  -5.067  23.456  0.00  0.00    +0.000 A 
ATOM     26  C   UNL     1       8.567  -5.482  24.400  0.00  0.00    +0.000 A 
ATOM     27  N   UNL     1       8.131  -5.312  25.677  0.00  0.00    +0.000 NA
ATOM     28  C   UNL     1       7.073  -5.385  26.418  0.00  0.00    +0.000 A 
ATOM     29  C   UNL     1       5.719  -4.945  25.718  0.00  0.00    +0.000 A 
ATOM     30  C   UNL     1       5.993  -5.174  24.209  0.00  0.00    +0.000 A 
ATOM     31  C   UNL     1       4.917  -6.221  23.746  0.00  0.00    +0.000 C 
ENDBRANCH  24  25
ENDBRANCH   6  22
BRANCH   4  32
ATOM     32  C   UNL     1       8.871  -0.489  26.214  0.00  0.00    +0.000 C 
ATOM     33  N   UNL     1       8.218  -0.633  27.173  0.00  0.00    +0.000 NA
ENDBRANCH   4  32
TORSDOF 9
ENDMDL
MODEL 3
REMARK VINA RESULT:      -7.0      2.092      4.348
REMARK  Name = 
REMARK  9 active torsions:
REMARK  status: ('A' for Active; 'I' for Inactive)
REMARK    1  A    between atoms: C_2  and  N_3
REMARK    2  A    between atoms: N_3  and  C_4
REMARK    3  A    between atoms: N_3  and  C_30
REMARK    4  A    between atoms: C_7  and  C_28
REMARK    5  A    between atoms: C_9  and  C_10
REMARK    6  A    between atoms: C_13  and  C_26
REMARK    7  A    between atoms: C_15  and  C_16
REMARK    8  A    between atoms: N_18  and  C_19
REMARK    9  A    between atoms: C_30  and  C_31
REMARK                            x       y       z     vdW  Elec       q    Type
REMARK                         _______ _______ _______ _____ _____    ______ ____
ROOT
ATOM      1  C   UNL     1       7.150  -2.525  23.671  0.00  0.00    +0.000 A 
ATOM      2  N   UNL     1       6.179  -1.643  24.345  0.00  0.00    +0.000 NA
ATOM      3  C   UNL     1       6.850  -0.997  25.257  0.00  0.00    +0.000 A 
ATOM      4  C   UNL     1       8.152  -0.618  25.773  0.00  0.00    +0.000 A 
ATOM      5  C   UNL     1       9.244  -1.429  25.036  0.00  0.00    +0.000 A 
ATOM      6  C   UNL     1       8.507  -2.034  23.781  0.00  0.00    +0.000 A 
ENDROOT
BRANCH   1  12
ATOM      7  C   UNL     1       5.567  -4.122  24.599  0.00  0.00    +0.000 A 
ATOM      8  N   UNL     1       4.576  -4.959  23.864  0.00  0.00    +0.000 NA
ATOM      9  C   UNL     1       5.258  -5.605  22.976  0.00  0.00    +0.000 A 
ATOM     10  C   UNL     1       6.551  -5.868  22.397  0.00  0.00    +0.000 A 
ATOM     11  C   UNL     1       7.565  -4.940  22.965  0.00  0.00    +0.000 A 
ATOM     12  C   UNL     1       6.852  -3.972  23.974  0.00  0.00    +0.000 A 
BRANCH  10  13
ATOM     13  C   UNL     1       6.478  -5.813  21.106  0.00  0.00    +0.000 C 
ATOM     14  N   UNL     1       5.894  -4.867  20.811  0.00  0.00    +0.000 NA
ENDBRANCH  10  13
BRANCH   7  15
ATOM     15  N   UNL     1       5.326  -4.720  25.837  0.00  0.00    +0.000 N 
BRANCH  15  17
ATOM     16  C   UNL     1       3.348  -4.894  27.236  0.00  0.00    +0.000 C 
ATOM     17  C   UNL     1       4.536  -4.039  26.818  0.00  0.00    +0.000 C 
ENDBRANCH  15  17
BRANCH  15  18
ATOM     18  C   UNL     1       6.244  -5.777  26.204  0.00  0.00    +0.000 C 
BRANCH  18  19
ATOM     19  C   UNL     1       6.966  -5.409  27.475  0.00  0.00    +0.000 C 
ATOM     20  O   UNL     1       6.974  -6.116  28.454  0.00  0.00    +0.000 OA
ATOM     21  O   UNL     1       8.024  -4.667  27.126  0.00  0.00    +0.000 OA
ENDBRANCH  18  19
ENDBRANCH  15  18
ENDBRANCH   7  15
ENDBRANCH   1  12
BRANCH   6  22
ATOM     22  C   UNL     1       9.234  -1.682  22.596  0.00  0.00    +0.000 C 
ATOM     23  O   UNL     1      10.361  -1.957  22.343  0.00  0.00    +0.000 OA
ATOM     24  N   UNL     1       8.315  -1.312  21.701  0.00  0.00    +0.000 NA
BRANCH  24  25
ATOM     25  C   UNL     1       8.591  -0.103  21.122  0.00  0.00    +0.000 A 
ATOM     26  C   UNL     1       7.490  -0.088  19.828  0.00  0.00    +0.000 A 
ATOM     27  N   UNL     1       6.667   0.956  20.120  0.00  0.00    +0.000 NA
ATOM     28  C   UNL     1       6.645   2.116  20.694  0.00  0.00    +0.000 A 
ATOM     29  C   UNL     1       7.557   2.254  21.985  0.00  0.00    +0.000 A 
ATOM     30  C   UNL     1       8.653   1.176  21.780  0.00  0.00    +0.000 A 
ATOM     31  C   UNL     1      10.012   1.965  21.758  0.00  0.00    +0.000 C 
ENDBRANCH  24  25
ENDBRANCH   6  22
BRANCH   4  32
ATOM     32  C   UNL     1       8.191  -0.952  27.043  0.00  0.00    +0.000 C 
ATOM     33  N   UNL     1       7.617  -0.154  27.677  0.00  0.00    +0.000 NA
ENDBRANCH   4  32
TORSDOF 9
ENDMDL
MODEL 4
REMARK VINA RESULT:      -6.9      2.746      6.207
REMARK  Name = 
REMARK  9 active torsions:
REMARK  status: ('A' for Active; 'I' for Inactive)
REMARK    1  A    between atoms: C_2  and  N_3
REMARK    2  A    between atoms: N_3  and  C_4
REMARK    3  A    between atoms: N_3  and  C_30
REMARK    4  A    between atoms: C_7  and  C_28
REMARK    5  A    between atoms: C_9  and  C_10
REMARK    6  A    between atoms: C_13  and  C_26
REMARK    7  A    between atoms: C_15  and  C_16
REMARK    8  A    between atoms: N_18  and  C_19
REMARK    9  A    between atoms: C_30  and  C_31
REMARK                            x       y       z     vdW  Elec       q    Type
REMARK                         _______ _______ _______ _____ _____    ______ ____
ROOT
ATOM      1  C   UNL     1       6.807  -2.641  23.514  0.00  0.00    +0.000 A 
ATOM      2  N   UNL     1       7.466  -3.759  22.814  0.00  0.00    +0.000 NA
ATOM      3  C   UNL     1       7.769  -4.633  23.734  0.00  0.00    +0.000 A 
ATOM      4  C   UNL     1       7.575  -5.082  25.099  0.00  0.00    +0.000 A 
ATOM      5  C   UNL     1       6.791  -4.002  25.881  0.00  0.00    +0.000 A 
ATOM      6  C   UNL     1       6.206  -3.054  24.764  0.00  0.00    +0.000 A 
ENDROOT
BRANCH   1  12
ATOM      7  C   UNL     1       7.185  -0.461  22.504  0.00  0.00    +0.000 A 
ATOM      8  N   UNL     1       6.787   0.875  23.037  0.00  0.00    +0.000 NA
ATOM      9  C   UNL     1       7.289   0.938  24.226  0.00  0.00    +0.000 A 
ATOM     10  C   UNL     1       8.065   0.286  25.250  0.00  0.00    +0.000 A 
ATOM     11  C   UNL     1       8.351  -1.120  24.857  0.00  0.00    +0.000 A 
ATOM     12  C   UNL     1       7.671  -1.406  23.472  0.00  0.00    +0.000 A 
BRANCH  10  13
ATOM     13  C   UNL     1       7.463   0.381  26.392  0.00  0.00    +0.000 C 
ATOM     14  N   UNL     1       7.718  -0.547  27.020  0.00  0.00    +0.000 NA
ENDBRANCH  10  13
BRANCH   7  15
ATOM     15  N   UNL     1       7.914   0.056  21.432  0.00  0.00    +0.000 N 
BRANCH  15  17
ATOM     16  C   UNL     1       9.923   1.362  21.825  0.00  0.00    +0.000 C 
ATOM     17  C   UNL     1       9.344   0.005  21.450  0.00  0.00    +0.000 C 
ENDBRANCH  15  17
BRANCH  15  18
ATOM     18  C   UNL     1       7.199   0.992  20.591  0.00  0.00    +0.000 C 
BRANCH  18  19
ATOM     19  C   UNL     1       6.910   0.361  19.253  0.00  0.00    +0.000 C 
ATOM     20  O   UNL     1       7.778   0.013  18.490  0.00  0.00    +0.000 OA
ATOM     21  O   UNL     1       5.760  -0.313  19.375  0.00  0.00    +0.000 OA
ENDBRANCH  18  19
ENDBRANCH  15  18
ENDBRANCH   7  15
ENDBRANCH   1  12
BRANCH   6  22
ATOM     22  C   UNL     1       4.789  -2.935  24.946  0.00  0.00    +0.000 C 
ATOM     23  O   UNL     1       4.209  -2.037  25.462  0.00  0.00    +0.000 OA
ATOM     24  N   UNL     1       4.240  -3.828  24.121  0.00  0.00    +0.000 NA
BRANCH  24  25
ATOM     25  C   UNL     1       3.326  -4.636  24.741  0.00  0.00    +0.000 A 
ATOM     26  C   UNL     1       2.402  -5.179  23.423  0.00  0.00    +0.000 A 
ATOM     27  N   UNL     1       2.627  -6.520  23.404  0.00  0.00    +0.000 NA
ATOM     28  C   UNL     1       2.879  -7.529  24.173  0.00  0.00    +0.000 A 
ATOM     29  C   UNL     1       3.811  -7.220  25.419  0.00  0.00    +0.000 A 
ATOM     30  C   UNL     1       3.604  -5.703  25.668  0.00  0.00    +0.000 A 
ATOM     31  C   UNL     1       3.033  -5.596  27.127  0.00  0.00    +0.000 C 
ENDBRANCH  24  25
ENDBRANCH   6  22
BRANCH   4  32
ATOM     32  C   UNL     1       8.761  -5.198  25.654  0.00  0.00    +0.000 C 
ATOM     33  N   UNL     1       9.582  -5.230  24.822  0.00  0.00    +0.000 NA
ENDBRANCH   4  32
TORSDOF 9
ENDMDL
MODEL 5
REMARK VINA RESULT:      -6.7      2.726      6.130
REMARK  Name = 
REMARK  9 active torsions:
REMARK  status: ('A' for Active; 'I' for Inactive)
REMARK    1  A    between atoms: C_2  and  N_3
REMARK    2  A    between atoms: N_3  and  C_4
REMARK    3  A    between atoms: N_3  and  C_30
REMARK    4  A    between atoms: C_7  and  C_28
REMARK    5  A    between atoms: C_9  and  C_10
REMARK    6  A    between atoms: C_13  and  C_26
REMARK    7  A    between atoms: C_15  and  C_16
REMARK    8  A    between atoms: N_18  and  C_19
REMARK    9  A    between atoms: C_30  and  C_31
REMARK                            x       y       z     vdW  Elec       q    Type
REMARK                         _______ _______ _______ _____ _____    ______ ____
ROOT
ATOM      1  C   UNL     1       6.075  -2.520  22.342  0.00  0.00    +0.000 A 
ATOM      2  N   UNL     1       5.654  -3.244  21.129  0.00  0.00    +0.000 NA
ATOM      3  C   UNL     1       5.875  -4.507  21.368  0.00  0.00    +0.000 A 
ATOM      4  C   UNL     1       6.166  -5.528  22.356  0.00  0.00    +0.000 A 
ATOM      5  C   UNL     1       6.516  -4.846  23.699  0.00  0.00    +0.000 A 
ATOM      6  C   UNL     1       6.035  -3.355  23.523  0.00  0.00    +0.000 A 
ENDROOT
BRANCH   1  12
ATOM      7  C   UNL     1       7.021  -0.280  22.242  0.00  0.00    +0.000 A 
ATOM      8  N   UNL     1       7.831   0.417  23.283  0.00  0.00    +0.000 NA
ATOM      9  C   UNL     1       8.816  -0.377  23.546  0.00  0.00    +0.000 A 
ATOM     10  C   UNL     1       9.468  -1.632  23.268  0.00  0.00    +0.000 A 
ATOM     11  C   UNL     1       8.624  -2.459  22.365  0.00  0.00    +0.000 A 
ATOM     12  C   UNL     1       7.296  -1.680  22.063  0.00  0.00    +0.000 A 
BRANCH  10  13
ATOM     13  C   UNL     1       9.767  -2.232  24.376  0.00  0.00    +0.000 C 
ATOM     14  N   UNL     1       9.876  -3.357  24.166  0.00  0.00    +0.000 NA
ENDBRANCH  10  13
BRANCH   7  15
ATOM     15  N   UNL     1       7.190   0.715  21.279  0.00  0.00    +0.000 N 
BRANCH  15  17
ATOM     16  C   UNL     1       7.281   3.097  21.747  0.00  0.00    +0.000 C 
ATOM     17  C   UNL     1       6.411   1.914  21.346  0.00  0.00    +0.000 C 
ENDBRANCH  15  17
BRANCH  15  18
ATOM     18  C   UNL     1       7.815   0.286  20.047  0.00  0.00    +0.000 C 
BRANCH  18  19
ATOM     19  C   UNL     1       6.834   0.402  18.908  0.00  0.00    +0.000 C 
ATOM     20  O   UNL     1       7.116   0.905  17.847  0.00  0.00    +0.000 OA
ATOM     21  O   UNL     1       5.999  -0.639  19.000  0.00  0.00    +0.000 OA
ENDBRANCH  18  19
ENDBRANCH  15  18
ENDBRANCH   7  15
ENDBRANCH   1  12
BRANCH   6  22
ATOM     22  C   UNL     1       5.160  -3.014  24.607  0.00  0.00    +0.000 C 
ATOM     23  O   UNL     1       5.307  -2.135  25.392  0.00  0.00    +0.000 OA
ATOM     24  N   UNL     1       4.002  -3.624  24.347  0.00  0.00    +0.000 NA
BRANCH  24  25
ATOM     25  C   UNL     1       3.533  -4.351  25.406  0.00  0.00    +0.000 A 
ATOM     26  C   UNL     1       2.208  -5.154  24.707  0.00  0.00    +0.000 A 
ATOM     27  N   UNL     1       2.556  -6.467  24.777  0.00  0.00    +0.000 NA
ATOM     28  C   UNL     1       3.220  -7.316  25.493  0.00  0.00    +0.000 A 
ATOM     29  C   UNL     1       4.549  -6.755  26.156  0.00  0.00    +0.000 A 
ATOM     30  C   UNL     1       4.294  -5.228  26.258  0.00  0.00    +0.000 A 
ATOM     31  C   UNL     1       4.381  -4.894  27.791  0.00  0.00    +0.000 C 
ENDBRANCH  24  25
ENDBRANCH   6  22
BRANCH   4  32
ATOM     32  C   UNL     1       7.228  -6.186  21.950  0.00  0.00    +0.000 C 
ATOM     33  N   UNL     1       8.099  -6.038  22.716  0.00  0.00    +0.000 NA
ENDBRANCH   4  32
TORSDOF 9
ENDMDL
MODEL 6
REMARK VINA RESULT:      -6.7      2.254      6.065
REMARK  Name = 
REMARK  9 active torsions:
REMARK  status: ('A' for Active; 'I' for Inactive)
REMARK    1  A    between atoms: C_2  and  N_3
REMARK    2  A    between atoms: N_3  and  C_4
REMARK    3  A    between atoms: N_3  and  C_30
REMARK    4  A    between atoms: C_7  and  C_28
REMARK    5  A    between atoms: C_9  and  C_10
REMARK    6  A    between atoms: C_13  and  C_26
REMARK    7  A    between atoms: C_15  and  C_16
REMARK    8  A    between atoms: N_18  and  C_19
REMARK    9  A    between atoms: C_30  and  C_31
REMARK                            x       y       z     vdW  Elec       q    Type
REMARK                         _______ _______ _______ _____ _____    ______ ____
ROOT
ATOM      1  C   UNL     1       6.884  -2.252  23.130  0.00  0.00    +0.000 A 
ATOM      2  N   UNL     1       5.638  -2.730  22.503  0.00  0.00    +0.000 NA
ATOM      3  C   UNL     1       5.797  -4.010  22.313  0.00  0.00    +0.000 A 
ATOM      4  C   UNL     1       6.567  -5.201  22.618  0.00  0.00    +0.000 A 
ATOM      5  C   UNL     1       7.851  -4.793  23.377  0.00  0.00    +0.000 A 
ATOM      6  C   UNL     1       7.586  -3.306  23.831  0.00  0.00    +0.000 A 
ENDROOT
BRANCH   1  12
ATOM      7  C   UNL     1       6.978  -0.084  22.032  0.00  0.00    +0.000 A 
ATOM      8  N   UNL     1       7.757   1.119  22.447  0.00  0.00    +0.000 NA
ATOM      9  C   UNL     1       8.981   0.718  22.556  0.00  0.00    +0.000 A 
ATOM     10  C   UNL     1       9.912  -0.376  22.445  0.00  0.00    +0.000 A 
ATOM     11  C   UNL     1       9.181  -1.648  22.202  0.00  0.00    +0.000 A 
ATOM     12  C   UNL     1       7.640  -1.349  22.188  0.00  0.00    +0.000 A 
BRANCH  10  13
ATOM     13  C   UNL     1      10.673  -0.419  23.492  0.00  0.00    +0.000 C 
ATOM     14  N   UNL     1      10.008  -0.400  24.430  0.00  0.00    +0.000 NA
ENDBRANCH  10  13
BRANCH   7  15
ATOM     15  N   UNL     1       6.550   0.470  20.824  0.00  0.00    +0.000 N 
BRANCH  15  17
ATOM     16  C   UNL     1       4.823   1.973  20.013  0.00  0.00    +0.000 C 
ATOM     17  C   UNL     1       6.136   1.839  20.773  0.00  0.00    +0.000 C 
ENDBRANCH  15  17
BRANCH  15  18
ATOM     18  C   UNL     1       6.140  -0.484  19.816  0.00  0.00    +0.000 C 
BRANCH  18  19
ATOM     19  C   UNL     1       6.795  -0.151  18.499  0.00  0.00    +0.000 C 
ATOM     20  O   UNL     1       7.989  -0.203  18.328  0.00  0.00    +0.000 OA
ATOM     21  O   UNL     1       5.924  -0.469  17.534  0.00  0.00    +0.000 OA
ENDBRANCH  18  19
ENDBRANCH  15  18
ENDBRANCH   7  15
ENDBRANCH   1  12
BRANCH   6  22
ATOM     22  C   UNL     1       7.792  -3.204  25.246  0.00  0.00    +0.000 C 
ATOM     23  O   UNL     1       8.825  -3.293  25.824  0.00  0.00    +0.000 OA
ATOM     24  N   UNL     1       6.685  -2.643  25.737  0.00  0.00    +0.000 NA
BRANCH  24  25
ATOM     25  C   UNL     1       6.157  -3.338  26.790  0.00  0.00    +0.000 A 
ATOM     26  C   UNL     1       4.807  -2.383  27.183  0.00  0.00    +0.000 A 
ATOM     27  N   UNL     1       3.751  -3.204  26.935  0.00  0.00    +0.000 NA
ATOM     28  C   UNL     1       3.393  -4.446  26.945  0.00  0.00    +0.000 A 
ATOM     29  C   UNL     1       4.515  -5.482  26.512  0.00  0.00    +0.000 A 
ATOM     30  C   UNL     1       5.841  -4.742  26.828  0.00  0.00    +0.000 A 
ATOM     31  C   UNL     1       6.583  -5.649  27.875  0.00  0.00    +0.000 C 
ENDBRANCH  24  25
ENDBRANCH   6  22
BRANCH   4  32
ATOM     32  C   UNL     1       6.930  -5.745  21.478  0.00  0.00    +0.000 C 
ATOM     33  N   UNL     1       6.046  -5.683  20.714  0.00  0.00    +0.000 NA
ENDBRANCH   4  32
TORSDOF 9
ENDMDL
MODEL 7
REMARK VINA RESULT:      -6.6      2.254      6.102
REMARK  Name = 
REMARK  9 active torsions:
REMARK  status: ('A' for Active; 'I' for Inactive)
REMARK    1  A    between atoms: C_2  and  N_3
REMARK    2  A    between atoms: N_3  and  C_4
REMARK    3  A    between atoms: N_3  and  C_30
REMARK    4  A    between atoms: C_7  and  C_28
REMARK    5  A    between atoms: C_9  and  C_10
REMARK    6  A    between atoms: C_13  and  C_26
REMARK    7  A    between atoms: C_15  and  C_16
REMARK    8  A    between atoms: N_18  and  C_19
REMARK    9  A    between atoms: C_30  and  C_31
REMARK                            x       y       z     vdW  Elec       q    Type
REMARK                         _______ _______ _______ _____ _____    ______ ____
ROOT
ATOM      1  C   UNL     1       8.646  -1.274  22.440  0.00  0.00    +0.000 A 
ATOM      2  N   UNL     1       9.725  -0.554  21.739  0.00  0.00    +0.000 NA
ATOM      3  C   UNL     1      10.442   0.015  22.668  0.00  0.00    +0.000 A 
ATOM      4  C   UNL     1      10.765   0.097  24.080  0.00  0.00    +0.000 A 
ATOM      5  C   UNL     1       9.732  -0.727  24.883  0.00  0.00    +0.000 A 
ATOM      6  C   UNL     1       9.004  -1.612  23.800  0.00  0.00    +0.000 A 
ENDROOT
BRANCH   1  12
ATOM      7  C   UNL     1       7.247   0.702  22.683  0.00  0.00    +0.000 A 
ATOM      8  N   UNL     1       7.017   1.788  21.686  0.00  0.00    +0.000 NA
ATOM      9  C   UNL     1       6.616   1.194  20.612  0.00  0.00    +0.000 A 
ATOM     10  C   UNL     1       6.290  -0.052  19.966  0.00  0.00    +0.000 A 
ATOM     11  C   UNL     1       6.659  -1.195  20.842  0.00  0.00    +0.000 A 
ATOM     12  C   UNL     1       7.310  -0.634  22.156  0.00  0.00    +0.000 A 
BRANCH  10  13
ATOM     13  C   UNL     1       6.849  -0.106  18.799  0.00  0.00    +0.000 C 
ATOM     14  N   UNL     1       6.084  -0.516  18.044  0.00  0.00    +0.000 NA
ENDBRANCH  10  13
BRANCH   7  15
ATOM     15  N   UNL     1       6.299   1.177  23.590  0.00  0.00    +0.000 N 
BRANCH  15  17
ATOM     16  C   UNL     1       6.540   0.331  25.854  0.00  0.00    +0.000 C 
ATOM     17  C   UNL     1       5.734   0.291  24.563  0.00  0.00    +0.000 C 
ENDBRANCH  15  17
BRANCH  15  18
ATOM     18  C   UNL     1       5.635   2.404  23.207  0.00  0.00    +0.000 C 
BRANCH  18  19
ATOM     19  C   UNL     1       4.646   2.806  24.272  0.00  0.00    +0.000 C 
ATOM     20  O   UNL     1       4.910   3.591  25.151  0.00  0.00    +0.000 OA
ATOM     21  O   UNL     1       3.427   2.737  23.724  0.00  0.00    +0.000 OA
ENDBRANCH  18  19
ENDBRANCH  15  18
ENDBRANCH   7  15
ENDBRANCH   1  12
BRANCH   6  22
ATOM     22  C   UNL     1       9.072  -2.988  24.196  0.00  0.00    +0.000 C 
ATOM     23  O   UNL     1      10.050  -3.655  24.292  0.00  0.00    +0.000 OA
ATOM     24  N   UNL     1       7.899  -3.261  24.771  0.00  0.00    +0.000 NA
BRANCH  24  25
ATOM     25  C   UNL     1       7.308  -4.388  24.269  0.00  0.00    +0.000 A 
ATOM     26  C   UNL     1       6.318  -4.860  25.567  0.00  0.00    +0.000 A 
ATOM     27  N   UNL     1       5.058  -4.744  25.067  0.00  0.00    +0.000 NA
ATOM     28  C   UNL     1       4.375  -4.841  23.973  0.00  0.00    +0.000 A 
ATOM     29  C   UNL     1       5.122  -4.355  22.660  0.00  0.00    +0.000 A 
ATOM     30  C   UNL     1       6.624  -4.517  23.008  0.00  0.00    +0.000 A 
ATOM     31  C   UNL     1       7.189  -5.531  21.949  0.00  0.00    +0.000 C 
ENDBRANCH  24  25
ENDBRANCH   6  22
BRANCH   4  32
ATOM     32  C   UNL     1      10.648   1.354  24.444  0.00  0.00    +0.000 C 
ATOM     33  N   UNL     1      10.676   2.041  23.498  0.00  0.00    +0.000 NA
ENDBRANCH   4  32
TORSDOF 9
ENDMDL
MODEL 8
REMARK VINA RESULT:      -6.6      2.417      4.653
REMARK  Name = 
REMARK  9 active torsions:
REMARK  status: ('A' for Active; 'I' for Inactive)
REMARK    1  A    between atoms: C_2  and  N_3
REMARK    2  A    between atoms: N_3  and  C_4
REMARK    3  A    between atoms: N_3  and  C_30
REMARK    4  A    between atoms: C_7  and  C_28
REMARK    5  A    between atoms: C_9  and  C_10
REMARK    6  A    between atoms: C_13  and  C_26
REMARK    7  A    between atoms: C_15  and  C_16
REMARK    8  A    between atoms: N_18  and  C_19
REMARK    9  A    between atoms: C_30  and  C_31
REMARK                            x       y       z     vdW  Elec       q    Type
REMARK                         _______ _______ _______ _____ _____    ______ ____
ROOT
ATOM      1  C   UNL     1       6.383  -2.681  25.461  0.00  0.00    +0.000 A 
ATOM      2  N   UNL     1       7.279  -2.670  26.631  0.00  0.00    +0.000 NA
ATOM      3  C   UNL     1       8.413  -3.168  26.223  0.00  0.00    +0.000 A 
ATOM      4  C   UNL     1       9.243  -3.544  25.095  0.00  0.00    +0.000 A 
ATOM      5  C   UNL     1       8.398  -3.478  23.801  0.00  0.00    +0.000 A 
ATOM      6  C   UNL     1       7.111  -2.663  24.211  0.00  0.00    +0.000 A 
ENDROOT
BRANCH   1  12
ATOM      7  C   UNL     1       5.366  -4.769  24.736  0.00  0.00    +0.000 A 
ATOM      8  N   UNL     1       5.524  -6.122  25.345  0.00  0.00    +0.000 NA
ATOM      9  C   UNL     1       5.208  -5.982  26.589  0.00  0.00    +0.000 A 
ATOM     10  C   UNL     1       4.767  -5.094  27.635  0.00  0.00    +0.000 A 
ATOM     11  C   UNL     1       4.754  -3.690  27.143  0.00  0.00    +0.000 A 
ATOM     12  C   UNL     1       5.263  -3.672  25.659  0.00  0.00    +0.000 A 
BRANCH  10  13
ATOM     13  C   UNL     1       5.498  -5.255  28.692  0.00  0.00    +0.000 C 
ATOM     14  N   UNL     1       6.566  -5.525  28.361  0.00  0.00    +0.000 NA
ENDBRANCH  10  13
BRANCH   7  15
ATOM     15  N   UNL     1       4.384  -5.166  23.828  0.00  0.00    +0.000 N 
BRANCH  15  17
ATOM     16  C   UNL     1       2.173  -6.154  23.642  0.00  0.00    +0.000 C 
ATOM     17  C   UNL     1       3.000  -4.979  24.144  0.00  0.00    +0.000 C 
ENDBRANCH  15  17
BRANCH  15  18
ATOM     18  C   UNL     1       4.811  -6.129  22.835  0.00  0.00    +0.000 C 
BRANCH  18  19
ATOM     19  C   UNL     1       5.997  -5.589  22.076  0.00  0.00    +0.000 C 
ATOM     20  O   UNL     1       6.963  -6.259  21.804  0.00  0.00    +0.000 OA
ATOM     21  O   UNL     1       5.538  -4.638  21.253  0.00  0.00    +0.000 OA
ENDBRANCH  18  19
ENDBRANCH  15  18
ENDBRANCH   7  15
ENDBRANCH   1  12
BRANCH   6  22
ATOM     22  C   UNL     1       6.946  -1.563  23.307  0.00  0.00    +0.000 C 
ATOM     23  O   UNL     1       6.511  -1.605  22.203  0.00  0.00    +0.000 OA
ATOM     24  N   UNL     1       7.033  -0.461  24.054  0.00  0.00    +0.000 NA
BRANCH  24  25
ATOM     25  C   UNL     1       7.920   0.454  23.556  0.00  0.00    +0.000 A 
ATOM     26  C   UNL     1       8.316   1.339  24.951  0.00  0.00    +0.000 A 
ATOM     27  N   UNL     1       9.643   1.092  25.122  0.00  0.00    +0.000 NA
ATOM     28  C   UNL     1      10.732   0.842  24.470  0.00  0.00    +0.000 A 
ATOM     29  C   UNL     1      10.560  -0.057  23.174  0.00  0.00    +0.000 A 
ATOM     30  C   UNL     1       9.085   0.180  22.754  0.00  0.00    +0.000 A 
ATOM     31  C   UNL     1       9.158   0.786  21.307  0.00  0.00    +0.000 C 
ENDBRANCH  24  25
ENDBRANCH   6  22
BRANCH   4  32
ATOM     32  C   UNL     1       9.613  -4.793  25.271  0.00  0.00    +0.000 C 
ATOM     33  N   UNL     1       9.145  -5.463  24.434  0.00  0.00    +0.000 NA
ENDBRANCH   4  32
TORSDOF 9
ENDMDL
MODEL 9
REMARK VINA RESULT:      -6.6      3.195      4.918
REMARK  Name = 
REMARK  9 active torsions:
REMARK  status: ('A' for Active; 'I' for Inactive)
REMARK    1  A    between atoms: C_2  and  N_3
REMARK    2  A    between atoms: N_3  and  C_4
REMARK    3  A    between atoms: N_3  and  C_30
REMARK    4  A    between atoms: C_7  and  C_28
REMARK    5  A    between atoms: C_9  and  C_10
REMARK    6  A    between atoms: C_13  and  C_26
REMARK    7  A    between atoms: C_15  and  C_16
REMARK    8  A    between atoms: N_18  and  C_19
REMARK    9  A    between atoms: C_30  and  C_31
REMARK                            x       y       z     vdW  Elec       q    Type
REMARK                         _______ _______ _______ _____ _____    ______ ____
ROOT
ATOM      1  C   UNL     1       6.217  -4.423  25.240  0.00  0.00    +0.000 A 
ATOM      2  N   UNL     1       7.380  -5.278  24.943  0.00  0.00    +0.000 NA
ATOM      3  C   UNL     1       7.515  -5.268  23.646  0.00  0.00    +0.000 A 
ATOM      4  C   UNL     1       7.155  -4.642  22.388  0.00  0.00    +0.000 A 
ATOM      5  C   UNL     1       6.001  -3.642  22.633  0.00  0.00    +0.000 A 
ATOM      6  C   UNL     1       5.971  -3.449  24.198  0.00  0.00    +0.000 A 
ENDROOT
BRANCH   1  12
ATOM      7  C   UNL     1       4.489  -4.638  26.938  0.00  0.00    +0.000 A 
ATOM      8  N   UNL     1       3.047  -4.270  26.828  0.00  0.00    +0.000 NA
ATOM      9  C   UNL     1       2.608  -4.896  25.787  0.00  0.00    +0.000 A 
ATOM     10  C   UNL     1       2.902  -5.794  24.699  0.00  0.00    +0.000 A 
ATOM     11  C   UNL     1       4.363  -6.068  24.642  0.00  0.00    +0.000 A 
ATOM     12  C   UNL     1       5.074  -5.248  25.776  0.00  0.00    +0.000 A 
BRANCH  10  13
ATOM     13  C   UNL     1       2.432  -5.317  23.591  0.00  0.00    +0.000 C 
ATOM     14  N   UNL     1       3.072  -5.712  22.720  0.00  0.00    +0.000 NA
ENDBRANCH  10  13
BRANCH   7  15
ATOM     15  N   UNL     1       4.359  -5.233  28.194  0.00  0.00    +0.000 N 
BRANCH  15  17
ATOM     16  C   UNL     1       3.074  -5.146  30.253  0.00  0.00    +0.000 C 
ATOM     17  C   UNL     1       4.056  -4.427  29.338  0.00  0.00    +0.000 C 
ENDBRANCH  15  17
BRANCH  15  18
ATOM     18  C   UNL     1       4.965  -6.540  28.326  0.00  0.00    +0.000 C 
BRANCH  18  19
ATOM     19  C   UNL     1       6.229  -6.438  29.142  0.00  0.00    +0.000 C 
ATOM     20  O   UNL     1       6.376  -7.002  30.200  0.00  0.00    +0.000 OA
ATOM     21  O   UNL     1       7.240  -6.267  28.283  0.00  0.00    +0.000 OA
ENDBRANCH  18  19
ENDBRANCH  15  18
ENDBRANCH   7  15
ENDBRANCH   1  12
BRANCH   6  22
ATOM     22  C   UNL     1       6.051  -2.049  24.500  0.00  0.00    +0.000 C 
ATOM     23  O   UNL     1       5.144  -1.312  24.710  0.00  0.00    +0.000 OA
ATOM     24  N   UNL     1       7.319  -1.823  24.848  0.00  0.00    +0.000 NA
BRANCH  24  25
ATOM     25  C   UNL     1       7.879  -0.773  24.173  0.00  0.00    +0.000 A 
ATOM     26  C   UNL     1       9.519  -0.940  24.585  0.00  0.00    +0.000 A 
ATOM     27  N   UNL     1      10.123  -1.203  23.395  0.00  0.00    +0.000 NA
ATOM     28  C   UNL     1      10.041  -0.961  22.127  0.00  0.00    +0.000 A 
ATOM     29  C   UNL     1       8.566  -0.861  21.548  0.00  0.00    +0.000 A 
ATOM     30  C   UNL     1       7.713  -0.455  22.778  0.00  0.00    +0.000 A 
ATOM     31  C   UNL     1       7.062   0.922  22.396  0.00  0.00    +0.000 C 
ENDBRANCH  24  25
ENDBRANCH   6  22
BRANCH   4  32
ATOM     32  C   UNL     1       6.708  -5.583  21.587  0.00  0.00    +0.000 C 
ATOM     33  N   UNL     1       5.957  -5.121  20.819  0.00  0.00    +0.000 NA
ENDBRANCH   4  32
TORSDOF 9
ENDMDL
