MODEL 1
REMARK VINA RESULT:      -5.7      0.000      0.000
REMARK  Name = 
REMARK  4 active torsions:
REMARK  status: ('A' for Active; 'I' for Inactive)
REMARK    1  A    between atoms: C_2  and  N_3
REMARK    2  A    between atoms: N_3  and  C_4
REMARK    3  A    between atoms: C_9  and  N_10
REMARK    4  A    between atoms: N_13  and  C_17
REMARK                            x       y       z     vdW  Elec       q    Type
REMARK                         _______ _______ _______ _____ _____    ______ ____
ROOT
ATOM      1  C   UNL     1       6.855  -3.395  23.909  0.00  0.00    +0.000 C 
ATOM      2  C   UNL     1       6.268  -4.442  24.859  0.00  0.00    +0.000 C 
ATOM      3  C   UNL     1       7.396  -5.355  25.305  0.00  0.00    +0.000 C 
ATOM      4  C   UNL     1       8.635  -4.833  25.720  0.00  0.00    +0.000 C 
ATOM      5  C   UNL     1       8.992  -3.527  25.251  0.00  0.00    +0.000 C 
ATOM      6  C   UNL     1       8.037  -2.750  24.570  0.00  0.00    +0.000 C 
ATOM      7  F   UNL     1       9.643  -5.683  25.471  0.00  0.00    +0.000 F 
ENDROOT
BRANCH   6   8
ATOM      8  N   UNL     1       7.953  -1.387  24.742  0.00  0.00    +0.000 N 
ATOM      9  C   UNL     1       6.679  -0.745  24.392  0.00  0.00    +0.000 C 
ATOM     10  C   UNL     1       6.907   0.144  23.175  0.00  0.00    +0.000 C 
ATOM     11  N   UNL     1       7.984  -0.390  22.369  0.00  0.00    +0.000 N 
ATOM     12  C   UNL     1       9.233  -0.529  22.928  0.00  0.00    +0.000 C 
ATOM     13  C   UNL     1      10.175  -1.354  22.251  0.00  0.00    +0.000 C 
ATOM     14  C   UNL     1       9.176  -0.609  24.451  0.00  0.00    +0.000 C 
BRANCH  11  15
ATOM     15  C   UNL     1       7.779  -0.708  20.976  0.00  0.00    +0.000 C 
ATOM     16  O   UNL     1       6.520  -1.313  20.805  0.00  0.00    +0.000 OA
ATOM     17  C   UNL     1       7.787   0.572  20.150  0.00  0.00    +0.000 C 
ENDBRANCH  11  15
ENDBRANCH   6   8
BRANCH   1  18
ATOM     18  N   UNL     1       7.250  -4.043  22.685  0.00  0.00    +0.000 NA
BRANCH  18  20
ATOM     19  C   UNL     1       6.366  -5.783  21.253  0.00  0.00    +0.000 C 
ATOM     20  C   UNL     1       6.060  -4.504  22.021  0.00  0.00    +0.000 C 
ENDBRANCH  18  20
ENDBRANCH   1  18
TORSDOF 4
ENDMDL
MODEL 2
REMARK VINA RESULT:      -5.6      2.581      5.500
REMARK  Name = 
REMARK  4 active torsions:
REMARK  status: ('A' for Active; 'I' for Inactive)
REMARK    1  A    between atoms: C_2  and  N_3
REMARK    2  A    between atoms: N_3  and  C_4
REMARK    3  A    between atoms: C_9  and  N_10
REMARK    4  A    between atoms: N_13  and  C_17
REMARK                            x       y       z     vdW  Elec       q    Type
REMARK                         _______ _______ _______ _____ _____    ______ ____
ROOT
ATOM      1  C   UNL     1       8.211  -0.188  23.040  0.00  0.00    +0.000 C 
ATOM      2  C   UNL     1       8.038   1.189  22.395  0.00  0.00    +0.000 C 
ATOM      3  C   UNL     1       7.927   0.993  20.894  0.00  0.00    +0.000 C 
ATOM      4  C   UNL     1       7.097  -0.003  20.349  0.00  0.00    +0.000 C 
ATOM      5  C   UNL     1       6.772  -1.121  21.184  0.00  0.00    +0.000 C 
ATOM      6  C   UNL     1       7.120  -1.093  22.547  0.00  0.00    +0.000 C 
ATOM      7  F   UNL     1       7.562  -0.451  19.173  0.00  0.00    +0.000 F 
ENDROOT
BRANCH   6   8
ATOM      8  N   UNL     1       6.301  -1.623  23.517  0.00  0.00    +0.000 N 
ATOM      9  C   UNL     1       6.748  -1.501  24.911  0.00  0.00    +0.000 C 
ATOM     10  C   UNL     1       7.072  -2.895  25.437  0.00  0.00    +0.000 C 
ATOM     11  N   UNL     1       7.498  -3.746  24.347  0.00  0.00    +0.000 N 
ATOM     12  C   UNL     1       6.639  -3.969  23.295  0.00  0.00    +0.000 C 
ATOM     13  C   UNL     1       7.183  -4.513  22.098  0.00  0.00    +0.000 C 
ATOM     14  C   UNL     1       5.587  -2.870  23.170  0.00  0.00    +0.000 C 
BRANCH  11  15
ATOM     15  C   UNL     1       8.777  -4.414  24.385  0.00  0.00    +0.000 C 
ATOM     16  O   UNL     1       9.813  -3.471  24.246  0.00  0.00    +0.000 OA
ATOM     17  C   UNL     1       8.959  -5.097  25.735  0.00  0.00    +0.000 C 
ENDBRANCH  11  15
ENDBRANCH   6   8
BRANCH   1  18
ATOM     18  N   UNL     1       9.504  -0.713  22.685  0.00  0.00    +0.000 NA
BRANCH  18  20
ATOM     19  C   UNL     1      10.209  -0.015  24.893  0.00  0.00    +0.000 C 
ATOM     20  C   UNL     1      10.501   0.039  23.399  0.00  0.00    +0.000 C 
ENDBRANCH  18  20
ENDBRANCH   1  18
TORSDOF 4
ENDMDL
MODEL 3
REMARK VINA RESULT:      -5.6      1.892      2.836
REMARK  Name = 
REMARK  4 active torsions:
REMARK  status: ('A' for Active; 'I' for Inactive)
REMARK    1  A    between atoms: C_2  and  N_3
REMARK    2  A    between atoms: N_3  and  C_4
REMARK    3  A    between atoms: C_9  and  N_10
REMARK    4  A    between atoms: N_13  and  C_17
REMARK                            x       y       z     vdW  Elec       q    Type
REMARK                         _______ _______ _______ _____ _____    ______ ____
ROOT
ATOM      1  C   UNL     1       7.143  -3.984  23.319  0.00  0.00    +0.000 C 
ATOM      2  C   UNL     1       6.294  -3.737  24.568  0.00  0.00    +0.000 C 
ATOM      3  C   UNL     1       7.180  -3.933  25.785  0.00  0.00    +0.000 C 
ATOM      4  C   UNL     1       8.468  -3.370  25.846  0.00  0.00    +0.000 C 
ATOM      5  C   UNL     1       9.113  -3.061  24.604  0.00  0.00    +0.000 C 
ATOM      6  C   UNL     1       8.385  -3.145  23.404  0.00  0.00    +0.000 C 
ATOM      7  F   UNL     1       9.297  -4.103  26.604  0.00  0.00    +0.000 F 
ENDROOT
BRANCH   6   8
ATOM      8  N   UNL     1       8.567  -2.246  22.379  0.00  0.00    +0.000 N 
ATOM      9  C   UNL     1       9.908  -1.669  22.224  0.00  0.00    +0.000 C 
ATOM     10  C   UNL     1       9.833  -0.182  22.555  0.00  0.00    +0.000 C 
ATOM     11  N   UNL     1       8.772   0.058  23.509  0.00  0.00    +0.000 N 
ATOM     12  C   UNL     1       7.481  -0.283  23.175  0.00  0.00    +0.000 C 
ATOM     13  C   UNL     1       6.523  -0.359  24.225  0.00  0.00    +0.000 C 
ATOM     14  C   UNL     1       7.432  -1.346  22.081  0.00  0.00    +0.000 C 
BRANCH  11  15
ATOM     15  C   UNL     1       9.042   0.710  24.767  0.00  0.00    +0.000 C 
ATOM     16  O   UNL     1      10.244   0.220  25.312  0.00  0.00    +0.000 OA
ATOM     17  C   UNL     1       9.218   2.207  24.543  0.00  0.00    +0.000 C 
ENDBRANCH  11  15
ENDBRANCH   6   8
BRANCH   1  18
ATOM     18  N   UNL     1       7.481  -5.383  23.252  0.00  0.00    +0.000 NA
BRANCH  18  20
ATOM     19  C   UNL     1       5.968  -5.785  21.405  0.00  0.00    +0.000 C 
ATOM     20  C   UNL     1       7.417  -5.790  21.874  0.00  0.00    +0.000 C 
ENDBRANCH  18  20
ENDBRANCH   1  18
TORSDOF 4
ENDMDL
MODEL 4
REMARK VINA RESULT:      -5.5      2.654      5.147
REMARK  Name = 
REMARK  4 active torsions:
REMARK  status: ('A' for Active; 'I' for Inactive)
REMARK    1  A    between atoms: C_2  and  N_3
REMARK    2  A    between atoms: N_3  and  C_4
REMARK    3  A    between atoms: C_9  and  N_10
REMARK    4  A    between atoms: N_13  and  C_17
REMARK                            x       y       z     vdW  Elec       q    Type
REMARK                         _______ _______ _______ _____ _____    ______ ____
ROOT
ATOM      1  C   UNL     1       8.902   0.026  22.432  0.00  0.00    +0.000 C 
ATOM      2  C   UNL     1      10.036   0.971  22.027  0.00  0.00    +0.000 C 
ATOM      3  C   UNL     1       9.885   2.253  22.826  0.00  0.00    +0.000 C 
ATOM      4  C   UNL     1       9.629   2.224  24.208  0.00  0.00    +0.000 C 
ATOM      5  C   UNL     1       9.022   1.041  24.742  0.00  0.00    +0.000 C 
ATOM      6  C   UNL     1       8.885  -0.098  23.927  0.00  0.00    +0.000 C 
ATOM      7  F   UNL     1       8.931   3.297  24.609  0.00  0.00    +0.000 F 
ENDROOT
BRANCH   6   8
ATOM      8  N   UNL     1       9.052  -1.370  24.422  0.00  0.00    +0.000 N 
ATOM      9  C   UNL     1       9.344  -2.433  23.451  0.00  0.00    +0.000 C 
ATOM     10  C   UNL     1       8.151  -3.381  23.403  0.00  0.00    +0.000 C 
ATOM     11  N   UNL     1       6.937  -2.663  23.727  0.00  0.00    +0.000 N 
ATOM     12  C   UNL     1       6.832  -2.045  24.952  0.00  0.00    +0.000 C 
ATOM     13  C   UNL     1       5.801  -1.079  25.120  0.00  0.00    +0.000 C 
ATOM     14  C   UNL     1       8.198  -1.751  25.567  0.00  0.00    +0.000 C 
BRANCH  11  15
ATOM     15  C   UNL     1       5.819  -2.649  22.815  0.00  0.00    +0.000 C 
ATOM     16  O   UNL     1       6.284  -2.564  21.489  0.00  0.00    +0.000 OA
ATOM     17  C   UNL     1       5.036  -3.951  22.941  0.00  0.00    +0.000 C 
ENDBRANCH  11  15
ENDBRANCH   6   8
BRANCH   1  18
ATOM     18  N   UNL     1       7.653   0.561  21.953  0.00  0.00    +0.000 NA
BRANCH  18  20
ATOM     19  C   UNL     1       6.343   1.027  19.972  0.00  0.00    +0.000 C 
ATOM     20  C   UNL     1       7.651   0.470  20.518  0.00  0.00    +0.000 C 
ENDBRANCH  18  20
ENDBRANCH   1  18
TORSDOF 4
ENDMDL
MODEL 5
REMARK VINA RESULT:      -5.5      2.693      5.700
REMARK  Name = 
REMARK  4 active torsions:
REMARK  status: ('A' for Active; 'I' for Inactive)
REMARK    1  A    between atoms: C_2  and  N_3
REMARK    2  A    between atoms: N_3  and  C_4
REMARK    3  A    between atoms: C_9  and  N_10
REMARK    4  A    between atoms: N_13  and  C_17
REMARK                            x       y       z     vdW  Elec       q    Type
REMARK                         _______ _______ _______ _____ _____    ______ ____
ROOT
ATOM      1  C   UNL     1       8.922   1.217  23.069  0.00  0.00    +0.000 C 
ATOM      2  C   UNL     1       7.522   1.522  22.529  0.00  0.00    +0.000 C 
ATOM      3  C   UNL     1       7.461   1.046  21.090  0.00  0.00    +0.000 C 
ATOM      4  C   UNL     1       7.956  -0.217  20.718  0.00  0.00    +0.000 C 
ATOM      5  C   UNL     1       8.944  -0.815  21.568  0.00  0.00    +0.000 C 
ATOM      6  C   UNL     1       9.235  -0.228  22.812  0.00  0.00    +0.000 C 
ATOM      7  F   UNL     1       8.399  -0.227  19.452  0.00  0.00    +0.000 F 
ENDROOT
BRANCH   6   8
ATOM      8  N   UNL     1       9.507  -0.985  23.928  0.00  0.00    +0.000 N 
ATOM      9  C   UNL     1      10.063  -2.327  23.708  0.00  0.00    +0.000 C 
ATOM     10  C   UNL     1       9.025  -3.355  24.143  0.00  0.00    +0.000 C 
ATOM     11  N   UNL     1       7.694  -2.813  23.979  0.00  0.00    +0.000 N 
ATOM     12  C   UNL     1       7.347  -1.669  24.661  0.00  0.00    +0.000 C 
ATOM     13  C   UNL     1       6.183  -0.971  24.237  0.00  0.00    +0.000 C 
ATOM     14  C   UNL     1       8.570  -0.847  25.063  0.00  0.00    +0.000 C 
BRANCH  11  15
ATOM     15  C   UNL     1       6.712  -3.492  23.169  0.00  0.00    +0.000 C 
ATOM     16  O   UNL     1       7.303  -3.930  21.969  0.00  0.00    +0.000 OA
ATOM     17  C   UNL     1       6.204  -4.726  23.904  0.00  0.00    +0.000 C 
ENDBRANCH  11  15
ENDBRANCH   6   8
BRANCH   1  18
ATOM     18  N   UNL     1       9.875   2.068  22.405  0.00  0.00    +0.000 NA
BRANCH  18  20
ATOM     19  C   UNL     1       9.914   4.089  23.738  0.00  0.00    +0.000 C 
ATOM     20  C   UNL     1      10.616   2.778  23.414  0.00  0.00    +0.000 C 
ENDBRANCH  18  20
ENDBRANCH   1  18
TORSDOF 4
ENDMDL
MODEL 6
REMARK VINA RESULT:      -5.4      2.830      5.175
REMARK  Name = 
REMARK  4 active torsions:
REMARK  status: ('A' for Active; 'I' for Inactive)
REMARK    1  A    between atoms: C_2  and  N_3
REMARK    2  A    between atoms: N_3  and  C_4
REMARK    3  A    between atoms: C_9  and  N_10
REMARK    4  A    between atoms: N_13  and  C_17
REMARK                            x       y       z     vdW  Elec       q    Type
REMARK                         _______ _______ _______ _____ _____    ______ ____
ROOT
ATOM      1  C   UNL     1       8.242  -0.295  21.103  0.00  0.00    +0.000 C 
ATOM      2  C   UNL     1       9.611   0.194  21.582  0.00  0.00    +0.000 C 
ATOM      3  C   UNL     1       9.386   1.296  22.600  0.00  0.00    +0.000 C 
ATOM      4  C   UNL     1       8.437   1.155  23.629  0.00  0.00    +0.000 C 
ATOM      5  C   UNL     1       7.365   0.227  23.415  0.00  0.00    +0.000 C 
ATOM      6  C   UNL     1       7.403  -0.632  22.301  0.00  0.00    +0.000 C 
ATOM      7  F   UNL     1       7.927   2.338  24.004  0.00  0.00    +0.000 F 
ENDROOT
BRANCH   6   8
ATOM      8  N   UNL     1       6.957  -1.931  22.370  0.00  0.00    +0.000 N 
ATOM      9  C   UNL     1       5.876  -2.220  23.321  0.00  0.00    +0.000 C 
ATOM     10  C   UNL     1       6.433  -3.109  24.427  0.00  0.00    +0.000 C 
ATOM     11  N   UNL     1       7.846  -2.848  24.605  0.00  0.00    +0.000 N 
ATOM     12  C   UNL     1       8.702  -3.045  23.547  0.00  0.00    +0.000 C 
ATOM     13  C   UNL     1      10.001  -2.471  23.630  0.00  0.00    +0.000 C 
ATOM     14  C   UNL     1       7.978  -2.988  22.204  0.00  0.00    +0.000 C 
BRANCH  11  15
ATOM     15  C   UNL     1       8.369  -2.456  25.892  0.00  0.00    +0.000 C 
ATOM     16  O   UNL     1       7.461  -1.595  26.535  0.00  0.00    +0.000 OA
ATOM     17  C   UNL     1       8.538  -3.686  26.775  0.00  0.00    +0.000 C 
ENDBRANCH  11  15
ENDBRANCH   6   8
BRANCH   1  18
ATOM     18  N   UNL     1       7.619   0.744  20.324  0.00  0.00    +0.000 NA
BRANCH  18  20
ATOM     19  C   UNL     1       5.957  -0.349  18.944  0.00  0.00    +0.000 C 
ATOM     20  C   UNL     1       7.367   0.223  19.008  0.00  0.00    +0.000 C 
ENDBRANCH  18  20
ENDBRANCH   1  18
TORSDOF 4
ENDMDL
MODEL 7
REMARK VINA RESULT:      -5.3      2.305      3.846
REMARK  Name = 
REMARK  4 active torsions:
REMARK  status: ('A' for Active; 'I' for Inactive)
REMARK    1  A    between atoms: C_2  and  N_3
REMARK    2  A    between atoms: N_3  and  C_4
REMARK    3  A    between atoms: C_9  and  N_10
REMARK    4  A    between atoms: N_13  and  C_17
REMARK                            x       y       z     vdW  Elec       q    Type
REMARK                         _______ _______ _______ _____ _____    ______ ____
ROOT
ATOM      1  C   UNL     1       8.046  -3.463  23.320  0.00  0.00    +0.000 C 
ATOM      2  C   UNL     1       7.569  -4.884  23.011  0.00  0.00    +0.000 C 
ATOM      3  C   UNL     1       6.093  -4.968  23.353  0.00  0.00    +0.000 C 
ATOM      4  C   UNL     1       5.194  -3.963  22.954  0.00  0.00    +0.000 C 
ATOM      5  C   UNL     1       5.734  -2.662  22.687  0.00  0.00    +0.000 C 
ATOM      6  C   UNL     1       7.129  -2.487  22.642  0.00  0.00    +0.000 C 
ATOM      7  F   UNL     1       4.165  -3.846  23.807  0.00  0.00    +0.000 F 
ENDROOT
BRANCH   6   8
ATOM      8  N   UNL     1       7.727  -1.637  21.740  0.00  0.00    +0.000 N 
ATOM      9  C   UNL     1       9.194  -1.654  21.674  0.00  0.00    +0.000 C 
ATOM     10  C   UNL     1       9.715  -0.317  22.188  0.00  0.00    +0.000 C 
ATOM     11  N   UNL     1       8.789   0.234  23.154  0.00  0.00    +0.000 N 
ATOM     12  C   UNL     1       7.495   0.498  22.767  0.00  0.00    +0.000 C 
ATOM     13  C   UNL     1       6.528   0.710  23.789  0.00  0.00    +0.000 C 
ATOM     14  C   UNL     1       7.082  -0.321  21.547  0.00  0.00    +0.000 C 
BRANCH  11  15
ATOM     15  C   UNL     1       9.224   0.572  24.488  0.00  0.00    +0.000 C 
ATOM     16  O   UNL     1       9.877  -0.531  25.072  0.00  0.00    +0.000 OA
ATOM     17  C   UNL     1      10.228   1.716  24.426  0.00  0.00    +0.000 C 
ENDBRANCH  11  15
ENDBRANCH   6   8
BRANCH   1  18
ATOM     18  N   UNL     1       8.032  -3.264  24.747  0.00  0.00    +0.000 NA
BRANCH  18  20
ATOM     19  C   UNL     1       8.631  -4.647  26.642  0.00  0.00    +0.000 C 
ATOM     20  C   UNL     1       9.090  -4.054  25.317  0.00  0.00    +0.000 C 
ENDBRANCH  18  20
ENDBRANCH   1  18
TORSDOF 4
ENDMDL
MODEL 8
REMARK VINA RESULT:      -5.3      3.523      5.008
REMARK  Name = 
REMARK  4 active torsions:
REMARK  status: ('A' for Active; 'I' for Inactive)
REMARK    1  A    between atoms: C_2  and  N_3
REMARK    2  A    between atoms: N_3  and  C_4
REMARK    3  A    between atoms: C_9  and  N_10
REMARK    4  A    between atoms: N_13  and  C_17
REMARK                            x       y       z     vdW  Elec       q    Type
REMARK                         _______ _______ _______ _____ _____    ______ ____
ROOT
ATOM      1  C   UNL     1       8.737  -0.949  22.618  0.00  0.00    +0.000 C 
ATOM      2  C   UNL     1       9.374  -0.437  21.324  0.00  0.00    +0.000 C 
ATOM      3  C   UNL     1       8.276   0.170  20.469  0.00  0.00    +0.000 C 
ATOM      4  C   UNL     1       7.321   1.042  21.021  0.00  0.00    +0.000 C 
ATOM      5  C   UNL     1       7.083   0.952  22.432  0.00  0.00    +0.000 C 
ATOM      6  C   UNL     1       7.927   0.157  23.229  0.00  0.00    +0.000 C 
ATOM      7  F   UNL     1       6.149   0.974  20.371  0.00  0.00    +0.000 F 
ENDROOT
BRANCH   6   8
ATOM      8  N   UNL     1       8.297   0.536  24.498  0.00  0.00    +0.000 N 
ATOM      9  C   UNL     1       7.332   1.330  25.269  0.00  0.00    +0.000 C 
ATOM     10  C   UNL     1       7.903   2.731  25.459  0.00  0.00    +0.000 C 
ATOM     11  N   UNL     1       8.774   3.062  24.352  0.00  0.00    +0.000 N 
ATOM     12  C   UNL     1       9.876   2.275  24.109  0.00  0.00    +0.000 C 
ATOM     13  C   UNL     1      10.516   2.404  22.844  0.00  0.00    +0.000 C 
ATOM     14  C   UNL     1       9.723   0.874  24.696  0.00  0.00    +0.000 C 
BRANCH  11  15
ATOM     15  C   UNL     1       8.540   4.240  23.553  0.00  0.00    +0.000 C 
ATOM     16  O   UNL     1       7.164   4.370  23.285  0.00  0.00    +0.000 OA
ATOM     17  C   UNL     1       8.974   5.480  24.325  0.00  0.00    +0.000 C 
ENDBRANCH  11  15
ENDBRANCH   6   8
BRANCH   1  18
ATOM     18  N   UNL     1       7.901  -2.081  22.313  0.00  0.00    +0.000 NA
BRANCH  18  20
ATOM     19  C   UNL     1       9.280  -3.091  24.027  0.00  0.00    +0.000 C 
ATOM     20  C   UNL     1       7.872  -2.937  23.469  0.00  0.00    +0.000 C 
ENDBRANCH  18  20
ENDBRANCH   1  18
TORSDOF 4
ENDMDL
MODEL 9
REMARK VINA RESULT:      -5.3      2.348      5.159
REMARK  Name = 
REMARK  4 active torsions:
REMARK  status: ('A' for Active; 'I' for Inactive)
REMARK    1  A    between atoms: C_2  and  N_3
REMARK    2  A    between atoms: N_3  and  C_4
REMARK    3  A    between atoms: C_9  and  N_10
REMARK    4  A    between atoms: N_13  and  C_17
REMARK                            x       y       z     vdW  Elec       q    Type
REMARK                         _______ _______ _______ _____ _____    ______ ____
ROOT
ATOM      1  C   UNL     1       8.083   0.209  23.746  0.00  0.00    +0.000 C 
ATOM      2  C   UNL     1       8.184   0.311  22.222  0.00  0.00    +0.000 C 
ATOM      3  C   UNL     1       9.456  -0.394  21.788  0.00  0.00    +0.000 C 
ATOM      4  C   UNL     1       9.800  -1.658  22.301  0.00  0.00    +0.000 C 
ATOM      5  C   UNL     1       9.239  -2.031  23.566  0.00  0.00    +0.000 C 
ATOM      6  C   UNL     1       8.239  -1.229  24.145  0.00  0.00    +0.000 C 
ATOM      7  F   UNL     1      11.129  -1.837  22.337  0.00  0.00    +0.000 F 
ENDROOT
BRANCH   6   8
ATOM      8  N   UNL     1       7.180  -1.773  24.835  0.00  0.00    +0.000 N 
ATOM      9  C   UNL     1       7.454  -2.958  25.658  0.00  0.00    +0.000 C 
ATOM     10  C   UNL     1       6.735  -4.151  25.039  0.00  0.00    +0.000 C 
ATOM     11  N   UNL     1       6.611  -3.964  23.609  0.00  0.00    +0.000 N 
ATOM     12  C   UNL     1       5.927  -2.870  23.133  0.00  0.00    +0.000 C 
ATOM     13  C   UNL     1       6.102  -2.521  21.765  0.00  0.00    +0.000 C 
ATOM     14  C   UNL     1       5.866  -1.740  24.159  0.00  0.00    +0.000 C 
BRANCH  11  15
ATOM     15  C   UNL     1       7.132  -4.944  22.686  0.00  0.00    +0.000 C 
ATOM     16  O   UNL     1       8.278  -5.553  23.232  0.00  0.00    +0.000 OA
ATOM     17  C   UNL     1       6.097  -6.039  22.460  0.00  0.00    +0.000 C 
ENDBRANCH  11  15
ENDBRANCH   6   8
BRANCH   1  18
ATOM     18  N   UNL     1       9.120   1.014  24.339  0.00  0.00    +0.000 NA
BRANCH  18  20
ATOM     19  C   UNL     1       9.154   3.433  24.238  0.00  0.00    +0.000 C 
ATOM     20  C   UNL     1       8.511   2.205  24.868  0.00  0.00    +0.000 C 
ENDBRANCH  18  20
ENDBRANCH   1  18
TORSDOF 4
ENDMDL
