MODEL 1
REMARK VINA RESULT:      -7.8      0.000      0.000
REMARK  Name = 
REMARK  8 active torsions:
REMARK  status: ('A' for Active; 'I' for Inactive)
REMARK    1  A    between atoms: C_2  and  C_3
REMARK    2  A    between atoms: C_3  and  C_4
REMARK    3  A    between atoms: C_8  and  C_34
REMARK    4  A    between atoms: C_16  and  C_18
REMARK    5  A    between atoms: N_20  and  C_21
REMARK    6  A    between atoms: C_21  and  C_22
REMARK    7  A    between atoms: C_27  and  N_28
REMARK    8  A    between atoms: N_28  and  C_29
REMARK                            x       y       z     vdW  Elec       q    Type
REMARK                         _______ _______ _______ _____ _____    ______ ____
ROOT
ATOM      1  C   UNL     1       4.961  -4.672  24.416  0.00  0.00    +0.000 C 
ATOM      2  C   UNL     1       5.507  -5.528  25.678  0.00  0.00    +0.000 C 
ATOM      3  C   UNL     1       6.511  -4.346  26.445  0.00  0.00    +0.000 C 
ATOM      4  C   UNL     1       7.121  -3.833  25.168  0.00  0.00    +0.000 C 
ATOM      5  C   UNL     1       5.731  -3.495  24.552  0.00  0.00    +0.000 C 
ATOM      6  C   UNL     1       4.884  -2.829  25.826  0.00  0.00    +0.000 C 
ATOM      7  C   UNL     1       5.046  -1.352  25.929  0.00  0.00    +0.000 C 
ATOM      8  C   UNL     1       6.547  -1.080  25.866  0.00  0.00    +0.000 C 
ATOM      9  C   UNL     1       7.026  -1.454  24.514  0.00  0.00    +0.000 C 
ATOM     10  C   UNL     1       5.815  -2.211  23.709  0.00  0.00    +0.000 C 
ATOM     11  C   UNL     1       7.923  -2.696  24.623  0.00  0.00    +0.000 C 
ATOM     12  C   UNL     1       9.252  -2.478  25.187  0.00  0.00    +0.000 C 
ATOM     13  C   UNL     1       6.867   0.326  26.271  0.00  0.00    +0.000 C 
ATOM     14  O   UNL     1       7.142  -1.953  26.822  0.00  0.00    +0.000 OA
ENDROOT
BRANCH  11  15
ATOM     15  C   UNL     1       8.059  -3.062  23.096  0.00  0.00    +0.000 C 
ATOM     16  O   UNL     1       7.748  -4.211  22.784  0.00  0.00    +0.000 OA
ATOM     17  N   UNL     1       8.784  -2.336  22.269  0.00  0.00    +0.000 NA
BRANCH  17  18
ATOM     18  C   UNL     1       8.916  -1.347  21.512  0.00  0.00    +0.000 C 
BRANCH  18  19
ATOM     19  C   UNL     1       8.537  -0.072  20.967  0.00  0.00    +0.000 C 
ATOM     20  C   UNL     1       7.871   0.190  19.755  0.00  0.00    +0.000 C 
ATOM     21  C   UNL     1       6.499   0.815  19.479  0.00  0.00    +0.000 C 
ATOM     22  C   UNL     1       6.375   1.518  20.869  0.00  0.00    +0.000 C 
ATOM     23  C   UNL     1       7.515   2.034  21.655  0.00  0.00    +0.000 C 
ATOM     24  C   UNL     1       8.649   1.064  22.145  0.00  0.00    +0.000 C 
ATOM     25  F   UNL     1       5.617  -0.176  19.513  0.00  0.00    +0.000 F 
BRANCH  24  26
ATOM     26  N   UNL     1       9.872   1.742  21.934  0.00  0.00    +0.000 NA
BRANCH  26  27
ATOM     27  C   UNL     1      10.407   2.260  23.149  0.00  0.00    +0.000 C 
ATOM     28  C   UNL     1      10.322   1.180  24.232  0.00  0.00    +0.000 C 
ENDBRANCH  26  27
ENDBRANCH  24  26
ENDBRANCH  18  19
ENDBRANCH  17  18
ENDBRANCH  11  15
BRANCH   4  29
ATOM     29  C   UNL     1       7.873  -5.076  24.779  0.00  0.00    +0.000 C 
ATOM     30  O   UNL     1       9.158  -5.074  24.557  0.00  0.00    +0.000 OA
ATOM     31  O   UNL     1       7.928  -5.715  26.115  0.00  0.00    +0.000 OA
ENDBRANCH   4  29
BRANCH   1  32
ATOM     32  C   UNL     1       4.957  -5.470  23.173  0.00  0.00    +0.000 C 
BRANCH  32  34
ATOM     33  O   UNL     1       2.613  -5.133  22.980  0.00  0.00    +0.000 OA
ATOM     34  C   UNL     1       3.571  -6.163  23.048  0.00  0.00    +0.000 C 
ENDBRANCH  32  34
ENDBRANCH   1  32
TORSDOF 8
ENDMDL
MODEL 2
REMARK VINA RESULT:      -7.6      1.166      1.191
REMARK  Name = 
REMARK  8 active torsions:
REMARK  status: ('A' for Active; 'I' for Inactive)
REMARK    1  A    between atoms: C_2  and  C_3
REMARK    2  A    between atoms: C_3  and  C_4
REMARK    3  A    between atoms: C_8  and  C_34
REMARK    4  A    between atoms: C_16  and  C_18
REMARK    5  A    between atoms: N_20  and  C_21
REMARK    6  A    between atoms: C_21  and  C_22
REMARK    7  A    between atoms: C_27  and  N_28
REMARK    8  A    between atoms: N_28  and  C_29
REMARK                            x       y       z     vdW  Elec       q    Type
REMARK                         _______ _______ _______ _____ _____    ______ ____
ROOT
ATOM      1  C   UNL     1       5.620  -5.190  24.363  0.00  0.00    +0.000 C 
ATOM      2  C   UNL     1       5.793  -5.806  25.851  0.00  0.00    +0.000 C 
ATOM      3  C   UNL     1       6.281  -4.391  26.719  0.00  0.00    +0.000 C 
ATOM      4  C   UNL     1       7.230  -3.899  25.659  0.00  0.00    +0.000 C 
ATOM      5  C   UNL     1       6.119  -3.884  24.567  0.00  0.00    +0.000 C 
ATOM      6  C   UNL     1       4.788  -3.267  25.364  0.00  0.00    +0.000 C 
ATOM      7  C   UNL     1       4.694  -1.783  25.286  0.00  0.00    +0.000 C 
ATOM      8  C   UNL     1       6.065  -1.246  25.691  0.00  0.00    +0.000 C 
ATOM      9  C   UNL     1       7.043  -1.652  24.653  0.00  0.00    +0.000 C 
ATOM     10  C   UNL     1       6.318  -2.693  23.614  0.00  0.00    +0.000 C 
ATOM     11  C   UNL     1       8.006  -2.691  25.247  0.00  0.00    +0.000 C 
ATOM     12  C   UNL     1       9.001  -2.178  26.185  0.00  0.00    +0.000 C 
ATOM     13  C   UNL     1       6.020   0.228  25.958  0.00  0.00    +0.000 C 
ATOM     14  O   UNL     1       6.395  -1.898  26.913  0.00  0.00    +0.000 OA
ENDROOT
BRANCH  11  15
ATOM     15  C   UNL     1       8.729  -3.169  23.931  0.00  0.00    +0.000 C 
ATOM     16  O   UNL     1       8.953  -4.376  23.843  0.00  0.00    +0.000 OA
ATOM     17  N   UNL     1       9.372  -2.328  23.145  0.00  0.00    +0.000 NA
BRANCH  17  18
ATOM     18  C   UNL     1       9.378  -1.480  22.225  0.00  0.00    +0.000 C 
BRANCH  18  19
ATOM     19  C   UNL     1       8.974  -0.257  21.586  0.00  0.00    +0.000 C 
ATOM     20  C   UNL     1       8.380  -0.094  20.321  0.00  0.00    +0.000 C 
ATOM     21  C   UNL     1       7.000   0.442  19.922  0.00  0.00    +0.000 C 
ATOM     22  C   UNL     1       6.748   1.209  21.260  0.00  0.00    +0.000 C 
ATOM     23  C   UNL     1       7.805   1.825  22.088  0.00  0.00    +0.000 C 
ATOM     24  C   UNL     1       8.950   0.943  22.704  0.00  0.00    +0.000 C 
ATOM     25  F   UNL     1       6.168  -0.591  19.953  0.00  0.00    +0.000 F 
BRANCH  24  26
ATOM     26  N   UNL     1      10.150   1.673  22.535  0.00  0.00    +0.000 NA
BRANCH  26  27
ATOM     27  C   UNL     1      10.739   2.019  23.786  0.00  0.00    +0.000 C 
ATOM     28  C   UNL     1      10.747   0.784  24.692  0.00  0.00    +0.000 C 
ENDBRANCH  26  27
ENDBRANCH  24  26
ENDBRANCH  18  19
ENDBRANCH  17  18
ENDBRANCH  11  15
BRANCH   4  29
ATOM     29  C   UNL     1       8.236  -5.012  25.742  0.00  0.00    +0.000 C 
ATOM     30  O   UNL     1       9.450  -4.825  26.180  0.00  0.00    +0.000 OA
ATOM     31  O   UNL     1       7.712  -5.679  26.957  0.00  0.00    +0.000 OA
ENDBRANCH   4  29
BRANCH   1  32
ATOM     32  C   UNL     1       6.173  -6.090  23.330  0.00  0.00    +0.000 C 
BRANCH  32  34
ATOM     33  O   UNL     1       6.505  -5.741  21.003  0.00  0.00    +0.000 OA
ATOM     34  C   UNL     1       5.487  -5.749  21.977  0.00  0.00    +0.000 C 
ENDBRANCH  32  34
ENDBRANCH   1  32
TORSDOF 8
ENDMDL
MODEL 3
REMARK VINA RESULT:      -7.5      2.162      3.867
REMARK  Name = 
REMARK  8 active torsions:
REMARK  status: ('A' for Active; 'I' for Inactive)
REMARK    1  A    between atoms: C_2  and  C_3
REMARK    2  A    between atoms: C_3  and  C_4
REMARK    3  A    between atoms: C_8  and  C_34
REMARK    4  A    between atoms: C_16  and  C_18
REMARK    5  A    between atoms: N_20  and  C_21
REMARK    6  A    between atoms: C_21  and  C_22
REMARK    7  A    between atoms: C_27  and  N_28
REMARK    8  A    between atoms: N_28  and  C_29
REMARK                            x       y       z     vdW  Elec       q    Type
REMARK                         _______ _______ _______ _____ _____    ______ ____
ROOT
ATOM      1  C   UNL     1       3.990  -4.281  26.129  0.00  0.00    +0.000 C 
ATOM      2  C   UNL     1       3.801  -5.886  26.223  0.00  0.00    +0.000 C 
ATOM      3  C   UNL     1       5.362  -6.415  25.698  0.00  0.00    +0.000 C 
ATOM      4  C   UNL     1       5.471  -5.425  24.569  0.00  0.00    +0.000 C 
ATOM      5  C   UNL     1       5.263  -4.207  25.519  0.00  0.00    +0.000 C 
ATOM      6  C   UNL     1       6.170  -4.595  26.865  0.00  0.00    +0.000 C 
ATOM      7  C   UNL     1       7.578  -4.114  26.781  0.00  0.00    +0.000 C 
ATOM      8  C   UNL     1       8.106  -4.572  25.423  0.00  0.00    +0.000 C 
ATOM      9  C   UNL     1       7.358  -3.845  24.370  0.00  0.00    +0.000 C 
ATOM     10  C   UNL     1       6.125  -3.017  25.064  0.00  0.00    +0.000 C 
ATOM     11  C   UNL     1       6.459  -4.835  23.616  0.00  0.00    +0.000 C 
ATOM     12  C   UNL     1       7.139  -5.748  22.701  0.00  0.00    +0.000 C 
ATOM     13  C   UNL     1       9.595  -4.431  25.338  0.00  0.00    +0.000 C 
ATOM     14  O   UNL     1       7.796  -5.959  25.332  0.00  0.00    +0.000 OA
ENDROOT
BRANCH  11  15
ATOM     15  C   UNL     1       5.583  -3.822  22.785  0.00  0.00    +0.000 C 
ATOM     16  O   UNL     1       4.378  -4.063  22.733  0.00  0.00    +0.000 OA
ATOM     17  N   UNL     1       6.120  -2.990  21.914  0.00  0.00    +0.000 NA
BRANCH  17  18
ATOM     18  C   UNL     1       6.696  -1.913  21.645  0.00  0.00    +0.000 C 
BRANCH  18  19
ATOM     19  C   UNL     1       7.380  -0.691  21.972  0.00  0.00    +0.000 C 
ATOM     20  C   UNL     1       7.542  -0.099  23.238  0.00  0.00    +0.000 C 
ATOM     21  C   UNL     1       8.805   0.175  24.063  0.00  0.00    +0.000 C 
ATOM     22  C   UNL     1       9.790   0.098  22.854  0.00  0.00    +0.000 C 
ATOM     23  C   UNL     1       9.455   0.490  21.470  0.00  0.00    +0.000 C 
ATOM     24  C   UNL     1       8.302  -0.240  20.692  0.00  0.00    +0.000 C 
ATOM     25  F   UNL     1       9.040  -0.922  24.772  0.00  0.00    +0.000 F 
BRANCH  24  26
ATOM     26  N   UNL     1       7.579   0.769  20.013  0.00  0.00    +0.000 NA
BRANCH  26  27
ATOM     27  C   UNL     1       7.003   0.284  18.803  0.00  0.00    +0.000 C 
ATOM     28  C   UNL     1       5.507   0.614  18.796  0.00  0.00    +0.000 C 
ENDBRANCH  26  27
ENDBRANCH  24  26
ENDBRANCH  18  19
ENDBRANCH  17  18
ENDBRANCH  11  15
BRANCH   4  29
ATOM     29  C   UNL     1       4.355  -5.955  23.713  0.00  0.00    +0.000 C 
ATOM     30  O   UNL     1       4.526  -6.270  22.460  0.00  0.00    +0.000 OA
ATOM     31  O   UNL     1       4.327  -7.340  24.240  0.00  0.00    +0.000 OA
ENDBRANCH   4  29
BRANCH   1  32
ATOM     32  C   UNL     1       2.802  -3.621  25.551  0.00  0.00    +0.000 C 
BRANCH  32  34
ATOM     33  O   UNL     1       3.143  -1.439  26.430  0.00  0.00    +0.000 OA
ATOM     34  C   UNL     1       2.297  -2.558  26.567  0.00  0.00    +0.000 C 
ENDBRANCH  32  34
ENDBRANCH   1  32
TORSDOF 8
ENDMDL
MODEL 4
REMARK VINA RESULT:      -7.0      2.907      6.725
REMARK  Name = 
REMARK  8 active torsions:
REMARK  status: ('A' for Active; 'I' for Inactive)
REMARK    1  A    between atoms: C_2  and  C_3
REMARK    2  A    between atoms: C_3  and  C_4
REMARK    3  A    between atoms: C_8  and  C_34
REMARK    4  A    between atoms: C_16  and  C_18
REMARK    5  A    between atoms: N_20  and  C_21
REMARK    6  A    between atoms: C_21  and  C_22
REMARK    7  A    between atoms: C_27  and  N_28
REMARK    8  A    between atoms: N_28  and  C_29
REMARK                            x       y       z     vdW  Elec       q    Type
REMARK                         _______ _______ _______ _____ _____    ______ ____
ROOT
ATOM      1  C   UNL     1       7.492   2.667  24.795  0.00  0.00    +0.000 C 
ATOM      2  C   UNL     1       8.850   3.503  24.517  0.00  0.00    +0.000 C 
ATOM      3  C   UNL     1       9.357   2.786  23.026  0.00  0.00    +0.000 C 
ATOM      4  C   UNL     1       9.049   1.372  23.441  0.00  0.00    +0.000 C 
ATOM      5  C   UNL     1       7.561   1.710  23.757  0.00  0.00    +0.000 C 
ATOM      6  C   UNL     1       7.109   2.717  22.506  0.00  0.00    +0.000 C 
ATOM      7  C   UNL     1       6.551   1.984  21.335  0.00  0.00    +0.000 C 
ATOM      8  C   UNL     1       7.545   0.870  21.015  0.00  0.00    +0.000 C 
ATOM      9  C   UNL     1       7.540  -0.091  22.145  0.00  0.00    +0.000 C 
ATOM     10  C   UNL     1       6.649   0.533  23.372  0.00  0.00    +0.000 C 
ATOM     11  C   UNL     1       8.882  -0.005  22.885  0.00  0.00    +0.000 C 
ATOM     12  C   UNL     1      10.028  -0.598  22.201  0.00  0.00    +0.000 C 
ATOM     13  C   UNL     1       7.268   0.255  19.677  0.00  0.00    +0.000 C 
ATOM     14  O   UNL     1       8.823   1.494  20.949  0.00  0.00    +0.000 OA
ENDROOT
BRANCH  11  15
ATOM     15  C   UNL     1       8.538  -0.860  24.163  0.00  0.00    +0.000 C 
ATOM     16  O   UNL     1       8.836  -0.360  25.247  0.00  0.00    +0.000 OA
ATOM     17  N   UNL     1       8.288  -2.152  24.089  0.00  0.00    +0.000 NA
BRANCH  17  18
ATOM     18  C   UNL     1       7.501  -3.102  23.875  0.00  0.00    +0.000 C 
BRANCH  18  19
ATOM     19  C   UNL     1       6.407  -3.755  23.210  0.00  0.00    +0.000 C 
ATOM     20  C   UNL     1       6.326  -4.160  21.865  0.00  0.00    +0.000 C 
ATOM     21  C   UNL     1       6.194  -5.555  21.244  0.00  0.00    +0.000 C 
ATOM     22  C   UNL     1       5.649  -6.241  22.537  0.00  0.00    +0.000 C 
ATOM     23  C   UNL     1       4.815  -5.572  23.557  0.00  0.00    +0.000 C 
ATOM     24  C   UNL     1       5.363  -4.326  24.340  0.00  0.00    +0.000 C 
ATOM     25  F   UNL     1       7.427  -6.023  21.097  0.00  0.00    +0.000 F 
BRANCH  24  26
ATOM     26  N   UNL     1       4.297  -3.398  24.407  0.00  0.00    +0.000 NA
BRANCH  26  27
ATOM     27  C   UNL     1       4.089  -2.927  25.736  0.00  0.00    +0.000 C 
ATOM     28  C   UNL     1       4.877  -1.629  25.935  0.00  0.00    +0.000 C 
ENDBRANCH  26  27
ENDBRANCH  24  26
ENDBRANCH  18  19
ENDBRANCH  17  18
ENDBRANCH  11  15
BRANCH   4  29
ATOM     29  C   UNL     1      10.075   1.242  24.531  0.00  0.00    +0.000 C 
ATOM     30  O   UNL     1      10.957   0.282  24.549  0.00  0.00    +0.000 OA
ATOM     31  O   UNL     1      10.994   2.316  24.083  0.00  0.00    +0.000 OA
ENDBRANCH   4  29
BRANCH   1  32
ATOM     32  C   UNL     1       7.368   2.277  26.215  0.00  0.00    +0.000 C 
BRANCH  32  34
ATOM     33  O   UNL     1       7.404   4.074  27.769  0.00  0.00    +0.000 OA
ATOM     34  C   UNL     1       6.518   3.359  26.940  0.00  0.00    +0.000 C 
ENDBRANCH  32  34
ENDBRANCH   1  32
TORSDOF 8
ENDMDL
MODEL 5
REMARK VINA RESULT:      -7.0      3.374      7.376
REMARK  Name = 
REMARK  8 active torsions:
REMARK  status: ('A' for Active; 'I' for Inactive)
REMARK    1  A    between atoms: C_2  and  C_3
REMARK    2  A    between atoms: C_3  and  C_4
REMARK    3  A    between atoms: C_8  and  C_34
REMARK    4  A    between atoms: C_16  and  C_18
REMARK    5  A    between atoms: N_20  and  C_21
REMARK    6  A    between atoms: C_21  and  C_22
REMARK    7  A    between atoms: C_27  and  N_28
REMARK    8  A    between atoms: N_28  and  C_29
REMARK                            x       y       z     vdW  Elec       q    Type
REMARK                         _______ _______ _______ _____ _____    ______ ____
ROOT
ATOM      1  C   UNL     1       7.935   3.176  24.327  0.00  0.00    +0.000 C 
ATOM      2  C   UNL     1       9.389   3.677  23.817  0.00  0.00    +0.000 C 
ATOM      3  C   UNL     1       9.715   2.494  22.596  0.00  0.00    +0.000 C 
ATOM      4  C   UNL     1       9.219   1.324  23.403  0.00  0.00    +0.000 C 
ATOM      5  C   UNL     1       7.814   1.965  23.609  0.00  0.00    +0.000 C 
ATOM      6  C   UNL     1       7.460   2.630  22.120  0.00  0.00    +0.000 C 
ATOM      7  C   UNL     1       6.746   1.689  21.213  0.00  0.00    +0.000 C 
ATOM      8  C   UNL     1       7.548   0.389  21.228  0.00  0.00    +0.000 C 
ATOM      9  C   UNL     1       7.452  -0.196  22.587  0.00  0.00    +0.000 C 
ATOM     10  C   UNL     1       6.721   0.884  23.582  0.00  0.00    +0.000 C 
ATOM     11  C   UNL     1       8.825  -0.111  23.270  0.00  0.00    +0.000 C 
ATOM     12  C   UNL     1       9.838  -1.046  22.786  0.00  0.00    +0.000 C 
ATOM     13  C   UNL     1       7.122  -0.531  20.125  0.00  0.00    +0.000 C 
ATOM     14  O   UNL     1       8.900   0.763  20.983  0.00  0.00    +0.000 OA
ENDROOT
BRANCH  11  15
ATOM     15  C   UNL     1       8.417  -0.502  24.741  0.00  0.00    +0.000 C 
ATOM     16  O   UNL     1       8.587   0.364  25.598  0.00  0.00    +0.000 OA
ATOM     17  N   UNL     1       8.249  -1.757  25.106  0.00  0.00    +0.000 NA
BRANCH  17  18
ATOM     18  C   UNL     1       7.540  -2.786  25.187  0.00  0.00    +0.000 C 
BRANCH  18  19
ATOM     19  C   UNL     1       7.315  -4.195  25.362  0.00  0.00    +0.000 C 
ATOM     20  C   UNL     1       7.604  -4.986  26.489  0.00  0.00    +0.000 C 
ATOM     21  C   UNL     1       6.679  -5.763  27.433  0.00  0.00    +0.000 C 
ATOM     22  C   UNL     1       5.474  -5.825  26.441  0.00  0.00    +0.000 C 
ATOM     23  C   UNL     1       5.597  -5.883  24.970  0.00  0.00    +0.000 C 
ATOM     24  C   UNL     1       6.303  -4.721  24.184  0.00  0.00    +0.000 C 
ATOM     25  F   UNL     1       6.304  -4.913  28.381  0.00  0.00    +0.000 F 
BRANCH  24  26
ATOM     26  N   UNL     1       7.114  -5.339  23.203  0.00  0.00    +0.000 NA
BRANCH  26  27
ATOM     27  C   UNL     1       6.747  -4.943  21.885  0.00  0.00    +0.000 C 
ATOM     28  C   UNL     1       5.972  -3.624  21.958  0.00  0.00    +0.000 C 
ENDBRANCH  26  27
ENDBRANCH  24  26
ENDBRANCH  18  19
ENDBRANCH  17  18
ENDBRANCH  11  15
BRANCH   4  29
ATOM     29  C   UNL     1      10.264   1.353  24.483  0.00  0.00    +0.000 C 
ATOM     30  O   UNL     1      11.100   0.371  24.673  0.00  0.00    +0.000 OA
ATOM     31  O   UNL     1      11.222   2.272  23.824  0.00  0.00    +0.000 OA
ENDBRANCH   4  29
BRANCH   1  32
ATOM     32  C   UNL     1       7.820   3.233  25.798  0.00  0.00    +0.000 C 
BRANCH  32  34
ATOM     33  O   UNL     1       8.232   5.409  26.660  0.00  0.00    +0.000 OA
ATOM     34  C   UNL     1       7.184   4.599  26.181  0.00  0.00    +0.000 C 
ENDBRANCH  32  34
ENDBRANCH   1  32
TORSDOF 8
ENDMDL
MODEL 6
REMARK VINA RESULT:      -6.9      1.748      3.090
REMARK  Name = 
REMARK  8 active torsions:
REMARK  status: ('A' for Active; 'I' for Inactive)
REMARK    1  A    between atoms: C_2  and  C_3
REMARK    2  A    between atoms: C_3  and  C_4
REMARK    3  A    between atoms: C_8  and  C_34
REMARK    4  A    between atoms: C_16  and  C_18
REMARK    5  A    between atoms: N_20  and  C_21
REMARK    6  A    between atoms: C_21  and  C_22
REMARK    7  A    between atoms: C_27  and  N_28
REMARK    8  A    between atoms: N_28  and  C_29
REMARK                            x       y       z     vdW  Elec       q    Type
REMARK                         _______ _______ _______ _____ _____    ______ ____
ROOT
ATOM      1  C   UNL     1       4.196  -4.109  26.112  0.00  0.00    +0.000 C 
ATOM      2  C   UNL     1       3.889  -5.699  26.135  0.00  0.00    +0.000 C 
ATOM      3  C   UNL     1       5.413  -6.320  25.602  0.00  0.00    +0.000 C 
ATOM      4  C   UNL     1       5.608  -5.294  24.518  0.00  0.00    +0.000 C 
ATOM      5  C   UNL     1       5.478  -4.105  25.516  0.00  0.00    +0.000 C 
ATOM      6  C   UNL     1       6.338  -4.614  26.853  0.00  0.00    +0.000 C 
ATOM      7  C   UNL     1       7.778  -4.236  26.802  0.00  0.00    +0.000 C 
ATOM      8  C   UNL     1       8.288  -4.674  25.430  0.00  0.00    +0.000 C 
ATOM      9  C   UNL     1       7.608  -3.851  24.402  0.00  0.00    +0.000 C 
ATOM     10  C   UNL     1       6.431  -2.964  25.120  0.00  0.00    +0.000 C 
ATOM     11  C   UNL     1       6.647  -4.739  23.599  0.00  0.00    +0.000 C 
ATOM     12  C   UNL     1       7.270  -5.661  22.652  0.00  0.00    +0.000 C 
ATOM     13  C   UNL     1       9.784  -4.640  25.364  0.00  0.00    +0.000 C 
ATOM     14  O   UNL     1       7.878  -6.030  25.277  0.00  0.00    +0.000 OA
ENDROOT
BRANCH  11  15
ATOM     15  C   UNL     1       5.859  -3.631  22.804  0.00  0.00    +0.000 C 
ATOM     16  O   UNL     1       4.639  -3.778  22.733  0.00  0.00    +0.000 OA
ATOM     17  N   UNL     1       6.465  -2.807  21.971  0.00  0.00    +0.000 NA
BRANCH  17  18
ATOM     18  C   UNL     1       7.123  -1.766  21.751  0.00  0.00    +0.000 C 
BRANCH  18  19
ATOM     19  C   UNL     1       7.368  -0.494  21.127  0.00  0.00    +0.000 C 
ATOM     20  C   UNL     1       7.578  -0.224  19.762  0.00  0.00    +0.000 C 
ATOM     21  C   UNL     1       6.755   0.599  18.764  0.00  0.00    +0.000 C 
ATOM     22  C   UNL     1       5.990   1.423  19.847  0.00  0.00    +0.000 C 
ATOM     23  C   UNL     1       6.544   1.802  21.163  0.00  0.00    +0.000 C 
ATOM     24  C   UNL     1       6.990   0.699  22.187  0.00  0.00    +0.000 C 
ATOM     25  F   UNL     1       5.850  -0.225  18.250  0.00  0.00    +0.000 F 
BRANCH  24  26
ATOM     26  N   UNL     1       8.213   1.143  22.744  0.00  0.00    +0.000 NA
BRANCH  26  27
ATOM     27  C   UNL     1       8.264   0.926  24.151  0.00  0.00    +0.000 C 
ATOM     28  C   UNL     1       9.211  -0.241  24.443  0.00  0.00    +0.000 C 
ENDBRANCH  26  27
ENDBRANCH  24  26
ENDBRANCH  18  19
ENDBRANCH  17  18
ENDBRANCH  11  15
BRANCH   4  29
ATOM     29  C   UNL     1       4.466  -5.704  23.630  0.00  0.00    +0.000 C 
ATOM     30  O   UNL     1       4.624  -5.950  22.360  0.00  0.00    +0.000 OA
ATOM     31  O   UNL     1       4.356  -7.115  24.069  0.00  0.00    +0.000 OA
ENDBRANCH   4  29
BRANCH   1  32
ATOM     32  C   UNL     1       3.067  -3.340  25.551  0.00  0.00    +0.000 C 
BRANCH  32  34
ATOM     33  O   UNL     1       3.480  -1.149  26.375  0.00  0.00    +0.000 OA
ATOM     34  C   UNL     1       2.649  -2.266  26.594  0.00  0.00    +0.000 C 
ENDBRANCH  32  34
ENDBRANCH   1  32
TORSDOF 8
ENDMDL
MODEL 7
REMARK VINA RESULT:      -6.9      3.029      6.589
REMARK  Name = 
REMARK  8 active torsions:
REMARK  status: ('A' for Active; 'I' for Inactive)
REMARK    1  A    between atoms: C_2  and  C_3
REMARK    2  A    between atoms: C_3  and  C_4
REMARK    3  A    between atoms: C_8  and  C_34
REMARK    4  A    between atoms: C_16  and  C_18
REMARK    5  A    between atoms: N_20  and  C_21
REMARK    6  A    between atoms: C_21  and  C_22
REMARK    7  A    between atoms: C_27  and  N_28
REMARK    8  A    between atoms: N_28  and  C_29
REMARK                            x       y       z     vdW  Elec       q    Type
REMARK                         _______ _______ _______ _____ _____    ______ ____
ROOT
ATOM      1  C   UNL     1       6.943   2.636  22.264  0.00  0.00    +0.000 C 
ATOM      2  C   UNL     1       7.720   3.633  23.276  0.00  0.00    +0.000 C 
ATOM      3  C   UNL     1       8.869   2.541  23.969  0.00  0.00    +0.000 C 
ATOM      4  C   UNL     1       7.894   1.406  24.139  0.00  0.00    +0.000 C 
ATOM      5  C   UNL     1       7.523   1.400  22.626  0.00  0.00    +0.000 C 
ATOM      6  C   UNL     1       8.988   1.616  21.857  0.00  0.00    +0.000 C 
ATOM      7  C   UNL     1       9.684   0.335  21.552  0.00  0.00    +0.000 C 
ATOM      8  C   UNL     1       9.684  -0.472  22.848  0.00  0.00    +0.000 C 
ATOM      9  C   UNL     1       8.282  -0.831  23.167  0.00  0.00    +0.000 C 
ATOM     10  C   UNL     1       7.280  -0.039  22.138  0.00  0.00    +0.000 C 
ATOM     11  C   UNL     1       7.837  -0.061  24.419  0.00  0.00    +0.000 C 
ATOM     12  C   UNL     1       8.393  -0.526  25.687  0.00  0.00    +0.000 C 
ATOM     13  C   UNL     1      10.620  -1.639  22.768  0.00  0.00    +0.000 C 
ATOM     14  O   UNL     1      10.174   0.408  23.856  0.00  0.00    +0.000 OA
ENDROOT
BRANCH  11  15
ATOM     15  C   UNL     1       6.291  -0.365  24.385  0.00  0.00    +0.000 C 
ATOM     16  O   UNL     1       5.545   0.605  24.511  0.00  0.00    +0.000 OA
ATOM     17  N   UNL     1       5.817  -1.580  24.573  0.00  0.00    +0.000 NA
BRANCH  17  18
ATOM     18  C   UNL     1       5.526  -2.718  24.140  0.00  0.00    +0.000 C 
BRANCH  18  19
ATOM     19  C   UNL     1       5.811  -4.081  23.783  0.00  0.00    +0.000 C 
ATOM     20  C   UNL     1       5.254  -4.838  22.735  0.00  0.00    +0.000 C 
ATOM     21  C   UNL     1       5.901  -5.453  21.489  0.00  0.00    +0.000 C 
ATOM     22  C   UNL     1       7.358  -5.432  22.053  0.00  0.00    +0.000 C 
ATOM     23  C   UNL     1       7.709  -5.584  23.480  0.00  0.00    +0.000 C 
ATOM     24  C   UNL     1       7.186  -4.553  24.543  0.00  0.00    +0.000 C 
ATOM     25  F   UNL     1       5.880  -4.515  20.549  0.00  0.00    +0.000 F 
BRANCH  24  26
ATOM     26  N   UNL     1       6.783  -5.311  25.667  0.00  0.00    +0.000 NA
BRANCH  26  27
ATOM     27  C   UNL     1       7.741  -5.245  26.721  0.00  0.00    +0.000 C 
ATOM     28  C   UNL     1       8.641  -4.026  26.502  0.00  0.00    +0.000 C 
ENDBRANCH  26  27
ENDBRANCH  24  26
ENDBRANCH  18  19
ENDBRANCH  17  18
ENDBRANCH  11  15
BRANCH   4  29
ATOM     29  C   UNL     1       7.001   2.045  25.166  0.00  0.00    +0.000 C 
ATOM     30  O   UNL     1       6.868   1.565  26.371  0.00  0.00    +0.000 OA
ATOM     31  O   UNL     1       7.878   3.184  25.527  0.00  0.00    +0.000 OA
ENDBRANCH   4  29
BRANCH   1  32
ATOM     32  C   UNL     1       5.482   2.857  22.290  0.00  0.00    +0.000 C 
BRANCH  32  34
ATOM     33  O   UNL     1       4.374   4.139  23.955  0.00  0.00    +0.000 OA
ATOM     34  C   UNL     1       5.219   4.288  22.838  0.00  0.00    +0.000 C 
ENDBRANCH  32  34
ENDBRANCH   1  32
TORSDOF 8
ENDMDL
MODEL 8
REMARK VINA RESULT:      -6.8      3.098      7.057
REMARK  Name = 
REMARK  8 active torsions:
REMARK  status: ('A' for Active; 'I' for Inactive)
REMARK    1  A    between atoms: C_2  and  C_3
REMARK    2  A    between atoms: C_3  and  C_4
REMARK    3  A    between atoms: C_8  and  C_34
REMARK    4  A    between atoms: C_16  and  C_18
REMARK    5  A    between atoms: N_20  and  C_21
REMARK    6  A    between atoms: C_21  and  C_22
REMARK    7  A    between atoms: C_27  and  N_28
REMARK    8  A    between atoms: N_28  and  C_29
REMARK                            x       y       z     vdW  Elec       q    Type
REMARK                         _______ _______ _______ _____ _____    ______ ____
ROOT
ATOM      1  C   UNL     1       7.346   2.648  22.129  0.00  0.00    +0.000 C 
ATOM      2  C   UNL     1       8.313   3.640  22.967  0.00  0.00    +0.000 C 
ATOM      3  C   UNL     1       9.350   2.488  23.736  0.00  0.00    +0.000 C 
ATOM      4  C   UNL     1       8.247   1.529  24.096  0.00  0.00    +0.000 C 
ATOM      5  C   UNL     1       7.779   1.394  22.616  0.00  0.00    +0.000 C 
ATOM      6  C   UNL     1       9.207   1.310  21.755  0.00  0.00    +0.000 C 
ATOM      7  C   UNL     1       9.705  -0.082  21.581  0.00  0.00    +0.000 C 
ATOM      8  C   UNL     1       9.684  -0.721  22.968  0.00  0.00    +0.000 C 
ATOM      9  C   UNL     1       8.270  -0.840  23.399  0.00  0.00    +0.000 C 
ATOM     10  C   UNL     1       7.317  -0.044  22.327  0.00  0.00    +0.000 C 
ATOM     11  C   UNL     1       8.015   0.129  24.563  0.00  0.00    +0.000 C 
ATOM     12  C   UNL     1       8.586  -0.256  25.851  0.00  0.00    +0.000 C 
ATOM     13  C   UNL     1      10.449  -2.008  22.991  0.00  0.00    +0.000 C 
ATOM     14  O   UNL     1      10.351   0.195  23.830  0.00  0.00    +0.000 OA
ENDROOT
BRANCH  11  15
ATOM     15  C   UNL     1       6.443   0.041  24.644  0.00  0.00    +0.000 C 
ATOM     16  O   UNL     1       5.844   1.114  24.710  0.00  0.00    +0.000 OA
ATOM     17  N   UNL     1       5.825  -1.073  24.980  0.00  0.00    +0.000 NA
BRANCH  17  18
ATOM     18  C   UNL     1       5.356  -2.195  24.682  0.00  0.00    +0.000 C 
BRANCH  18  19
ATOM     19  C   UNL     1       5.213  -3.362  23.856  0.00  0.00    +0.000 C 
ATOM     20  C   UNL     1       5.616  -3.534  22.519  0.00  0.00    +0.000 C 
ATOM     21  C   UNL     1       6.651  -4.477  21.896  0.00  0.00    +0.000 C 
ATOM     22  C   UNL     1       6.671  -5.483  23.091  0.00  0.00    +0.000 C 
ATOM     23  C   UNL     1       5.513  -5.782  23.959  0.00  0.00    +0.000 C 
ATOM     24  C   UNL     1       4.842  -4.645  24.809  0.00  0.00    +0.000 C 
ATOM     25  F   UNL     1       7.819  -3.849  21.953  0.00  0.00    +0.000 F 
BRANCH  24  26
ATOM     26  N   UNL     1       3.445  -4.837  24.698  0.00  0.00    +0.000 NA
BRANCH  26  27
ATOM     27  C   UNL     1       3.128  -5.964  23.885  0.00  0.00    +0.000 C 
ATOM     28  C   UNL     1       1.861  -5.660  23.080  0.00  0.00    +0.000 C 
ENDBRANCH  26  27
ENDBRANCH  24  26
ENDBRANCH  18  19
ENDBRANCH  17  18
ENDBRANCH  11  15
BRANCH   4  29
ATOM     29  C   UNL     1       7.517   2.404  25.076  0.00  0.00    +0.000 C 
ATOM     30  O   UNL     1       7.414   2.102  26.340  0.00  0.00    +0.000 OA
ATOM     31  O   UNL     1       8.550   3.455  25.230  0.00  0.00    +0.000 OA
ENDBRANCH   4  29
BRANCH   1  32
ATOM     32  C   UNL     1       5.932   3.072  22.198  0.00  0.00    +0.000 C 
BRANCH  32  34
ATOM     33  O   UNL     1       4.981   4.570  23.779  0.00  0.00    +0.000 OA
ATOM     34  C   UNL     1       5.893   4.541  22.705  0.00  0.00    +0.000 C 
ENDBRANCH  32  34
ENDBRANCH   1  32
TORSDOF 8
ENDMDL
MODEL 9
REMARK VINA RESULT:      -6.8      3.120      6.840
REMARK  Name = 
REMARK  8 active torsions:
REMARK  status: ('A' for Active; 'I' for Inactive)
REMARK    1  A    between atoms: C_2  and  C_3
REMARK    2  A    between atoms: C_3  and  C_4
REMARK    3  A    between atoms: C_8  and  C_34
REMARK    4  A    between atoms: C_16  and  C_18
REMARK    5  A    between atoms: N_20  and  C_21
REMARK    6  A    between atoms: C_21  and  C_22
REMARK    7  A    between atoms: C_27  and  N_28
REMARK    8  A    between atoms: N_28  and  C_29
REMARK                            x       y       z     vdW  Elec       q    Type
REMARK                         _______ _______ _______ _____ _____    ______ ____
ROOT
ATOM      1  C   UNL     1       7.656   1.313  21.319  0.00  0.00    +0.000 C 
ATOM      2  C   UNL     1       8.545   2.514  21.944  0.00  0.00    +0.000 C 
ATOM      3  C   UNL     1       9.429   1.649  23.155  0.00  0.00    +0.000 C 
ATOM      4  C   UNL     1       8.253   0.842  23.634  0.00  0.00    +0.000 C 
ATOM      5  C   UNL     1       7.974   0.266  22.213  0.00  0.00    +0.000 C 
ATOM      6  C   UNL     1       9.496  -0.071  21.617  0.00  0.00    +0.000 C 
ATOM      7  C   UNL     1       9.959  -1.451  21.936  0.00  0.00    +0.000 C 
ATOM      8  C   UNL     1       9.734  -1.641  23.435  0.00  0.00    +0.000 C 
ATOM      9  C   UNL     1       8.273  -1.627  23.687  0.00  0.00    +0.000 C 
ATOM     10  C   UNL     1       7.498  -1.193  22.308  0.00  0.00    +0.000 C 
ATOM     11  C   UNL     1       7.908  -0.353  24.462  0.00  0.00    +0.000 C 
ATOM     12  C   UNL     1       8.294  -0.329  25.871  0.00  0.00    +0.000 C 
ATOM     13  C   UNL     1      10.440  -2.860  23.945  0.00  0.00    +0.000 C 
ATOM     14  O   UNL     1      10.320  -0.506  24.064  0.00  0.00    +0.000 OA
ENDROOT
BRANCH  11  15
ATOM     15  C   UNL     1       6.337  -0.415  24.354  0.00  0.00    +0.000 C 
ATOM     16  O   UNL     1       5.764   0.658  24.164  0.00  0.00    +0.000 OA
ATOM     17  N   UNL     1       5.650  -1.453  24.787  0.00  0.00    +0.000 NA
BRANCH  17  18
ATOM     18  C   UNL     1       5.191  -2.605  24.620  0.00  0.00    +0.000 C 
BRANCH  18  19
ATOM     19  C   UNL     1       5.291  -4.017  24.370  0.00  0.00    +0.000 C 
ATOM     20  C   UNL     1       5.818  -5.013  25.213  0.00  0.00    +0.000 C 
ATOM     21  C   UNL     1       5.148  -6.219  25.882  0.00  0.00    +0.000 C 
ATOM     22  C   UNL     1       3.924  -6.264  24.912  0.00  0.00    +0.000 C 
ATOM     23  C   UNL     1       3.963  -5.866  23.490  0.00  0.00    +0.000 C 
ATOM     24  C   UNL     1       4.345  -4.397  23.085  0.00  0.00    +0.000 C 
ATOM     25  F   UNL     1       4.658  -5.787  27.038  0.00  0.00    +0.000 F 
BRANCH  24  26
ATOM     26  N   UNL     1       5.208  -4.504  21.969  0.00  0.00    +0.000 NA
BRANCH  26  27
ATOM     27  C   UNL     1       5.697  -5.832  21.802  0.00  0.00    +0.000 C 
ATOM     28  C   UNL     1       7.213  -5.783  21.590  0.00  0.00    +0.000 C 
ENDBRANCH  26  27
ENDBRANCH  24  26
ENDBRANCH  18  19
ENDBRANCH  17  18
ENDBRANCH  11  15
BRANCH   4  29
ATOM     29  C   UNL     1       7.437   1.970  24.199  0.00  0.00    +0.000 C 
ATOM     30  O   UNL     1       7.180   2.076  25.473  0.00  0.00    +0.000 OA
ATOM     31  O   UNL     1       8.473   3.028  24.141  0.00  0.00    +0.000 OA
ENDBRANCH   4  29
BRANCH   1  32
ATOM     32  C   UNL     1       6.263   1.735  21.068  0.00  0.00    +0.000 C 
BRANCH  32  34
ATOM     33  O   UNL     1       7.010   0.661  19.084  0.00  0.00    +0.000 OA
ATOM     34  C   UNL     1       5.864   1.261  19.642  0.00  0.00    +0.000 C 
ENDBRANCH  32  34
ENDBRANCH   1  32
TORSDOF 8
ENDMDL
