MODEL 1
REMARK VINA RESULT:      -6.3      0.000      0.000
REMARK  Name = 
REMARK  7 active torsions:
REMARK  status: ('A' for Active; 'I' for Inactive)
REMARK    1  A    between atoms: C_2  and  C_3
REMARK    2  A    between atoms: C_3  and  C_4
REMARK    3  A    between atoms: C_5  and  N_6
REMARK    4  A    between atoms: C_13  and  O_21
REMARK    5  A    between atoms: C_14  and  C_17
REMARK    6  A    between atoms: O_21  and  C_22
REMARK    7  A    between atoms: C_22  and  C_23
REMARK                            x       y       z     vdW  Elec       q    Type
REMARK                         _______ _______ _______ _____ _____    ______ ____
ROOT
ATOM      1  C   UNL     1       9.004  -3.104  23.364  0.00  0.00    +0.000 C 
ATOM      2  C   UNL     1       7.727  -2.575  22.974  0.00  0.00    +0.000 C 
ATOM      3  C   UNL     1       7.770  -1.026  22.581  0.00  0.00    +0.000 C 
ATOM      4  C   UNL     1       9.230  -0.702  23.239  0.00  0.00    +0.000 C 
ATOM      5  C   UNL     1       9.987  -1.851  23.455  0.00  0.00    +0.000 C 
ATOM      6  O   UNL     1      11.252  -2.275  22.964  0.00  0.00    +0.000 OA
ENDROOT
BRANCH   2   7
ATOM      7  N   UNL     1       6.925  -3.248  21.993  0.00  0.00    +0.000 N 
ATOM      8  C   UNL     1       5.475  -2.833  22.194  0.00  0.00    +0.000 C 
ATOM      9  C   UNL     1       5.155  -3.141  23.628  0.00  0.00    +0.000 C 
ATOM     10  C   UNL     1       5.571  -4.468  24.126  0.00  0.00    +0.000 C 
ATOM     11  C   UNL     1       6.807  -5.070  23.552  0.00  0.00    +0.000 C 
ATOM     12  C   UNL     1       7.028  -4.734  22.097  0.00  0.00    +0.000 C 
ATOM     13  O   UNL     1       5.754  -4.379  25.537  0.00  0.00    +0.000 OA
ENDBRANCH   2   7
BRANCH   4  14
ATOM     14  C   UNL     1       9.124   0.556  24.092  0.00  0.00    +0.000 C 
ATOM     15  C   UNL     1      10.126   0.381  25.243  0.00  0.00    +0.000 C 
ATOM     16  C   UNL     1       9.532   1.747  23.253  0.00  0.00    +0.000 C 
ATOM     17  C   UNL     1       7.743   0.731  24.658  0.00  0.00    +0.000 C 
ENDBRANCH   4  14
BRANCH   1  18
ATOM     18  C   UNL     1       9.281  -3.863  24.736  0.00  0.00    +0.000 C 
BRANCH  18  20
ATOM     19  N   UNL     1       8.107  -2.338  26.524  0.00  0.00    +0.000 NA
ATOM     20  C   UNL     1       8.773  -2.935  25.765  0.00  0.00    +0.000 C 
ENDBRANCH  18  20
ENDBRANCH   1  18
BRANCH   3  21
ATOM     21  O   UNL     1       8.087  -1.032  21.213  0.00  0.00    +0.000 OA
BRANCH  21  22
ATOM     22  C   UNL     1       7.630   0.135  20.617  0.00  0.00    +0.000 C 
ATOM     23  F   UNL     1       8.620   1.075  20.517  0.00  0.00    +0.000 F 
ATOM     24  C   UNL     1       6.483   0.678  21.467  0.00  0.00    +0.000 C 
BRANCH  22  25
ATOM     25  C   UNL     1       7.070  -0.171  19.246  0.00  0.00    +0.000 C 
ATOM     26  O   UNL     1       7.569   0.261  18.234  0.00  0.00    +0.000 OA
ATOM     27  N   UNL     1       5.912  -0.861  19.223  0.00  0.00    +0.000 NA
ENDBRANCH  22  25
ENDBRANCH  21  22
ENDBRANCH   3  21
TORSDOF 7
ENDMDL
MODEL 2
REMARK VINA RESULT:      -6.2      2.896      6.310
REMARK  Name = 
REMARK  7 active torsions:
REMARK  status: ('A' for Active; 'I' for Inactive)
REMARK    1  A    between atoms: C_2  and  C_3
REMARK    2  A    between atoms: C_3  and  C_4
REMARK    3  A    between atoms: C_5  and  N_6
REMARK    4  A    between atoms: C_13  and  O_21
REMARK    5  A    between atoms: C_14  and  C_17
REMARK    6  A    between atoms: O_21  and  C_22
REMARK    7  A    between atoms: C_22  and  C_23
REMARK                            x       y       z     vdW  Elec       q    Type
REMARK                         _______ _______ _______ _____ _____    ______ ____
ROOT
ATOM      1  C   UNL     1       8.877  -3.087  24.888  0.00  0.00    +0.000 C 
ATOM      2  C   UNL     1       7.648  -2.495  25.335  0.00  0.00    +0.000 C 
ATOM      3  C   UNL     1       6.388  -3.473  25.217  0.00  0.00    +0.000 C 
ATOM      4  C   UNL     1       7.084  -4.565  24.223  0.00  0.00    +0.000 C 
ATOM      5  C   UNL     1       8.475  -4.484  24.228  0.00  0.00    +0.000 C 
ATOM      6  O   UNL     1       9.492  -5.416  24.572  0.00  0.00    +0.000 OA
ENDROOT
BRANCH   2   7
ATOM      7  N   UNL     1       7.572  -1.843  26.611  0.00  0.00    +0.000 N 
ATOM      8  C   UNL     1       6.297  -1.013  26.648  0.00  0.00    +0.000 C 
ATOM      9  C   UNL     1       6.360  -0.110  25.451  0.00  0.00    +0.000 C 
ATOM     10  C   UNL     1       7.639   0.594  25.223  0.00  0.00    +0.000 C 
ATOM     11  C   UNL     1       8.895  -0.095  25.632  0.00  0.00    +0.000 C 
ATOM     12  C   UNL     1       8.744  -0.953  26.864  0.00  0.00    +0.000 C 
ATOM     13  O   UNL     1       7.746   0.888  23.832  0.00  0.00    +0.000 OA
ENDBRANCH   2   7
BRANCH   4  14
ATOM     14  C   UNL     1       6.141  -4.856  23.063  0.00  0.00    +0.000 C 
ATOM     15  C   UNL     1       7.032  -5.197  21.858  0.00  0.00    +0.000 C 
ATOM     16  C   UNL     1       5.297  -6.061  23.414  0.00  0.00    +0.000 C 
ATOM     17  C   UNL     1       5.287  -3.666  22.728  0.00  0.00    +0.000 C 
ENDBRANCH   4  14
BRANCH   1  18
ATOM     18  C   UNL     1       9.834  -2.447  23.788  0.00  0.00    +0.000 C 
BRANCH  18  20
ATOM     19  N   UNL     1       8.261  -1.687  21.827  0.00  0.00    +0.000 NA
ATOM     20  C   UNL     1       8.939  -2.184  22.646  0.00  0.00    +0.000 C 
ENDBRANCH  18  20
ENDBRANCH   1  18
BRANCH   3  21
ATOM     21  O   UNL     1       6.390  -4.175  26.433  0.00  0.00    +0.000 OA
BRANCH  21  22
ATOM     22  C   UNL     1       5.089  -4.501  26.793  0.00  0.00    +0.000 C 
ATOM     23  F   UNL     1       4.179  -4.035  25.883  0.00  0.00    +0.000 F 
ATOM     24  C   UNL     1       4.814  -3.888  28.164  0.00  0.00    +0.000 C 
BRANCH  22  25
ATOM     25  C   UNL     1       4.953  -6.001  26.934  0.00  0.00    +0.000 C 
ATOM     26  O   UNL     1       5.904  -6.720  27.130  0.00  0.00    +0.000 OA
ATOM     27  N   UNL     1       3.722  -6.504  26.713  0.00  0.00    +0.000 NA
ENDBRANCH  22  25
ENDBRANCH  21  22
ENDBRANCH   3  21
TORSDOF 7
ENDMDL
MODEL 3
REMARK VINA RESULT:      -6.0      1.820      2.058
REMARK  Name = 
REMARK  7 active torsions:
REMARK  status: ('A' for Active; 'I' for Inactive)
REMARK    1  A    between atoms: C_2  and  C_3
REMARK    2  A    between atoms: C_3  and  C_4
REMARK    3  A    between atoms: C_5  and  N_6
REMARK    4  A    between atoms: C_13  and  O_21
REMARK    5  A    between atoms: C_14  and  C_17
REMARK    6  A    between atoms: O_21  and  C_22
REMARK    7  A    between atoms: C_22  and  C_23
REMARK                            x       y       z     vdW  Elec       q    Type
REMARK                         _______ _______ _______ _____ _____    ______ ____
ROOT
ATOM      1  C   UNL     1       8.359  -4.208  23.901  0.00  0.00    +0.000 C 
ATOM      2  C   UNL     1       7.178  -3.585  23.373  0.00  0.00    +0.000 C 
ATOM      3  C   UNL     1       7.251  -1.988  23.359  0.00  0.00    +0.000 C 
ATOM      4  C   UNL     1       8.521  -1.844  24.374  0.00  0.00    +0.000 C 
ATOM      5  C   UNL     1       9.255  -3.023  24.486  0.00  0.00    +0.000 C 
ATOM      6  O   UNL     1      10.610  -3.344  24.199  0.00  0.00    +0.000 OA
ENDROOT
BRANCH   2   7
ATOM      7  N   UNL     1       6.631  -4.004  22.115  0.00  0.00    +0.000 N 
ATOM      8  C   UNL     1       5.213  -3.463  22.006  0.00  0.00    +0.000 C 
ATOM      9  C   UNL     1       4.493  -3.948  23.231  0.00  0.00    +0.000 C 
ATOM     10  C   UNL     1       4.666  -5.375  23.574  0.00  0.00    +0.000 C 
ATOM     11  C   UNL     1       5.967  -6.018  23.241  0.00  0.00    +0.000 C 
ATOM     12  C   UNL     1       6.600  -5.491  21.976  0.00  0.00    +0.000 C 
ATOM     13  O   UNL     1       4.461  -5.523  24.978  0.00  0.00    +0.000 OA
ENDBRANCH   2   7
BRANCH   4  14
ATOM     14  C   UNL     1       8.190  -0.812  25.445  0.00  0.00    +0.000 C 
ATOM     15  C   UNL     1       8.885  -1.287  26.730  0.00  0.00    +0.000 C 
ATOM     16  C   UNL     1       8.771   0.522  25.030  0.00  0.00    +0.000 C 
ATOM     17  C   UNL     1       6.709  -0.716  25.687  0.00  0.00    +0.000 C 
ENDBRANCH   4  14
BRANCH   1  18
ATOM     18  C   UNL     1       8.360  -5.264  25.094  0.00  0.00    +0.000 C 
BRANCH  18  20
ATOM     19  N   UNL     1       6.897  -4.322  27.061  0.00  0.00    +0.000 NA
ATOM     20  C   UNL     1       7.614  -4.586  26.170  0.00  0.00    +0.000 C 
ENDBRANCH  18  20
ENDBRANCH   1  18
BRANCH   3  21
ATOM     21  O   UNL     1       7.855  -1.687  22.127  0.00  0.00    +0.000 OA
BRANCH  21  22
ATOM     22  C   UNL     1       7.444  -0.434  21.693  0.00  0.00    +0.000 C 
ATOM     23  F   UNL     1       6.575   0.150  22.575  0.00  0.00    +0.000 F 
ATOM     24  C   UNL     1       6.767  -0.607  20.334  0.00  0.00    +0.000 C 
BRANCH  22  25
ATOM     25  C   UNL     1       8.646   0.460  21.488  0.00  0.00    +0.000 C 
ATOM     26  O   UNL     1       9.772   0.025  21.427  0.00  0.00    +0.000 OA
ATOM     27  N   UNL     1       8.401   1.786  21.491  0.00  0.00    +0.000 NA
ENDBRANCH  22  25
ENDBRANCH  21  22
ENDBRANCH   3  21
TORSDOF 7
ENDMDL
MODEL 4
REMARK VINA RESULT:      -5.8      2.523      4.644
REMARK  Name = 
REMARK  7 active torsions:
REMARK  status: ('A' for Active; 'I' for Inactive)
REMARK    1  A    between atoms: C_2  and  C_3
REMARK    2  A    between atoms: C_3  and  C_4
REMARK    3  A    between atoms: C_5  and  N_6
REMARK    4  A    between atoms: C_13  and  O_21
REMARK    5  A    between atoms: C_14  and  C_17
REMARK    6  A    between atoms: O_21  and  C_22
REMARK    7  A    between atoms: C_22  and  C_23
REMARK                            x       y       z     vdW  Elec       q    Type
REMARK                         _______ _______ _______ _____ _____    ______ ____
ROOT
ATOM      1  C   UNL     1       6.718  -3.322  22.911  0.00  0.00    +0.000 C 
ATOM      2  C   UNL     1       7.065  -2.694  24.155  0.00  0.00    +0.000 C 
ATOM      3  C   UNL     1       7.018  -1.096  24.098  0.00  0.00    +0.000 C 
ATOM      4  C   UNL     1       6.995  -0.962  22.471  0.00  0.00    +0.000 C 
ATOM      5  C   UNL     1       6.606  -2.143  21.841  0.00  0.00    +0.000 C 
ATOM      6  O   UNL     1       5.522  -2.461  20.980  0.00  0.00    +0.000 OA
ENDROOT
BRANCH   2   7
ATOM      7  N   UNL     1       6.439  -3.102  25.380  0.00  0.00    +0.000 N 
ATOM      8  C   UNL     1       7.305  -2.630  26.539  0.00  0.00    +0.000 C 
ATOM      9  C   UNL     1       8.674  -3.188  26.282  0.00  0.00    +0.000 C 
ATOM     10  C   UNL     1       8.743  -4.614  25.901  0.00  0.00    +0.000 C 
ATOM     11  C   UNL     1       7.612  -5.180  25.116  0.00  0.00    +0.000 C 
ATOM     12  C   UNL     1       6.270  -4.583  25.465  0.00  0.00    +0.000 C 
ATOM     13  O   UNL     1       9.934  -4.816  25.143  0.00  0.00    +0.000 OA
ENDBRANCH   2   7
BRANCH   4  14
ATOM     14  C   UNL     1       8.038   0.060  22.040  0.00  0.00    +0.000 C 
ATOM     15  C   UNL     1       8.433  -0.308  20.601  0.00  0.00    +0.000 C 
ATOM     16  C   UNL     1       7.404   1.434  22.046  0.00  0.00    +0.000 C 
ATOM     17  C   UNL     1       9.258   0.015  22.917  0.00  0.00    +0.000 C 
ENDBRANCH   4  14
BRANCH   1  18
ATOM     18  C   UNL     1       7.631  -4.388  22.158  0.00  0.00    +0.000 C 
BRANCH  18  20
ATOM     19  N   UNL     1       5.785  -5.885  21.040  0.00  0.00    +0.000 NA
ATOM     20  C   UNL     1       6.666  -5.360  21.610  0.00  0.00    +0.000 C 
ENDBRANCH  18  20
ENDBRANCH   1  18
BRANCH   3  21
ATOM     21  O   UNL     1       5.686  -0.785  24.413  0.00  0.00    +0.000 OA
BRANCH  21  22
ATOM     22  C   UNL     1       5.637   0.385  25.159  0.00  0.00    +0.000 C 
ATOM     23  F   UNL     1       5.136   1.431  24.431  0.00  0.00    +0.000 F 
ATOM     24  C   UNL     1       7.058   0.707  25.619  0.00  0.00    +0.000 C 
BRANCH  22  25
ATOM     25  C   UNL     1       4.798   0.173  26.399  0.00  0.00    +0.000 C 
ATOM     26  O   UNL     1       4.980   0.798  27.416  0.00  0.00    +0.000 OA
ATOM     27  N   UNL     1       3.907  -0.838  26.341  0.00  0.00    +0.000 NA
ENDBRANCH  22  25
ENDBRANCH  21  22
ENDBRANCH   3  21
TORSDOF 7
ENDMDL
MODEL 5
REMARK VINA RESULT:      -5.7      2.400      5.088
REMARK  Name = 
REMARK  7 active torsions:
REMARK  status: ('A' for Active; 'I' for Inactive)
REMARK    1  A    between atoms: C_2  and  C_3
REMARK    2  A    between atoms: C_3  and  C_4
REMARK    3  A    between atoms: C_5  and  N_6
REMARK    4  A    between atoms: C_13  and  O_21
REMARK    5  A    between atoms: C_14  and  C_17
REMARK    6  A    between atoms: O_21  and  C_22
REMARK    7  A    between atoms: C_22  and  C_23
REMARK                            x       y       z     vdW  Elec       q    Type
REMARK                         _______ _______ _______ _____ _____    ______ ____
ROOT
ATOM      1  C   UNL     1       6.899   0.023  24.349  0.00  0.00    +0.000 C 
ATOM      2  C   UNL     1       7.422  -0.492  23.116  0.00  0.00    +0.000 C 
ATOM      3  C   UNL     1       7.413  -2.089  23.035  0.00  0.00    +0.000 C 
ATOM      4  C   UNL     1       7.182  -2.360  24.629  0.00  0.00    +0.000 C 
ATOM      5  C   UNL     1       6.682  -1.244  25.296  0.00  0.00    +0.000 C 
ATOM      6  O   UNL     1       5.486  -1.018  26.029  0.00  0.00    +0.000 OA
ENDROOT
BRANCH   2   7
ATOM      7  N   UNL     1       6.950   0.007  21.856  0.00  0.00    +0.000 N 
ATOM      8  C   UNL     1       7.948  -0.393  20.779  0.00  0.00    +0.000 C 
ATOM      9  C   UNL     1       9.278   0.131  21.237  0.00  0.00    +0.000 C 
ATOM     10  C   UNL     1       9.305   1.526  21.723  0.00  0.00    +0.000 C 
ATOM     11  C   UNL     1       8.088   2.049  22.404  0.00  0.00    +0.000 C 
ATOM     12  C   UNL     1       6.797   1.492  21.855  0.00  0.00    +0.000 C 
ATOM     13  O   UNL     1      10.396   1.661  22.631  0.00  0.00    +0.000 OA
ENDBRANCH   2   7
BRANCH   4  14
ATOM     14  C   UNL     1       8.189  -3.397  25.109  0.00  0.00    +0.000 C 
ATOM     15  C   UNL     1       8.473  -3.071  26.584  0.00  0.00    +0.000 C 
ATOM     16  C   UNL     1       7.556  -4.768  25.017  0.00  0.00    +0.000 C 
ATOM     17  C   UNL     1       9.472  -3.331  24.330  0.00  0.00    +0.000 C 
ENDBRANCH   4  14
BRANCH   1  18
ATOM     18  C   UNL     1       7.675   1.038  25.300  0.00  0.00    +0.000 C 
BRANCH  18  20
ATOM     19  N   UNL     1      10.102   0.038  25.382  0.00  0.00    +0.000 NA
ATOM     20  C   UNL     1       8.994   0.406  25.494  0.00  0.00    +0.000 C 
ENDBRANCH  18  20
ENDBRANCH   1  18
BRANCH   3  21
ATOM     21  O   UNL     1       6.143  -2.395  22.523  0.00  0.00    +0.000 OA
BRANCH  21  22
ATOM     22  C   UNL     1       6.209  -3.550  21.755  0.00  0.00    +0.000 C 
ATOM     23  F   UNL     1       7.468  -4.087  21.751  0.00  0.00    +0.000 F 
ATOM     24  C   UNL     1       5.793  -3.191  20.330  0.00  0.00    +0.000 C 
BRANCH  22  25
ATOM     25  C   UNL     1       5.218  -4.569  22.270  0.00  0.00    +0.000 C 
ATOM     26  O   UNL     1       5.205  -5.713  21.880  0.00  0.00    +0.000 OA
ATOM     27  N   UNL     1       4.272  -4.099  23.109  0.00  0.00    +0.000 NA
ENDBRANCH  22  25
ENDBRANCH  21  22
ENDBRANCH   3  21
TORSDOF 7
ENDMDL
MODEL 6
REMARK VINA RESULT:      -5.6      2.390      3.278
REMARK  Name = 
REMARK  7 active torsions:
REMARK  status: ('A' for Active; 'I' for Inactive)
REMARK    1  A    between atoms: C_2  and  C_3
REMARK    2  A    between atoms: C_3  and  C_4
REMARK    3  A    between atoms: C_5  and  N_6
REMARK    4  A    between atoms: C_13  and  O_21
REMARK    5  A    between atoms: C_14  and  C_17
REMARK    6  A    between atoms: O_21  and  C_22
REMARK    7  A    between atoms: C_22  and  C_23
REMARK                            x       y       z     vdW  Elec       q    Type
REMARK                         _______ _______ _______ _____ _____    ______ ____
ROOT
ATOM      1  C   UNL     1       7.572  -2.634  25.612  0.00  0.00    +0.000 C 
ATOM      2  C   UNL     1       7.274  -2.284  24.251  0.00  0.00    +0.000 C 
ATOM      3  C   UNL     1       7.507  -0.736  23.924  0.00  0.00    +0.000 C 
ATOM      4  C   UNL     1       7.581  -0.222  25.472  0.00  0.00    +0.000 C 
ATOM      5  C   UNL     1       7.842  -1.255  26.369  0.00  0.00    +0.000 C 
ATOM      6  O   UNL     1       8.901  -1.484  27.289  0.00  0.00    +0.000 OA
ENDROOT
BRANCH   2   7
ATOM      7  N   UNL     1       7.823  -3.043  23.164  0.00  0.00    +0.000 N 
ATOM      8  C   UNL     1       7.082  -2.659  21.891  0.00  0.00    +0.000 C 
ATOM      9  C   UNL     1       5.626  -2.881  22.181  0.00  0.00    +0.000 C 
ATOM     10  C   UNL     1       5.271  -4.160  22.829  0.00  0.00    +0.000 C 
ATOM     11  C   UNL     1       6.259  -4.762  23.768  0.00  0.00    +0.000 C 
ATOM     12  C   UNL     1       7.696  -4.516  23.379  0.00  0.00    +0.000 C 
ATOM     13  O   UNL     1       4.054  -3.973  23.549  0.00  0.00    +0.000 OA
ENDBRANCH   2   7
BRANCH   4  14
ATOM     14  C   UNL     1       6.672   0.990  25.638  0.00  0.00    +0.000 C 
ATOM     15  C   UNL     1       5.999   0.838  27.011  0.00  0.00    +0.000 C 
ATOM     16  C   UNL     1       7.525   2.240  25.638  0.00  0.00    +0.000 C 
ATOM     17  C   UNL     1       5.616   1.045  24.570  0.00  0.00    +0.000 C 
ENDBRANCH   4  14
BRANCH   1  18
ATOM     18  C   UNL     1       6.558  -3.374  26.591  0.00  0.00    +0.000 C 
BRANCH  18  20
ATOM     19  N   UNL     1       7.610  -5.607  27.488  0.00  0.00    +0.000 NA
ATOM     20  C   UNL     1       7.293  -4.579  27.021  0.00  0.00    +0.000 C 
ENDBRANCH  18  20
ENDBRANCH   1  18
BRANCH   3  21
ATOM     21  O   UNL     1       8.860  -0.669  23.553  0.00  0.00    +0.000 OA
BRANCH  21  22
ATOM     22  C   UNL     1       9.062   0.405  22.697  0.00  0.00    +0.000 C 
ATOM     23  F   UNL     1       7.906   1.105  22.478  0.00  0.00    +0.000 F 
ATOM     24  C   UNL     1       9.595  -0.143  21.374  0.00  0.00    +0.000 C 
BRANCH  22  25
ATOM     25  C   UNL     1      10.121   1.325  23.263  0.00  0.00    +0.000 C 
ATOM     26  O   UNL     1      10.370   2.401  22.775  0.00  0.00    +0.000 OA
ATOM     27  N   UNL     1      10.853   0.824  24.279  0.00  0.00    +0.000 NA
ENDBRANCH  22  25
ENDBRANCH  21  22
ENDBRANCH   3  21
TORSDOF 7
ENDMDL
MODEL 7
REMARK VINA RESULT:      -5.6      2.661      5.465
REMARK  Name = 
REMARK  7 active torsions:
REMARK  status: ('A' for Active; 'I' for Inactive)
REMARK    1  A    between atoms: C_2  and  C_3
REMARK    2  A    between atoms: C_3  and  C_4
REMARK    3  A    between atoms: C_5  and  N_6
REMARK    4  A    between atoms: C_13  and  O_21
REMARK    5  A    between atoms: C_14  and  C_17
REMARK    6  A    between atoms: O_21  and  C_22
REMARK    7  A    between atoms: C_22  and  C_23
REMARK                            x       y       z     vdW  Elec       q    Type
REMARK                         _______ _______ _______ _____ _____    ______ ____
ROOT
ATOM      1  C   UNL     1       6.587   0.810  24.048  0.00  0.00    +0.000 C 
ATOM      2  C   UNL     1       7.363   0.036  23.120  0.00  0.00    +0.000 C 
ATOM      3  C   UNL     1       7.358  -1.532  23.435  0.00  0.00    +0.000 C 
ATOM      4  C   UNL     1       6.783  -1.420  24.959  0.00  0.00    +0.000 C 
ATOM      5  C   UNL     1       6.159  -0.199  25.209  0.00  0.00    +0.000 C 
ATOM      6  O   UNL     1       4.834   0.142  25.592  0.00  0.00    +0.000 OA
ENDROOT
BRANCH   2   7
ATOM      7  N   UNL     1       7.180   0.193  21.706  0.00  0.00    +0.000 N 
ATOM      8  C   UNL     1       8.369  -0.439  20.997  0.00  0.00    +0.000 C 
ATOM      9  C   UNL     1       9.589   0.214  21.580  0.00  0.00    +0.000 C 
ATOM     10  C   UNL     1       9.555   1.686  21.697  0.00  0.00    +0.000 C 
ATOM     11  C   UNL     1       8.239   2.334  21.955  0.00  0.00    +0.000 C 
ATOM     12  C   UNL     1       7.075   1.627  21.303  0.00  0.00    +0.000 C 
ATOM     13  O   UNL     1      10.435   2.070  22.752  0.00  0.00    +0.000 OA
ENDBRANCH   2   7
BRANCH   4  14
ATOM     14  C   UNL     1       7.653  -2.263  25.883  0.00  0.00    +0.000 C 
ATOM     15  C   UNL     1       8.345  -1.279  26.840  0.00  0.00    +0.000 C 
ATOM     16  C   UNL     1       6.759  -3.187  26.682  0.00  0.00    +0.000 C 
ATOM     17  C   UNL     1       8.696  -3.031  25.121  0.00  0.00    +0.000 C 
ENDBRANCH   4  14
BRANCH   1  18
ATOM     18  C   UNL     1       7.146   2.058  24.864  0.00  0.00    +0.000 C 
BRANCH  18  20
ATOM     19  N   UNL     1       5.246   3.768  24.262  0.00  0.00    +0.000 NA
ATOM     20  C   UNL     1       6.120   3.099  24.669  0.00  0.00    +0.000 C 
ENDBRANCH  18  20
ENDBRANCH   1  18
BRANCH   3  21
ATOM     21  O   UNL     1       6.227  -2.011  22.755  0.00  0.00    +0.000 OA
BRANCH  21  22
ATOM     22  C   UNL     1       6.502  -3.252  22.198  0.00  0.00    +0.000 C 
ATOM     23  F   UNL     1       7.845  -3.517  22.182  0.00  0.00    +0.000 F 
ATOM     24  C   UNL     1       5.955  -3.258  20.771  0.00  0.00    +0.000 C 
BRANCH  22  25
ATOM     25  C   UNL     1       5.773  -4.334  22.963  0.00  0.00    +0.000 C 
ATOM     26  O   UNL     1       6.349  -5.113  23.686  0.00  0.00    +0.000 OA
ATOM     27  N   UNL     1       4.455  -4.453  22.705  0.00  0.00    +0.000 NA
ENDBRANCH  22  25
ENDBRANCH  21  22
ENDBRANCH   3  21
TORSDOF 7
ENDMDL
MODEL 8
REMARK VINA RESULT:      -5.6      2.864      5.988
REMARK  Name = 
REMARK  7 active torsions:
REMARK  status: ('A' for Active; 'I' for Inactive)
REMARK    1  A    between atoms: C_2  and  C_3
REMARK    2  A    between atoms: C_3  and  C_4
REMARK    3  A    between atoms: C_5  and  N_6
REMARK    4  A    between atoms: C_13  and  O_21
REMARK    5  A    between atoms: C_14  and  C_17
REMARK    6  A    between atoms: O_21  and  C_22
REMARK    7  A    between atoms: C_22  and  C_23
REMARK                            x       y       z     vdW  Elec       q    Type
REMARK                         _______ _______ _______ _____ _____    ______ ____
ROOT
ATOM      1  C   UNL     1       8.158  -0.698  23.322  0.00  0.00    +0.000 C 
ATOM      2  C   UNL     1       7.259  -1.088  24.372  0.00  0.00    +0.000 C 
ATOM      3  C   UNL     1       6.807  -2.620  24.289  0.00  0.00    +0.000 C 
ATOM      4  C   UNL     1       7.291  -2.881  22.752  0.00  0.00    +0.000 C 
ATOM      5  C   UNL     1       8.213  -1.933  22.312  0.00  0.00    +0.000 C 
ATOM      6  O   UNL     1       9.554  -2.037  21.851  0.00  0.00    +0.000 OA
ENDROOT
BRANCH   2   7
ATOM      7  N   UNL     1       7.569  -0.802  25.743  0.00  0.00    +0.000 N 
ATOM      8  C   UNL     1       6.315  -1.033  26.574  0.00  0.00    +0.000 C 
ATOM      9  C   UNL     1       5.246  -0.185  25.950  0.00  0.00    +0.000 C 
ATOM     10  C   UNL     1       5.616   1.209  25.628  0.00  0.00    +0.000 C 
ATOM     11  C   UNL     1       7.027   1.482  25.236  0.00  0.00    +0.000 C 
ATOM     12  C   UNL     1       8.034   0.604  25.938  0.00  0.00    +0.000 C 
ATOM     13  O   UNL     1       4.781   1.657  24.562  0.00  0.00    +0.000 OA
ENDBRANCH   2   7
BRANCH   4  14
ATOM     14  C   UNL     1       6.164  -3.557  21.982  0.00  0.00    +0.000 C 
ATOM     15  C   UNL     1       6.673  -4.961  21.618  0.00  0.00    +0.000 C 
ATOM     16  C   UNL     1       4.963  -3.685  22.893  0.00  0.00    +0.000 C 
ATOM     17  C   UNL     1       5.823  -2.810  20.723  0.00  0.00    +0.000 C 
ENDBRANCH   4  14
BRANCH   1  18
ATOM     18  C   UNL     1       7.918   0.537  22.346  0.00  0.00    +0.000 C 
BRANCH  18  20
ATOM     19  N   UNL     1      10.146   1.912  22.148  0.00  0.00    +0.000 NA
ATOM     20  C   UNL     1       9.249   1.160  22.225  0.00  0.00    +0.000 C 
ENDBRANCH  18  20
ENDBRANCH   1  18
BRANCH   3  21
ATOM     21  O   UNL     1       7.801  -3.305  25.005  0.00  0.00    +0.000 OA
BRANCH  21  22
ATOM     22  C   UNL     1       7.280  -4.479  25.532  0.00  0.00    +0.000 C 
ATOM     23  F   UNL     1       7.299  -5.499  24.618  0.00  0.00    +0.000 F 
ATOM     24  C   UNL     1       5.843  -4.200  25.968  0.00  0.00    +0.000 C 
BRANCH  22  25
ATOM     25  C   UNL     1       8.056  -4.881  26.766  0.00  0.00    +0.000 C 
ATOM     26  O   UNL     1       9.205  -4.552  26.941  0.00  0.00    +0.000 OA
ATOM     27  N   UNL     1       7.426  -5.724  27.609  0.00  0.00    +0.000 NA
ENDBRANCH  22  25
ENDBRANCH  21  22
ENDBRANCH   3  21
TORSDOF 7
ENDMDL
MODEL 9
REMARK VINA RESULT:      -5.5      2.923      4.585
REMARK  Name = 
REMARK  7 active torsions:
REMARK  status: ('A' for Active; 'I' for Inactive)
REMARK    1  A    between atoms: C_2  and  C_3
REMARK    2  A    between atoms: C_3  and  C_4
REMARK    3  A    between atoms: C_5  and  N_6
REMARK    4  A    between atoms: C_13  and  O_21
REMARK    5  A    between atoms: C_14  and  C_17
REMARK    6  A    between atoms: O_21  and  C_22
REMARK    7  A    between atoms: C_22  and  C_23
REMARK                            x       y       z     vdW  Elec       q    Type
REMARK                         _______ _______ _______ _____ _____    ______ ____
ROOT
ATOM      1  C   UNL     1       7.273  -1.134  22.831  0.00  0.00    +0.000 C 
ATOM      2  C   UNL     1       7.463  -1.237  24.251  0.00  0.00    +0.000 C 
ATOM      3  C   UNL     1       7.757   0.167  24.959  0.00  0.00    +0.000 C 
ATOM      4  C   UNL     1       8.114   0.997  23.599  0.00  0.00    +0.000 C 
ATOM      5  C   UNL     1       7.639   0.372  22.448  0.00  0.00    +0.000 C 
ATOM      6  O   UNL     1       6.725   0.780  21.440  0.00  0.00    +0.000 OA
ENDROOT
BRANCH   2   7
ATOM      7  N   UNL     1       6.517  -1.942  25.066  0.00  0.00    +0.000 N 
ATOM      8  C   UNL     1       7.164  -2.224  26.415  0.00  0.00    +0.000 C 
ATOM      9  C   UNL     1       8.443  -2.950  26.112  0.00  0.00    +0.000 C 
ATOM     10  C   UNL     1       8.357  -4.059  25.140  0.00  0.00    +0.000 C 
ATOM     11  C   UNL     1       7.354  -3.948  24.045  0.00  0.00    +0.000 C 
ATOM     12  C   UNL     1       6.087  -3.233  24.450  0.00  0.00    +0.000 C 
ATOM     13  O   UNL     1       9.637  -4.221  24.534  0.00  0.00    +0.000 OA
ENDBRANCH   2   7
BRANCH   4  14
ATOM     14  C   UNL     1       9.413   1.765  23.811  0.00  0.00    +0.000 C 
ATOM     15  C   UNL     1      10.040   1.942  22.419  0.00  0.00    +0.000 C 
ATOM     16  C   UNL     1       9.084   3.125  24.385  0.00  0.00    +0.000 C 
ATOM     17  C   UNL     1      10.368   1.012  24.694  0.00  0.00    +0.000 C 
ENDBRANCH   4  14
BRANCH   1  18
ATOM     18  C   UNL     1       8.089  -1.975  21.753  0.00  0.00    +0.000 C 
BRANCH  18  20
ATOM     19  N   UNL     1      10.635  -1.755  22.361  0.00  0.00    +0.000 NA
ATOM     20  C   UNL     1       9.500  -1.684  22.069  0.00  0.00    +0.000 C 
ENDBRANCH  18  20
ENDBRANCH   1  18
BRANCH   3  21
ATOM     21  O   UNL     1       6.480   0.671  25.255  0.00  0.00    +0.000 OA
BRANCH  21  22
ATOM     22  C   UNL     1       6.516   1.378  26.449  0.00  0.00    +0.000 C 
ATOM     23  F   UNL     1       7.755   1.331  27.030  0.00  0.00    +0.000 F 
ATOM     24  C   UNL     1       5.478   0.767  27.388  0.00  0.00    +0.000 C 
BRANCH  22  25
ATOM     25  C   UNL     1       6.115   2.816  26.208  0.00  0.00    +0.000 C 
ATOM     26  O   UNL     1       5.596   3.179  25.179  0.00  0.00    +0.000 OA
ATOM     27  N   UNL     1       6.475   3.696  27.165  0.00  0.00    +0.000 NA
ENDBRANCH  22  25
ENDBRANCH  21  22
ENDBRANCH   3  21
TORSDOF 7
ENDMDL
