MODEL 1
REMARK VINA RESULT:      -5.6      0.000      0.000
REMARK  Name = 
REMARK  7 active torsions:
REMARK  status: ('A' for Active; 'I' for Inactive)
REMARK    1  A    between atoms: C_2  and  C_3
REMARK    2  A    between atoms: C_3  and  C_4
REMARK    3  A    between atoms: C_5  and  C_6
REMARK    4  A    between atoms: C_6  and  C_7
REMARK    5  A    between atoms: C_7  and  C_8
REMARK    6  A    between atoms: C_13  and  N_14
REMARK    7  A    between atoms: N_14  and  C_15
REMARK                            x       y       z     vdW  Elec       q    Type
REMARK                         _______ _______ _______ _____ _____    ______ ____
ROOT
ATOM      1  C   UNL     1      10.087   1.601  23.578  0.00  0.00    +0.000 C 
ATOM      2  C   UNL     1       9.457   2.600  24.342  0.00  0.00    +0.000 C 
ATOM      3  C   UNL     1       8.241   2.516  25.309  0.00  0.00    +0.000 C 
ATOM      4  C   UNL     1       8.176   0.979  25.356  0.00  0.00    +0.000 C 
ATOM      5  C   UNL     1       9.277   0.013  25.165  0.00  0.00    +0.000 C 
ATOM      6  C   UNL     1      10.361   0.127  24.101  0.00  0.00    +0.000 C 
ATOM      7  F   UNL     1       7.221   2.945  24.580  0.00  0.00    +0.000 F 
ENDROOT
BRANCH   1   8
ATOM      8  C   UNL     1       9.925   1.587  22.050  0.00  0.00    +0.000 C 
BRANCH   8   9
ATOM      9  C   UNL     1       8.539   2.198  21.767  0.00  0.00    +0.000 C 
BRANCH   9  11
ATOM     10  C   UNL     1       7.692   0.336  20.200  0.00  0.00    +0.000 C 
ATOM     11  C   UNL     1       7.642   1.063  21.283  0.00  0.00    +0.000 C 
ATOM     12  F   UNL     1       6.888   0.556  22.322  0.00  0.00    +0.000 F 
BRANCH  10  13
ATOM     13  C   UNL     1       7.477  -0.011  18.799  0.00  0.00    +0.000 C 
BRANCH  13  15
ATOM     14  O   UNL     1       6.266   1.360  17.303  0.00  0.00    +0.000 OA
ATOM     15  C   UNL     1       6.086   0.421  18.336  0.00  0.00    +0.000 C 
ENDBRANCH  13  15
ENDBRANCH  10  13
ENDBRANCH   9  11
ENDBRANCH   8   9
ENDBRANCH   1   8
BRANCH   6  16
ATOM     16  N   UNL     1      10.410  -0.816  23.134  0.00  0.00    +0.000 NA
BRANCH  16  17
ATOM     17  C   UNL     1       9.788  -2.052  23.424  0.00  0.00    +0.000 C 
ATOM     18  C   UNL     1       8.658  -2.344  22.454  0.00  0.00    +0.000 C 
ENDBRANCH  16  17
ENDBRANCH   6  16
TORSDOF 7
ENDMDL
MODEL 2
REMARK VINA RESULT:      -5.6      1.567      2.109
REMARK  Name = 
REMARK  7 active torsions:
REMARK  status: ('A' for Active; 'I' for Inactive)
REMARK    1  A    between atoms: C_2  and  C_3
REMARK    2  A    between atoms: C_3  and  C_4
REMARK    3  A    between atoms: C_5  and  C_6
REMARK    4  A    between atoms: C_6  and  C_7
REMARK    5  A    between atoms: C_7  and  C_8
REMARK    6  A    between atoms: C_13  and  N_14
REMARK    7  A    between atoms: N_14  and  C_15
REMARK                            x       y       z     vdW  Elec       q    Type
REMARK                         _______ _______ _______ _____ _____    ______ ____
ROOT
ATOM      1  C   UNL     1      10.110  -0.667  22.620  0.00  0.00    +0.000 C 
ATOM      2  C   UNL     1      10.713   0.220  23.530  0.00  0.00    +0.000 C 
ATOM      3  C   UNL     1      10.247   0.694  24.937  0.00  0.00    +0.000 C 
ATOM      4  C   UNL     1       9.110  -0.333  25.087  0.00  0.00    +0.000 C 
ATOM      5  C   UNL     1       9.008  -1.676  24.482  0.00  0.00    +0.000 C 
ATOM      6  C   UNL     1       9.384  -2.014  23.044  0.00  0.00    +0.000 C 
ATOM      7  F   UNL     1       9.698   1.879  24.711  0.00  0.00    +0.000 F 
ENDROOT
BRANCH   1   8
ATOM      8  C   UNL     1       9.487  -0.129  21.322  0.00  0.00    +0.000 C 
BRANCH   8   9
ATOM      9  C   UNL     1       8.917   1.259  21.672  0.00  0.00    +0.000 C 
BRANCH   9  11
ATOM     10  C   UNL     1       6.573   0.941  20.651  0.00  0.00    +0.000 C 
ATOM     11  C   UNL     1       7.397   1.138  21.644  0.00  0.00    +0.000 C 
ATOM     12  F   UNL     1       6.902   0.876  22.906  0.00  0.00    +0.000 F 
BRANCH  10  13
ATOM     13  C   UNL     1       5.734   1.286  19.508  0.00  0.00    +0.000 C 
BRANCH  13  15
ATOM     14  O   UNL     1       7.487   0.318  18.254  0.00  0.00    +0.000 OA
ATOM     15  C   UNL     1       6.084   0.427  18.294  0.00  0.00    +0.000 C 
ENDBRANCH  13  15
ENDBRANCH  10  13
ENDBRANCH   9  11
ENDBRANCH   8   9
ENDBRANCH   1   8
BRANCH   6  16
ATOM     16  N   UNL     1       8.404  -2.416  22.206  0.00  0.00    +0.000 NA
BRANCH  16  17
ATOM     17  C   UNL     1       7.127  -2.621  22.775  0.00  0.00    +0.000 C 
ATOM     18  C   UNL     1       6.039  -2.601  21.718  0.00  0.00    +0.000 C 
ENDBRANCH  16  17
ENDBRANCH   6  16
TORSDOF 7
ENDMDL
MODEL 3
REMARK VINA RESULT:      -5.5      1.971      2.815
REMARK  Name = 
REMARK  7 active torsions:
REMARK  status: ('A' for Active; 'I' for Inactive)
REMARK    1  A    between atoms: C_2  and  C_3
REMARK    2  A    between atoms: C_3  and  C_4
REMARK    3  A    between atoms: C_5  and  C_6
REMARK    4  A    between atoms: C_6  and  C_7
REMARK    5  A    between atoms: C_7  and  C_8
REMARK    6  A    between atoms: C_13  and  N_14
REMARK    7  A    between atoms: N_14  and  C_15
REMARK                            x       y       z     vdW  Elec       q    Type
REMARK                         _______ _______ _______ _____ _____    ______ ____
ROOT
ATOM      1  C   UNL     1      10.017  -0.219  24.637  0.00  0.00    +0.000 C 
ATOM      2  C   UNL     1      10.791   0.838  24.123  0.00  0.00    +0.000 C 
ATOM      3  C   UNL     1      10.360   2.150  23.407  0.00  0.00    +0.000 C 
ATOM      4  C   UNL     1       8.858   2.020  23.718  0.00  0.00    +0.000 C 
ATOM      5  C   UNL     1       8.219   1.336  24.860  0.00  0.00    +0.000 C 
ATOM      6  C   UNL     1       8.648  -0.017  25.416  0.00  0.00    +0.000 C 
ATOM      7  F   UNL     1      10.533   1.885  22.120  0.00  0.00    +0.000 F 
ENDROOT
BRANCH   1   8
ATOM      8  C   UNL     1      10.014  -1.582  23.928  0.00  0.00    +0.000 C 
BRANCH   8   9
ATOM      9  C   UNL     1      10.187  -1.279  22.427  0.00  0.00    +0.000 C 
BRANCH   9  11
ATOM     10  C   UNL     1       8.255  -0.435  20.947  0.00  0.00    +0.000 C 
ATOM     11  C   UNL     1       8.791  -1.251  21.813  0.00  0.00    +0.000 C 
ATOM     12  F   UNL     1       8.158  -2.467  21.978  0.00  0.00    +0.000 F 
BRANCH  10  13
ATOM     13  C   UNL     1       7.584   0.768  20.465  0.00  0.00    +0.000 C 
BRANCH  13  15
ATOM     14  O   UNL     1       7.626   0.052  18.213  0.00  0.00    +0.000 OA
ATOM     15  C   UNL     1       6.740   0.464  19.227  0.00  0.00    +0.000 C 
ENDBRANCH  13  15
ENDBRANCH  10  13
ENDBRANCH   9  11
ENDBRANCH   8   9
ENDBRANCH   1   8
BRANCH   6  16
ATOM     16  N   UNL     1       7.784  -1.051  25.318  0.00  0.00    +0.000 NA
BRANCH  16  17
ATOM     17  C   UNL     1       6.494  -0.753  24.823  0.00  0.00    +0.000 C 
ATOM     18  C   UNL     1       5.805  -1.995  24.289  0.00  0.00    +0.000 C 
ENDBRANCH  16  17
ENDBRANCH   6  16
TORSDOF 7
ENDMDL
MODEL 4
REMARK VINA RESULT:      -5.2      3.267      5.182
REMARK  Name = 
REMARK  7 active torsions:
REMARK  status: ('A' for Active; 'I' for Inactive)
REMARK    1  A    between atoms: C_2  and  C_3
REMARK    2  A    between atoms: C_3  and  C_4
REMARK    3  A    between atoms: C_5  and  C_6
REMARK    4  A    between atoms: C_6  and  C_7
REMARK    5  A    between atoms: C_7  and  C_8
REMARK    6  A    between atoms: C_13  and  N_14
REMARK    7  A    between atoms: N_14  and  C_15
REMARK                            x       y       z     vdW  Elec       q    Type
REMARK                         _______ _______ _______ _____ _____    ______ ____
ROOT
ATOM      1  C   UNL     1       7.635  -2.382  23.707  0.00  0.00    +0.000 C 
ATOM      2  C   UNL     1       6.484  -2.038  22.975  0.00  0.00    +0.000 C 
ATOM      3  C   UNL     1       5.779  -2.774  21.799  0.00  0.00    +0.000 C 
ATOM      4  C   UNL     1       6.575  -4.085  21.927  0.00  0.00    +0.000 C 
ATOM      5  C   UNL     1       7.203  -4.658  23.135  0.00  0.00    +0.000 C 
ATOM      6  C   UNL     1       7.980  -3.859  24.174  0.00  0.00    +0.000 C 
ATOM      7  F   UNL     1       6.210  -2.140  20.719  0.00  0.00    +0.000 F 
ENDROOT
BRANCH   1   8
ATOM      8  C   UNL     1       8.933  -1.582  23.517  0.00  0.00    +0.000 C 
BRANCH   8   9
ATOM      9  C   UNL     1       9.253  -1.650  22.011  0.00  0.00    +0.000 C 
BRANCH   9  11
ATOM     10  C   UNL     1       9.836   0.855  21.857  0.00  0.00    +0.000 C 
ATOM     11  C   UNL     1       9.201  -0.222  21.478  0.00  0.00    +0.000 C 
ATOM     12  F   UNL     1       8.644  -0.188  20.216  0.00  0.00    +0.000 F 
BRANCH  10  13
ATOM     13  C   UNL     1      10.111   2.047  22.652  0.00  0.00    +0.000 C 
BRANCH  13  15
ATOM     14  O   UNL     1      11.273   0.838  24.318  0.00  0.00    +0.000 OA
ATOM     15  C   UNL     1      10.179   1.707  24.141  0.00  0.00    +0.000 C 
ENDBRANCH  13  15
ENDBRANCH  10  13
ENDBRANCH   9  11
ENDBRANCH   8   9
ENDBRANCH   1   8
BRANCH   6  16
ATOM     16  N   UNL     1       9.299  -4.113  24.319  0.00  0.00    +0.000 NA
BRANCH  16  17
ATOM     17  C   UNL     1       9.674  -4.902  25.431  0.00  0.00    +0.000 C 
ATOM     18  C   UNL     1       8.787  -4.626  26.630  0.00  0.00    +0.000 C 
ENDBRANCH  16  17
ENDBRANCH   6  16
TORSDOF 7
ENDMDL
MODEL 5
REMARK VINA RESULT:      -5.2      3.987      5.875
REMARK  Name = 
REMARK  7 active torsions:
REMARK  status: ('A' for Active; 'I' for Inactive)
REMARK    1  A    between atoms: C_2  and  C_3
REMARK    2  A    between atoms: C_3  and  C_4
REMARK    3  A    between atoms: C_5  and  C_6
REMARK    4  A    between atoms: C_6  and  C_7
REMARK    5  A    between atoms: C_7  and  C_8
REMARK    6  A    between atoms: C_13  and  N_14
REMARK    7  A    between atoms: N_14  and  C_15
REMARK                            x       y       z     vdW  Elec       q    Type
REMARK                         _______ _______ _______ _____ _____    ______ ____
ROOT
ATOM      1  C   UNL     1       8.453  -0.266  22.713  0.00  0.00    +0.000 C 
ATOM      2  C   UNL     1       8.897   0.272  23.935  0.00  0.00    +0.000 C 
ATOM      3  C   UNL     1       9.980   1.350  24.230  0.00  0.00    +0.000 C 
ATOM      4  C   UNL     1      10.162   1.802  22.770  0.00  0.00    +0.000 C 
ATOM      5  C   UNL     1       9.176   1.756  21.671  0.00  0.00    +0.000 C 
ATOM      6  C   UNL     1       8.233   0.592  21.395  0.00  0.00    +0.000 C 
ATOM      7  F   UNL     1      11.048   0.645  24.573  0.00  0.00    +0.000 F 
ENDROOT
BRANCH   1   8
ATOM      8  C   UNL     1       8.812  -1.712  22.336  0.00  0.00    +0.000 C 
BRANCH   8   9
ATOM      9  C   UNL     1       8.122  -2.605  23.385  0.00  0.00    +0.000 C 
BRANCH   9  11
ATOM     10  C   UNL     1       9.214  -4.386  24.893  0.00  0.00    +0.000 C 
ATOM     11  C   UNL     1       9.226  -3.288  24.186  0.00  0.00    +0.000 C 
ATOM     12  F   UNL     1      10.468  -2.821  23.807  0.00  0.00    +0.000 F 
BRANCH  10  13
ATOM     13  C   UNL     1       8.990  -5.236  26.057  0.00  0.00    +0.000 C 
BRANCH  13  15
ATOM     14  O   UNL     1       7.427  -5.815  27.733  0.00  0.00    +0.000 OA
ATOM     15  C   UNL     1       7.511  -5.252  26.445  0.00  0.00    +0.000 C 
ENDBRANCH  13  15
ENDBRANCH  10  13
ENDBRANCH   9  11
ENDBRANCH   8   9
ENDBRANCH   1   8
BRANCH   6  16
ATOM     16  N   UNL     1       8.386  -0.095  20.242  0.00  0.00    +0.000 NA
BRANCH  16  17
ATOM     17  C   UNL     1       7.439   0.160  19.223  0.00  0.00    +0.000 C 
ATOM     18  C   UNL     1       6.116  -0.523  19.512  0.00  0.00    +0.000 C 
ENDBRANCH  16  17
ENDBRANCH   6  16
TORSDOF 7
ENDMDL
MODEL 6
REMARK VINA RESULT:      -5.2      3.154      4.442
REMARK  Name = 
REMARK  7 active torsions:
REMARK  status: ('A' for Active; 'I' for Inactive)
REMARK    1  A    between atoms: C_2  and  C_3
REMARK    2  A    between atoms: C_3  and  C_4
REMARK    3  A    between atoms: C_5  and  C_6
REMARK    4  A    between atoms: C_6  and  C_7
REMARK    5  A    between atoms: C_7  and  C_8
REMARK    6  A    between atoms: C_13  and  N_14
REMARK    7  A    between atoms: N_14  and  C_15
REMARK                            x       y       z     vdW  Elec       q    Type
REMARK                         _______ _______ _______ _____ _____    ______ ____
ROOT
ATOM      1  C   UNL     1      10.287   0.249  23.156  0.00  0.00    +0.000 C 
ATOM      2  C   UNL     1      10.009   1.190  22.148  0.00  0.00    +0.000 C 
ATOM      3  C   UNL     1       8.751   2.074  21.911  0.00  0.00    +0.000 C 
ATOM      4  C   UNL     1       8.090   1.784  23.271  0.00  0.00    +0.000 C 
ATOM      5  C   UNL     1       8.744   1.425  24.545  0.00  0.00    +0.000 C 
ATOM      6  C   UNL     1       9.904   0.448  24.684  0.00  0.00    +0.000 C 
ATOM      7  F   UNL     1       8.071   1.422  20.980  0.00  0.00    +0.000 F 
ENDROOT
BRANCH   1   8
ATOM      8  C   UNL     1      10.314  -1.250  22.820  0.00  0.00    +0.000 C 
BRANCH   8   9
ATOM      9  C   UNL     1       9.227  -1.462  21.748  0.00  0.00    +0.000 C 
BRANCH   9  11
ATOM     10  C   UNL     1       7.939  -3.184  23.169  0.00  0.00    +0.000 C 
ATOM     11  C   UNL     1       8.030  -2.100  22.447  0.00  0.00    +0.000 C 
ATOM     12  F   UNL     1       6.997  -1.193  22.577  0.00  0.00    +0.000 F 
BRANCH  10  13
ATOM     13  C   UNL     1       7.804  -4.609  23.447  0.00  0.00    +0.000 C 
BRANCH  13  15
ATOM     14  O   UNL     1       9.860  -4.286  24.568  0.00  0.00    +0.000 OA
ATOM     15  C   UNL     1       8.658  -5.015  24.649  0.00  0.00    +0.000 C 
ENDBRANCH  13  15
ENDBRANCH  10  13
ENDBRANCH   9  11
ENDBRANCH   8   9
ENDBRANCH   1   8
BRANCH   6  16
ATOM     16  N   UNL     1       9.697  -0.698  25.369  0.00  0.00    +0.000 NA
BRANCH  16  17
ATOM     17  C   UNL     1       8.804  -0.629  26.463  0.00  0.00    +0.000 C 
ATOM     18  C   UNL     1       7.828  -1.790  26.456  0.00  0.00    +0.000 C 
ENDBRANCH  16  17
ENDBRANCH   6  16
TORSDOF 7
ENDMDL
MODEL 7
REMARK VINA RESULT:      -5.1      2.851      4.632
REMARK  Name = 
REMARK  7 active torsions:
REMARK  status: ('A' for Active; 'I' for Inactive)
REMARK    1  A    between atoms: C_2  and  C_3
REMARK    2  A    between atoms: C_3  and  C_4
REMARK    3  A    between atoms: C_5  and  C_6
REMARK    4  A    between atoms: C_6  and  C_7
REMARK    5  A    between atoms: C_7  and  C_8
REMARK    6  A    between atoms: C_13  and  N_14
REMARK    7  A    between atoms: N_14  and  C_15
REMARK                            x       y       z     vdW  Elec       q    Type
REMARK                         _______ _______ _______ _____ _____    ______ ____
ROOT
ATOM      1  C   UNL     1       8.678  -0.369  22.809  0.00  0.00    +0.000 C 
ATOM      2  C   UNL     1       9.167   0.191  24.003  0.00  0.00    +0.000 C 
ATOM      3  C   UNL     1      10.185   1.345  24.234  0.00  0.00    +0.000 C 
ATOM      4  C   UNL     1      10.228   1.821  22.771  0.00  0.00    +0.000 C 
ATOM      5  C   UNL     1       9.172   1.709  21.745  0.00  0.00    +0.000 C 
ATOM      6  C   UNL     1       8.301   0.479  21.521  0.00  0.00    +0.000 C 
ATOM      7  F   UNL     1      11.325   0.720  24.492  0.00  0.00    +0.000 F 
ENDROOT
BRANCH   1   8
ATOM      8  C   UNL     1       9.116  -1.781  22.389  0.00  0.00    +0.000 C 
BRANCH   8   9
ATOM      9  C   UNL     1       9.821  -2.388  23.618  0.00  0.00    +0.000 C 
BRANCH   9  11
ATOM     10  C   UNL     1       8.016  -4.226  23.657  0.00  0.00    +0.000 C 
ATOM     11  C   UNL     1       8.863  -3.409  24.223  0.00  0.00    +0.000 C 
ATOM     12  F   UNL     1       9.217  -3.704  25.524  0.00  0.00    +0.000 F 
BRANCH  10  13
ATOM     13  C   UNL     1       6.764  -4.655  23.042  0.00  0.00    +0.000 C 
BRANCH  13  15
ATOM     14  O   UNL     1       5.598  -3.288  21.507  0.00  0.00    +0.000 OA
ATOM     15  C   UNL     1       5.799  -3.479  22.887  0.00  0.00    +0.000 C 
ENDBRANCH  13  15
ENDBRANCH  10  13
ENDBRANCH   9  11
ENDBRANCH   8   9
ENDBRANCH   1   8
BRANCH   6  16
ATOM     16  N   UNL     1       8.421  -0.185  20.351  0.00  0.00    +0.000 NA
BRANCH  16  17
ATOM     17  C   UNL     1       7.535   0.191  19.315  0.00  0.00    +0.000 C 
ATOM     18  C   UNL     1       6.189  -0.493  19.462  0.00  0.00    +0.000 C 
ENDBRANCH  16  17
ENDBRANCH   6  16
TORSDOF 7
ENDMDL
MODEL 8
REMARK VINA RESULT:      -5.1      2.652      5.235
REMARK  Name = 
REMARK  7 active torsions:
REMARK  status: ('A' for Active; 'I' for Inactive)
REMARK    1  A    between atoms: C_2  and  C_3
REMARK    2  A    between atoms: C_3  and  C_4
REMARK    3  A    between atoms: C_5  and  C_6
REMARK    4  A    between atoms: C_6  and  C_7
REMARK    5  A    between atoms: C_7  and  C_8
REMARK    6  A    between atoms: C_13  and  N_14
REMARK    7  A    between atoms: N_14  and  C_15
REMARK                            x       y       z     vdW  Elec       q    Type
REMARK                         _______ _______ _______ _____ _____    ______ ____
ROOT
ATOM      1  C   UNL     1       8.570   0.261  20.945  0.00  0.00    +0.000 C 
ATOM      2  C   UNL     1       9.296  -0.804  21.507  0.00  0.00    +0.000 C 
ATOM      3  C   UNL     1       8.817  -2.014  22.361  0.00  0.00    +0.000 C 
ATOM      4  C   UNL     1       7.312  -1.797  22.120  0.00  0.00    +0.000 C 
ATOM      5  C   UNL     1       6.656  -1.165  20.958  0.00  0.00    +0.000 C 
ATOM      6  C   UNL     1       7.146   0.099  20.262  0.00  0.00    +0.000 C 
ATOM      7  F   UNL     1       9.086  -1.654  23.607  0.00  0.00    +0.000 F 
ENDROOT
BRANCH   1   8
ATOM      8  C   UNL     1       8.706   1.676  21.528  0.00  0.00    +0.000 C 
BRANCH   8   9
ATOM      9  C   UNL     1      10.173   1.805  21.983  0.00  0.00    +0.000 C 
BRANCH   9  11
ATOM     10  C   UNL     1       9.447   1.576  24.444  0.00  0.00    +0.000 C 
ATOM     11  C   UNL     1      10.151   2.102  23.479  0.00  0.00    +0.000 C 
ATOM     12  F   UNL     1      11.283   2.795  23.859  0.00  0.00    +0.000 F 
BRANCH  10  13
ATOM     13  C   UNL     1       8.293   1.372  25.313  0.00  0.00    +0.000 C 
BRANCH  13  15
ATOM     14  O   UNL     1       6.677   2.843  24.413  0.00  0.00    +0.000 OA
ATOM     15  C   UNL     1       7.528   2.679  25.522  0.00  0.00    +0.000 C 
ENDBRANCH  13  15
ENDBRANCH  10  13
ENDBRANCH   9  11
ENDBRANCH   8   9
ENDBRANCH   1   8
BRANCH   6  16
ATOM     16  N   UNL     1       6.365   1.200  20.313  0.00  0.00    +0.000 NA
BRANCH  16  17
ATOM     17  C   UNL     1       5.387   1.332  19.300  0.00  0.00    +0.000 C 
ATOM     18  C   UNL     1       5.936   0.927  17.945  0.00  0.00    +0.000 C 
ENDBRANCH  16  17
ENDBRANCH   6  16
TORSDOF 7
ENDMDL
MODEL 9
REMARK VINA RESULT:      -5.1      4.414      6.315
REMARK  Name = 
REMARK  7 active torsions:
REMARK  status: ('A' for Active; 'I' for Inactive)
REMARK    1  A    between atoms: C_2  and  C_3
REMARK    2  A    between atoms: C_3  and  C_4
REMARK    3  A    between atoms: C_5  and  C_6
REMARK    4  A    between atoms: C_6  and  C_7
REMARK    5  A    between atoms: C_7  and  C_8
REMARK    6  A    between atoms: C_13  and  N_14
REMARK    7  A    between atoms: N_14  and  C_15
REMARK                            x       y       z     vdW  Elec       q    Type
REMARK                         _______ _______ _______ _____ _____    ______ ____
ROOT
ATOM      1  C   UNL     1       7.408  -1.309  22.437  0.00  0.00    +0.000 C 
ATOM      2  C   UNL     1       8.424  -1.404  23.406  0.00  0.00    +0.000 C 
ATOM      3  C   UNL     1       9.961  -1.202  23.280  0.00  0.00    +0.000 C 
ATOM      4  C   UNL     1       9.931  -0.598  21.864  0.00  0.00    +0.000 C 
ATOM      5  C   UNL     1       8.840   0.161  21.220  0.00  0.00    +0.000 C 
ATOM      6  C   UNL     1       7.361  -0.193  21.309  0.00  0.00    +0.000 C 
ATOM      7  F   UNL     1      10.441  -2.434  23.187  0.00  0.00    +0.000 F 
ENDROOT
BRANCH   1   8
ATOM      8  C   UNL     1       6.702  -2.580  21.939  0.00  0.00    +0.000 C 
BRANCH   8   9
ATOM      9  C   UNL     1       7.364  -3.752  22.688  0.00  0.00    +0.000 C 
BRANCH   9  11
ATOM     10  C   UNL     1       5.433  -5.429  22.372  0.00  0.00    +0.000 C 
ATOM     11  C   UNL     1       6.667  -5.028  22.225  0.00  0.00    +0.000 C 
ATOM     12  F   UNL     1       7.398  -5.657  21.237  0.00  0.00    +0.000 F 
BRANCH  10  13
ATOM     13  C   UNL     1       4.283  -6.033  23.036  0.00  0.00    +0.000 C 
BRANCH  13  15
ATOM     14  O   UNL     1       3.920  -7.781  24.585  0.00  0.00    +0.000 OA
ATOM     15  C   UNL     1       4.677  -6.609  24.396  0.00  0.00    +0.000 C 
ENDBRANCH  13  15
ENDBRANCH  10  13
ENDBRANCH   9  11
ENDBRANCH   8   9
ENDBRANCH   1   8
BRANCH   6  16
ATOM     16  N   UNL     1       6.722  -0.560  20.177  0.00  0.00    +0.000 NA
BRANCH  16  17
ATOM     17  C   UNL     1       7.080   0.130  18.996  0.00  0.00    +0.000 C 
ATOM     18  C   UNL     1       5.865   0.420  18.134  0.00  0.00    +0.000 C 
ENDBRANCH  16  17
ENDBRANCH   6  16
TORSDOF 7
ENDMDL
