MODEL 1
REMARK VINA RESULT:      -8.0      0.000      0.000
REMARK  Name = 
REMARK  6 active torsions:
REMARK  status: ('A' for Active; 'I' for Inactive)
REMARK    1  A    between atoms: C_2  and  N_3
REMARK    2  A    between atoms: N_3  and  C_4
REMARK    3  A    between atoms: C_9  and  C_10
REMARK    4  A    between atoms: C_10  and  N_11
REMARK    5  A    between atoms: C_12  and  C_14
REMARK    6  A    between atoms: C_20  and  C_26
REMARK                            x       y       z     vdW  Elec       q    Type
REMARK                         _______ _______ _______ _____ _____    ______ ____
ROOT
ATOM      1  C   UNL     1       5.136  -4.882  23.951  0.00  0.00    +0.000 C 
ATOM      2  C   UNL     1       4.551  -5.885  23.011  0.00  0.00    +0.000 C 
ATOM      3  C   UNL     1       4.081  -3.753  24.197  0.00  0.00    +0.000 C 
ATOM      4  C   UNL     1       4.857  -2.907  25.332  0.00  0.00    +0.000 C 
ATOM      5  C   UNL     1       5.345  -4.015  26.188  0.00  0.00    +0.000 C 
ATOM      6  C   UNL     1       5.608  -5.297  25.259  0.00  0.00    +0.000 C 
ATOM      7  C   UNL     1       7.147  -5.510  25.511  0.00  0.00    +0.000 C 
ATOM      8  C   UNL     1       7.047  -5.290  27.196  0.00  0.00    +0.000 C 
ATOM      9  C   UNL     1       6.517  -3.804  27.077  0.00  0.00    +0.000 C 
ATOM     10  C   UNL     1       7.713  -3.022  26.650  0.00  0.00    +0.000 C 
ATOM     11  C   UNL     1       4.160  -4.468  27.078  0.00  0.00    +0.000 C 
ATOM     12  C   UNL     1       3.059  -4.964  26.213  0.00  0.00    +0.000 C 
ATOM     13  C   UNL     1       2.866  -4.260  24.911  0.00  0.00    +0.000 C 
ATOM     14  C   UNL     1       1.969  -5.064  23.984  0.00  0.00    +0.000 C 
ATOM     15  O   UNL     1       2.117  -3.075  25.239  0.00  0.00    +0.000 OA
ENDROOT
BRANCH   1  17
ATOM     16  N   UNL     1       5.928  -3.033  22.548  0.00  0.00    +0.000 NA
ATOM     17  C   UNL     1       6.263  -4.162  23.186  0.00  0.00    +0.000 C 
ATOM     18  O   UNL     1       7.242  -4.780  22.778  0.00  0.00    +0.000 OA
BRANCH  16  19
ATOM     19  C   UNL     1       6.587  -1.785  22.729  0.00  0.00    +0.000 C 
BRANCH  19  25
ATOM     20  C   UNL     1       7.452   0.229  21.405  0.00  0.00    +0.000 C 
ATOM     21  C   UNL     1       6.647   1.260  20.593  0.00  0.00    +0.000 C 
ATOM     22  C   UNL     1       6.352   0.628  19.240  0.00  0.00    +0.000 C 
ATOM     23  C   UNL     1       5.801  -0.671  19.176  0.00  0.00    +0.000 C 
ATOM     24  C   UNL     1       6.094  -1.570  20.245  0.00  0.00    +0.000 C 
ATOM     25  C   UNL     1       6.693  -1.065  21.415  0.00  0.00    +0.000 C 
ATOM     26  F   UNL     1       6.108  -1.265  18.008  0.00  0.00    +0.000 F 
BRANCH  20  27
ATOM     27  N   UNL     1       8.729   0.051  20.747  0.00  0.00    +0.000 NA
BRANCH  27  29
ATOM     28  C   UNL     1       9.996   1.602  22.105  0.00  0.00    +0.000 C 
ATOM     29  C   UNL     1       9.752   0.141  21.751  0.00  0.00    +0.000 C 
ENDBRANCH  27  29
ENDBRANCH  20  27
ENDBRANCH  19  25
ENDBRANCH  16  19
ENDBRANCH   1  17
BRANCH   6  30
ATOM     30  C   UNL     1       4.975  -6.485  25.864  0.00  0.00    +0.000 C 
ATOM     31  O   UNL     1       5.296  -6.968  26.955  0.00  0.00    +0.000 OA
ATOM     32  O   UNL     1       4.476  -7.333  24.956  0.00  0.00    +0.000 OA
ENDBRANCH   6  30
TORSDOF 6
ENDMDL
MODEL 2
REMARK VINA RESULT:      -8.0      2.000      2.952
REMARK  Name = 
REMARK  6 active torsions:
REMARK  status: ('A' for Active; 'I' for Inactive)
REMARK    1  A    between atoms: C_2  and  N_3
REMARK    2  A    between atoms: N_3  and  C_4
REMARK    3  A    between atoms: C_9  and  C_10
REMARK    4  A    between atoms: C_10  and  N_11
REMARK    5  A    between atoms: C_12  and  C_14
REMARK    6  A    between atoms: C_20  and  C_26
REMARK                            x       y       z     vdW  Elec       q    Type
REMARK                         _______ _______ _______ _____ _____    ______ ____
ROOT
ATOM      1  C   UNL     1       7.867  -4.058  24.089  0.00  0.00    +0.000 C 
ATOM      2  C   UNL     1       8.261  -5.488  23.910  0.00  0.00    +0.000 C 
ATOM      3  C   UNL     1       7.080  -3.594  22.820  0.00  0.00    +0.000 C 
ATOM      4  C   UNL     1       6.636  -2.120  23.307  0.00  0.00    +0.000 C 
ATOM      5  C   UNL     1       6.199  -2.428  24.690  0.00  0.00    +0.000 C 
ATOM      6  C   UNL     1       7.073  -3.658  25.236  0.00  0.00    +0.000 C 
ATOM      7  C   UNL     1       7.765  -2.978  26.476  0.00  0.00    +0.000 C 
ATOM      8  C   UNL     1       6.346  -2.217  27.029  0.00  0.00    +0.000 C 
ATOM      9  C   UNL     1       6.171  -1.353  25.716  0.00  0.00    +0.000 C 
ATOM     10  C   UNL     1       7.236  -0.315  25.815  0.00  0.00    +0.000 C 
ATOM     11  C   UNL     1       4.773  -3.027  24.603  0.00  0.00    +0.000 C 
ATOM     12  C   UNL     1       4.816  -4.283  23.809  0.00  0.00    +0.000 C 
ATOM     13  C   UNL     1       5.777  -4.317  22.667  0.00  0.00    +0.000 C 
ATOM     14  C   UNL     1       5.983  -5.738  22.170  0.00  0.00    +0.000 C 
ATOM     15  O   UNL     1       5.103  -3.627  21.598  0.00  0.00    +0.000 OA
ENDROOT
BRANCH   1  17
ATOM     16  N   UNL     1       9.262  -2.336  23.039  0.00  0.00    +0.000 NA
ATOM     17  C   UNL     1       9.166  -3.230  24.032  0.00  0.00    +0.000 C 
ATOM     18  O   UNL     1      10.208  -3.657  24.519  0.00  0.00    +0.000 OA
BRANCH  16  19
ATOM     19  C   UNL     1       9.547  -0.955  23.230  0.00  0.00    +0.000 C 
BRANCH  19  25
ATOM     20  C   UNL     1       8.298   1.195  22.618  0.00  0.00    +0.000 C 
ATOM     21  C   UNL     1       6.876   1.350  22.051  0.00  0.00    +0.000 C 
ATOM     22  C   UNL     1       6.964   1.098  20.552  0.00  0.00    +0.000 C 
ATOM     23  C   UNL     1       7.624  -0.055  20.072  0.00  0.00    +0.000 C 
ATOM     24  C   UNL     1       8.673  -0.601  20.870  0.00  0.00    +0.000 C 
ATOM     25  C   UNL     1       8.840  -0.136  22.188  0.00  0.00    +0.000 C 
ATOM     26  F   UNL     1       8.080   0.141  18.821  0.00  0.00    +0.000 F 
BRANCH  20  27
ATOM     27  N   UNL     1       9.110   2.262  22.068  0.00  0.00    +0.000 NA
BRANCH  27  29
ATOM     28  C   UNL     1       9.221   2.898  24.401  0.00  0.00    +0.000 C 
ATOM     29  C   UNL     1       9.997   2.710  23.104  0.00  0.00    +0.000 C 
ENDBRANCH  27  29
ENDBRANCH  20  27
ENDBRANCH  19  25
ENDBRANCH  16  19
ENDBRANCH   1  17
BRANCH   6  30
ATOM     30  C   UNL     1       6.182  -4.673  25.832  0.00  0.00    +0.000 C 
ATOM     31  O   UNL     1       5.328  -4.434  26.692  0.00  0.00    +0.000 OA
ATOM     32  O   UNL     1       6.717  -5.900  25.844  0.00  0.00    +0.000 OA
ENDBRANCH   6  30
TORSDOF 6
ENDMDL
MODEL 3
REMARK VINA RESULT:      -7.9      3.128      6.905
REMARK  Name = 
REMARK  6 active torsions:
REMARK  status: ('A' for Active; 'I' for Inactive)
REMARK    1  A    between atoms: C_2  and  N_3
REMARK    2  A    between atoms: N_3  and  C_4
REMARK    3  A    between atoms: C_9  and  C_10
REMARK    4  A    between atoms: C_10  and  N_11
REMARK    5  A    between atoms: C_12  and  C_14
REMARK    6  A    between atoms: C_20  and  C_26
REMARK                            x       y       z     vdW  Elec       q    Type
REMARK                         _______ _______ _______ _____ _____    ______ ____
ROOT
ATOM      1  C   UNL     1       8.851  -1.194  23.904  0.00  0.00    +0.000 C 
ATOM      2  C   UNL     1       9.729  -1.867  24.907  0.00  0.00    +0.000 C 
ATOM      3  C   UNL     1       7.417  -1.048  24.513  0.00  0.00    +0.000 C 
ATOM      4  C   UNL     1       6.720  -0.176  23.347  0.00  0.00    +0.000 C 
ATOM      5  C   UNL     1       7.795   0.811  23.088  0.00  0.00    +0.000 C 
ATOM      6  C   UNL     1       9.210   0.111  23.378  0.00  0.00    +0.000 C 
ATOM      7  C   UNL     1       9.876   0.232  21.957  0.00  0.00    +0.000 C 
ATOM      8  C   UNL     1       9.401   1.849  21.716  0.00  0.00    +0.000 C 
ATOM      9  C   UNL     1       7.856   1.517  21.781  0.00  0.00    +0.000 C 
ATOM     10  C   UNL     1       7.574   0.830  20.489  0.00  0.00    +0.000 C 
ATOM     11  C   UNL     1       7.709   1.891  24.197  0.00  0.00    +0.000 C 
ATOM     12  C   UNL     1       7.934   1.253  25.520  0.00  0.00    +0.000 C 
ATOM     13  C   UNL     1       7.396  -0.128  25.694  0.00  0.00    +0.000 C 
ATOM     14  C   UNL     1       7.985  -0.792  26.929  0.00  0.00    +0.000 C 
ATOM     15  O   UNL     1       5.997   0.055  25.986  0.00  0.00    +0.000 OA
ENDROOT
BRANCH   1  17
ATOM     16  N   UNL     1       8.284  -3.436  23.087  0.00  0.00    +0.000 NA
ATOM     17  C   UNL     1       8.652  -2.193  22.748  0.00  0.00    +0.000 C 
ATOM     18  O   UNL     1       9.232  -2.041  21.677  0.00  0.00    +0.000 OA
BRANCH  16  19
ATOM     19  C   UNL     1       7.144  -4.104  22.561  0.00  0.00    +0.000 C 
BRANCH  19  25
ATOM     20  C   UNL     1       6.483  -5.133  24.811  0.00  0.00    +0.000 C 
ATOM     21  C   UNL     1       5.303  -6.069  25.128  0.00  0.00    +0.000 C 
ATOM     22  C   UNL     1       4.068  -5.193  25.283  0.00  0.00    +0.000 C 
ATOM     23  C   UNL     1       3.758  -4.235  24.293  0.00  0.00    +0.000 C 
ATOM     24  C   UNL     1       4.838  -3.682  23.541  0.00  0.00    +0.000 C 
ATOM     25  C   UNL     1       6.110  -4.278  23.636  0.00  0.00    +0.000 C 
ATOM     26  F   UNL     1       3.024  -3.232  24.810  0.00  0.00    +0.000 F 
BRANCH  20  27
ATOM     27  N   UNL     1       6.711  -4.303  25.976  0.00  0.00    +0.000 NA
BRANCH  27  29
ATOM     28  C   UNL     1       8.906  -5.322  25.917  0.00  0.00    +0.000 C 
ATOM     29  C   UNL     1       7.708  -4.950  26.782  0.00  0.00    +0.000 C 
ENDBRANCH  27  29
ENDBRANCH  20  27
ENDBRANCH  19  25
ENDBRANCH  16  19
ENDBRANCH   1  17
BRANCH   6  30
ATOM     30  C   UNL     1      10.029   0.987  24.237  0.00  0.00    +0.000 C 
ATOM     31  O   UNL     1      10.429   2.110  23.910  0.00  0.00    +0.000 OA
ATOM     32  O   UNL     1      10.792   0.308  25.103  0.00  0.00    +0.000 OA
ENDBRANCH   6  30
TORSDOF 6
ENDMDL
MODEL 4
REMARK VINA RESULT:      -7.8      3.609      7.345
REMARK  Name = 
REMARK  6 active torsions:
REMARK  status: ('A' for Active; 'I' for Inactive)
REMARK    1  A    between atoms: C_2  and  N_3
REMARK    2  A    between atoms: N_3  and  C_4
REMARK    3  A    between atoms: C_9  and  C_10
REMARK    4  A    between atoms: C_10  and  N_11
REMARK    5  A    between atoms: C_12  and  C_14
REMARK    6  A    between atoms: C_20  and  C_26
REMARK                            x       y       z     vdW  Elec       q    Type
REMARK                         _______ _______ _______ _____ _____    ______ ____
ROOT
ATOM      1  C   UNL     1       8.925  -0.460  24.240  0.00  0.00    +0.000 C 
ATOM      2  C   UNL     1       9.867  -0.199  25.370  0.00  0.00    +0.000 C 
ATOM      3  C   UNL     1       7.527  -0.836  24.832  0.00  0.00    +0.000 C 
ATOM      4  C   UNL     1       6.670  -0.908  23.467  0.00  0.00    +0.000 C 
ATOM      5  C   UNL     1       7.165   0.315  22.789  0.00  0.00    +0.000 C 
ATOM      6  C   UNL     1       8.686   0.563  23.239  0.00  0.00    +0.000 C 
ATOM      7  C   UNL     1       9.405   0.482  21.841  0.00  0.00    +0.000 C 
ATOM      8  C   UNL     1       8.254   1.441  21.034  0.00  0.00    +0.000 C 
ATOM      9  C   UNL     1       7.065   0.436  21.311  0.00  0.00    +0.000 C 
ATOM     10  C   UNL     1       7.331  -0.709  20.395  0.00  0.00    +0.000 C 
ATOM     11  C   UNL     1       6.418   1.523  23.409  0.00  0.00    +0.000 C 
ATOM     12  C   UNL     1       6.732   1.602  24.859  0.00  0.00    +0.000 C 
ATOM     13  C   UNL     1       6.902   0.303  25.576  0.00  0.00    +0.000 C 
ATOM     14  C   UNL     1       7.556   0.511  26.932  0.00  0.00    +0.000 C 
ATOM     15  O   UNL     1       5.561  -0.140  25.859  0.00  0.00    +0.000 OA
ENDROOT
BRANCH   1  17
ATOM     16  N   UNL     1       9.282  -2.885  24.285  0.00  0.00    +0.000 NA
ATOM     17  C   UNL     1       9.394  -1.762  23.564  0.00  0.00    +0.000 C 
ATOM     18  O   UNL     1      10.230  -1.740  22.666  0.00  0.00    +0.000 OA
BRANCH  16  19
ATOM     19  C   UNL     1       8.602  -4.055  23.846  0.00  0.00    +0.000 C 
BRANCH  19  25
ATOM     20  C   UNL     1       6.151  -4.415  24.495  0.00  0.00    +0.000 C 
ATOM     21  C   UNL     1       5.367  -3.791  25.662  0.00  0.00    +0.000 C 
ATOM     22  C   UNL     1       5.707  -4.596  26.909  0.00  0.00    +0.000 C 
ATOM     23  C   UNL     1       7.058  -4.853  27.231  0.00  0.00    +0.000 C 
ATOM     24  C   UNL     1       7.996  -4.918  26.158  0.00  0.00    +0.000 C 
ATOM     25  C   UNL     1       7.600  -4.485  24.879  0.00  0.00    +0.000 C 
ATOM     26  F   UNL     1       7.168  -5.967  27.978  0.00  0.00    +0.000 F 
BRANCH  20  27
ATOM     27  N   UNL     1       5.631  -5.749  24.278  0.00  0.00    +0.000 NA
BRANCH  27  29
ATOM     28  C   UNL     1       6.191  -6.168  21.962  0.00  0.00    +0.000 C 
ATOM     29  C   UNL     1       5.092  -5.795  22.948  0.00  0.00    +0.000 C 
ENDBRANCH  27  29
ENDBRANCH  20  27
ENDBRANCH  19  25
ENDBRANCH  16  19
ENDBRANCH   1  17
BRANCH   6  30
ATOM     30  C   UNL     1       8.856   1.970  23.651  0.00  0.00    +0.000 C 
ATOM     31  O   UNL     1       8.693   2.942  22.905  0.00  0.00    +0.000 OA
ATOM     32  O   UNL     1       9.737   2.122  24.648  0.00  0.00    +0.000 OA
ENDBRANCH   6  30
TORSDOF 6
ENDMDL
MODEL 5
REMARK VINA RESULT:      -7.8      3.443      7.447
REMARK  Name = 
REMARK  6 active torsions:
REMARK  status: ('A' for Active; 'I' for Inactive)
REMARK    1  A    between atoms: C_2  and  N_3
REMARK    2  A    between atoms: N_3  and  C_4
REMARK    3  A    between atoms: C_9  and  C_10
REMARK    4  A    between atoms: C_10  and  N_11
REMARK    5  A    between atoms: C_12  and  C_14
REMARK    6  A    between atoms: C_20  and  C_26
REMARK                            x       y       z     vdW  Elec       q    Type
REMARK                         _______ _______ _______ _____ _____    ______ ____
ROOT
ATOM      1  C   UNL     1       8.250   0.394  22.198  0.00  0.00    +0.000 C 
ATOM      2  C   UNL     1       9.498  -0.119  21.557  0.00  0.00    +0.000 C 
ATOM      3  C   UNL     1       7.970  -0.444  23.488  0.00  0.00    +0.000 C 
ATOM      4  C   UNL     1       6.709   0.378  24.071  0.00  0.00    +0.000 C 
ATOM      5  C   UNL     1       7.194   1.765  23.873  0.00  0.00    +0.000 C 
ATOM      6  C   UNL     1       8.148   1.790  22.583  0.00  0.00    +0.000 C 
ATOM      7  C   UNL     1       7.358   2.803  21.673  0.00  0.00    +0.000 C 
ATOM      8  C   UNL     1       7.060   3.915  22.926  0.00  0.00    +0.000 C 
ATOM      9  C   UNL     1       6.221   2.885  23.785  0.00  0.00    +0.000 C 
ATOM     10  C   UNL     1       4.928   2.765  23.052  0.00  0.00    +0.000 C 
ATOM     11  C   UNL     1       8.170   2.085  25.033  0.00  0.00    +0.000 C 
ATOM     12  C   UNL     1       9.322   1.148  24.976  0.00  0.00    +0.000 C 
ATOM     13  C   UNL     1       9.026  -0.246  24.531  0.00  0.00    +0.000 C 
ATOM     14  C   UNL     1      10.305  -0.989  24.179  0.00  0.00    +0.000 C 
ATOM     15  O   UNL     1       8.508  -0.905  25.702  0.00  0.00    +0.000 OA
ENDROOT
BRANCH   1  17
ATOM     16  N   UNL     1       7.029  -1.259  20.859  0.00  0.00    +0.000 NA
ATOM     17  C   UNL     1       7.085   0.018  21.262  0.00  0.00    +0.000 C 
ATOM     18  O   UNL     1       6.544   0.864  20.556  0.00  0.00    +0.000 OA
BRANCH  16  19
ATOM     19  C   UNL     1       5.889  -2.096  21.010  0.00  0.00    +0.000 C 
BRANCH  19  25
ATOM     20  C   UNL     1       4.981  -3.403  23.017  0.00  0.00    +0.000 C 
ATOM     21  C   UNL     1       5.501  -3.420  24.465  0.00  0.00    +0.000 C 
ATOM     22  C   UNL     1       6.680  -4.383  24.503  0.00  0.00    +0.000 C 
ATOM     23  C   UNL     1       7.715  -4.264  23.550  0.00  0.00    +0.000 C 
ATOM     24  C   UNL     1       7.383  -3.718  22.274  0.00  0.00    +0.000 C 
ATOM     25  C   UNL     1       6.130  -3.100  22.102  0.00  0.00    +0.000 C 
ATOM     26  F   UNL     1       8.340  -5.443  23.373  0.00  0.00    +0.000 F 
BRANCH  20  27
ATOM     27  N   UNL     1       4.448  -4.717  22.725  0.00  0.00    +0.000 NA
BRANCH  27  29
ATOM     28  C   UNL     1       2.555  -6.179  23.098  0.00  0.00    +0.000 C 
ATOM     29  C   UNL     1       3.245  -4.879  23.493  0.00  0.00    +0.000 C 
ENDBRANCH  27  29
ENDBRANCH  20  27
ENDBRANCH  19  25
ENDBRANCH  16  19
ENDBRANCH   1  17
BRANCH   6  30
ATOM     30  C   UNL     1       9.402   2.497  22.908  0.00  0.00    +0.000 C 
ATOM     31  O   UNL     1       9.458   3.649  23.355  0.00  0.00    +0.000 OA
ATOM     32  O   UNL     1      10.441   2.089  22.170  0.00  0.00    +0.000 OA
ENDBRANCH   6  30
TORSDOF 6
ENDMDL
MODEL 6
REMARK VINA RESULT:      -7.7      3.440      7.185
REMARK  Name = 
REMARK  6 active torsions:
REMARK  status: ('A' for Active; 'I' for Inactive)
REMARK    1  A    between atoms: C_2  and  N_3
REMARK    2  A    between atoms: N_3  and  C_4
REMARK    3  A    between atoms: C_9  and  C_10
REMARK    4  A    between atoms: C_10  and  N_11
REMARK    5  A    between atoms: C_12  and  C_14
REMARK    6  A    between atoms: C_20  and  C_26
REMARK                            x       y       z     vdW  Elec       q    Type
REMARK                         _______ _______ _______ _____ _____    ______ ____
ROOT
ATOM      1  C   UNL     1       7.959  -1.339  22.722  0.00  0.00    +0.000 C 
ATOM      2  C   UNL     1       6.728  -2.184  22.674  0.00  0.00    +0.000 C 
ATOM      3  C   UNL     1       8.377  -0.982  21.257  0.00  0.00    +0.000 C 
ATOM      4  C   UNL     1       9.591   0.035  21.567  0.00  0.00    +0.000 C 
ATOM      5  C   UNL     1       8.979   0.842  22.650  0.00  0.00    +0.000 C 
ATOM      6  C   UNL     1       7.960  -0.092  23.465  0.00  0.00    +0.000 C 
ATOM      7  C   UNL     1       8.610  -0.029  24.897  0.00  0.00    +0.000 C 
ATOM      8  C   UNL     1       8.877   1.652  24.857  0.00  0.00    +0.000 C 
ATOM      9  C   UNL     1       9.846   1.576  23.609  0.00  0.00    +0.000 C 
ATOM     10  C   UNL     1      11.103   0.993  24.156  0.00  0.00    +0.000 C 
ATOM     11  C   UNL     1       8.041   1.878  21.981  0.00  0.00    +0.000 C 
ATOM     12  C   UNL     1       6.973   1.163  21.236  0.00  0.00    +0.000 C 
ATOM     13  C   UNL     1       7.364  -0.117  20.574  0.00  0.00    +0.000 C 
ATOM     14  C   UNL     1       6.137  -0.914  20.160  0.00  0.00    +0.000 C 
ATOM     15  O   UNL     1       7.998   0.282  19.344  0.00  0.00    +0.000 OA
ENDROOT
BRANCH   1  17
ATOM     16  N   UNL     1       8.953  -2.792  24.429  0.00  0.00    +0.000 NA
ATOM     17  C   UNL     1       9.102  -2.248  23.213  0.00  0.00    +0.000 C 
ATOM     18  O   UNL     1      10.243  -2.114  22.783  0.00  0.00    +0.000 OA
BRANCH  16  19
ATOM     19  C   UNL     1       9.043  -4.186  24.698  0.00  0.00    +0.000 C 
BRANCH  19  25
ATOM     20  C   UNL     1       6.507  -4.537  24.773  0.00  0.00    +0.000 C 
ATOM     21  C   UNL     1       5.486  -3.944  25.760  0.00  0.00    +0.000 C 
ATOM     22  C   UNL     1       5.536  -4.797  27.019  0.00  0.00    +0.000 C 
ATOM     23  C   UNL     1       6.780  -5.083  27.623  0.00  0.00    +0.000 C 
ATOM     24  C   UNL     1       7.934  -5.122  26.784  0.00  0.00    +0.000 C 
ATOM     25  C   UNL     1       7.834  -4.639  25.466  0.00  0.00    +0.000 C 
ATOM     26  F   UNL     1       6.716  -6.225  28.333  0.00  0.00    +0.000 F 
BRANCH  20  27
ATOM     27  N   UNL     1       6.041  -5.855  24.396  0.00  0.00    +0.000 NA
BRANCH  27  29
ATOM     28  C   UNL     1       6.886  -5.936  22.129  0.00  0.00    +0.000 C 
ATOM     29  C   UNL     1       5.653  -5.800  23.014  0.00  0.00    +0.000 C 
ENDBRANCH  27  29
ENDBRANCH  20  27
ENDBRANCH  19  25
ENDBRANCH  16  19
ENDBRANCH   1  17
BRANCH   6  30
ATOM     30  C   UNL     1       6.669   0.604  23.624  0.00  0.00    +0.000 C 
ATOM     31  O   UNL     1       6.548   1.825  23.779  0.00  0.00    +0.000 OA
ATOM     32  O   UNL     1       5.720  -0.166  24.170  0.00  0.00    +0.000 OA
ENDBRANCH   6  30
TORSDOF 6
ENDMDL
MODEL 7
REMARK VINA RESULT:      -7.6      2.197      3.694
REMARK  Name = 
REMARK  6 active torsions:
REMARK  status: ('A' for Active; 'I' for Inactive)
REMARK    1  A    between atoms: C_2  and  N_3
REMARK    2  A    between atoms: N_3  and  C_4
REMARK    3  A    between atoms: C_9  and  C_10
REMARK    4  A    between atoms: C_10  and  N_11
REMARK    5  A    between atoms: C_12  and  C_14
REMARK    6  A    between atoms: C_20  and  C_26
REMARK                            x       y       z     vdW  Elec       q    Type
REMARK                         _______ _______ _______ _____ _____    ______ ____
ROOT
ATOM      1  C   UNL     1       6.841  -3.667  25.005  0.00  0.00    +0.000 C 
ATOM      2  C   UNL     1       8.263  -4.095  24.841  0.00  0.00    +0.000 C 
ATOM      3  C   UNL     1       6.128  -3.762  23.616  0.00  0.00    +0.000 C 
ATOM      4  C   UNL     1       4.617  -3.419  24.069  0.00  0.00    +0.000 C 
ATOM      5  C   UNL     1       4.522  -4.251  25.293  0.00  0.00    +0.000 C 
ATOM      6  C   UNL     1       5.980  -4.345  25.957  0.00  0.00    +0.000 C 
ATOM      7  C   UNL     1       5.689  -3.694  27.360  0.00  0.00    +0.000 C 
ATOM      8  C   UNL     1       4.235  -4.542  27.611  0.00  0.00    +0.000 C 
ATOM      9  C   UNL     1       3.526  -3.914  26.344  0.00  0.00    +0.000 C 
ATOM     10  C   UNL     1       3.234  -2.509  26.746  0.00  0.00    +0.000 C 
ATOM     11  C   UNL     1       4.250  -5.708  24.843  0.00  0.00    +0.000 C 
ATOM     12  C   UNL     1       5.386  -6.185  24.012  0.00  0.00    +0.000 C 
ATOM     13  C   UNL     1       6.032  -5.173  23.124  0.00  0.00    +0.000 C 
ATOM     14  C   UNL     1       7.370  -5.676  22.608  0.00  0.00    +0.000 C 
ATOM     15  O   UNL     1       5.177  -5.097  21.968  0.00  0.00    +0.000 OA
ENDROOT
BRANCH   1  17
ATOM     16  N   UNL     1       7.386  -1.369  24.346  0.00  0.00    +0.000 NA
ATOM     17  C   UNL     1       6.864  -2.155  25.298  0.00  0.00    +0.000 C 
ATOM     18  O   UNL     1       6.870  -1.736  26.451  0.00  0.00    +0.000 OA
BRANCH  16  19
ATOM     19  C   UNL     1       6.714  -0.254  23.772  0.00  0.00    +0.000 C 
BRANCH  19  25
ATOM     20  C   UNL     1       8.214   0.177  21.741  0.00  0.00    +0.000 C 
ATOM     21  C   UNL     1       9.737   0.392  21.702  0.00  0.00    +0.000 C 
ATOM     22  C   UNL     1       9.991   1.848  22.069  0.00  0.00    +0.000 C 
ATOM     23  C   UNL     1       9.389   2.396  23.222  0.00  0.00    +0.000 C 
ATOM     24  C   UNL     1       8.146   1.842  23.651  0.00  0.00    +0.000 C 
ATOM     25  C   UNL     1       7.702   0.637  23.074  0.00  0.00    +0.000 C 
ATOM     26  F   UNL     1       9.257   3.731  23.105  0.00  0.00    +0.000 F 
BRANCH  20  27
ATOM     27  N   UNL     1       7.630   0.976  20.683  0.00  0.00    +0.000 NA
BRANCH  27  29
ATOM     28  C   UNL     1       6.371   0.480  18.677  0.00  0.00    +0.000 C 
ATOM     29  C   UNL     1       7.624   0.179  19.489  0.00  0.00    +0.000 C 
ENDBRANCH  27  29
ENDBRANCH  20  27
ENDBRANCH  19  25
ENDBRANCH  16  19
ENDBRANCH   1  17
BRANCH   6  30
ATOM     30  C   UNL     1       6.291  -5.753  26.270  0.00  0.00    +0.000 C 
ATOM     31  O   UNL     1       5.549  -6.507  26.909  0.00  0.00    +0.000 OA
ATOM     32  O   UNL     1       7.605  -5.995  26.353  0.00  0.00    +0.000 OA
ENDBRANCH   6  30
TORSDOF 6
ENDMDL
MODEL 8
REMARK VINA RESULT:      -7.6      3.533      7.661
REMARK  Name = 
REMARK  6 active torsions:
REMARK  status: ('A' for Active; 'I' for Inactive)
REMARK    1  A    between atoms: C_2  and  N_3
REMARK    2  A    between atoms: N_3  and  C_4
REMARK    3  A    between atoms: C_9  and  C_10
REMARK    4  A    between atoms: C_10  and  N_11
REMARK    5  A    between atoms: C_12  and  C_14
REMARK    6  A    between atoms: C_20  and  C_26
REMARK                            x       y       z     vdW  Elec       q    Type
REMARK                         _______ _______ _______ _____ _____    ______ ____
ROOT
ATOM      1  C   UNL     1       7.101  -0.072  23.440  0.00  0.00    +0.000 C 
ATOM      2  C   UNL     1       6.723  -0.779  22.179  0.00  0.00    +0.000 C 
ATOM      3  C   UNL     1       8.460  -0.653  23.950  0.00  0.00    +0.000 C 
ATOM      4  C   UNL     1       8.729   0.348  25.188  0.00  0.00    +0.000 C 
ATOM      5  C   UNL     1       8.376   1.641  24.553  0.00  0.00    +0.000 C 
ATOM      6  C   UNL     1       7.239   1.373  23.453  0.00  0.00    +0.000 C 
ATOM      7  C   UNL     1       6.080   2.270  24.028  0.00  0.00    +0.000 C 
ATOM      8  C   UNL     1       7.087   3.600  24.366  0.00  0.00    +0.000 C 
ATOM      9  C   UNL     1       7.980   2.798  25.397  0.00  0.00    +0.000 C 
ATOM     10  C   UNL     1       7.110   2.650  26.598  0.00  0.00    +0.000 C 
ATOM     11  C   UNL     1       9.590   2.082  23.696  0.00  0.00    +0.000 C 
ATOM     12  C   UNL     1       9.840   1.067  22.640  0.00  0.00    +0.000 C 
ATOM     13  C   UNL     1       9.590  -0.357  23.012  0.00  0.00    +0.000 C 
ATOM     14  C   UNL     1       9.536  -1.242  21.778  0.00  0.00    +0.000 C 
ATOM     15  O   UNL     1      10.771  -0.765  23.727  0.00  0.00    +0.000 OA
ENDROOT
BRANCH   1  17
ATOM     16  N   UNL     1       5.827  -1.828  24.584  0.00  0.00    +0.000 NA
ATOM     17  C   UNL     1       6.091  -0.516  24.516  0.00  0.00    +0.000 C 
ATOM     18  O   UNL     1       5.242   0.260  24.942  0.00  0.00    +0.000 OA
BRANCH  16  19
ATOM     19  C   UNL     1       5.944  -2.607  25.768  0.00  0.00    +0.000 C 
BRANCH  19  25
ATOM     20  C   UNL     1       7.509  -4.373  26.764  0.00  0.00    +0.000 C 
ATOM     21  C   UNL     1       9.017  -4.565  26.520  0.00  0.00    +0.000 C 
ATOM     22  C   UNL     1       9.162  -5.326  25.210  0.00  0.00    +0.000 C 
ATOM     23  C   UNL     1       8.473  -4.881  24.060  0.00  0.00    +0.000 C 
ATOM     24  C   UNL     1       7.248  -4.175  24.251  0.00  0.00    +0.000 C 
ATOM     25  C   UNL     1       6.907  -3.738  25.545  0.00  0.00    +0.000 C 
ATOM     26  F   UNL     1       8.264  -5.898  23.204  0.00  0.00    +0.000 F 
BRANCH  20  27
ATOM     27  N   UNL     1       6.928  -5.682  26.981  0.00  0.00    +0.000 NA
BRANCH  27  29
ATOM     28  C   UNL     1       5.090  -6.755  28.133  0.00  0.00    +0.000 C 
ATOM     29  C   UNL     1       6.076  -5.593  28.133  0.00  0.00    +0.000 C 
ENDBRANCH  27  29
ENDBRANCH  20  27
ENDBRANCH  19  25
ENDBRANCH  16  19
ENDBRANCH   1  17
BRANCH   6  30
ATOM     30  C   UNL     1       7.610   2.031  22.185  0.00  0.00    +0.000 C 
ATOM     31  O   UNL     1       7.734   3.252  22.043  0.00  0.00    +0.000 OA
ATOM     32  O   UNL     1       7.236   1.336  21.104  0.00  0.00    +0.000 OA
ENDBRANCH   6  30
TORSDOF 6
ENDMDL
MODEL 9
REMARK VINA RESULT:      -7.6      3.376      7.400
REMARK  Name = 
REMARK  6 active torsions:
REMARK  status: ('A' for Active; 'I' for Inactive)
REMARK    1  A    between atoms: C_2  and  N_3
REMARK    2  A    between atoms: N_3  and  C_4
REMARK    3  A    between atoms: C_9  and  C_10
REMARK    4  A    between atoms: C_10  and  N_11
REMARK    5  A    between atoms: C_12  and  C_14
REMARK    6  A    between atoms: C_20  and  C_26
REMARK                            x       y       z     vdW  Elec       q    Type
REMARK                         _______ _______ _______ _____ _____    ______ ____
ROOT
ATOM      1  C   UNL     1       7.079   0.191  23.651  0.00  0.00    +0.000 C 
ATOM      2  C   UNL     1       5.975   1.045  24.183  0.00  0.00    +0.000 C 
ATOM      3  C   UNL     1       6.930   0.094  22.097  0.00  0.00    +0.000 C 
ATOM      4  C   UNL     1       8.284  -0.715  21.750  0.00  0.00    +0.000 C 
ATOM      5  C   UNL     1       9.245   0.014  22.613  0.00  0.00    +0.000 C 
ATOM      6  C   UNL     1       8.463   0.542  23.911  0.00  0.00    +0.000 C 
ATOM      7  C   UNL     1       9.267  -0.205  25.041  0.00  0.00    +0.000 C 
ATOM      8  C   UNL     1      10.796   0.141  24.378  0.00  0.00    +0.000 C 
ATOM      9  C   UNL     1      10.509  -0.644  23.035  0.00  0.00    +0.000 C 
ATOM     10  C   UNL     1      10.569  -2.080  23.430  0.00  0.00    +0.000 C 
ATOM     11  C   UNL     1       9.624   1.325  21.879  0.00  0.00    +0.000 C 
ATOM     12  C   UNL     1       8.405   2.153  21.693  0.00  0.00    +0.000 C 
ATOM     13  C   UNL     1       7.134   1.417  21.425  0.00  0.00    +0.000 C 
ATOM     14  C   UNL     1       5.929   2.325  21.606  0.00  0.00    +0.000 C 
ATOM     15  O   UNL     1       7.176   1.107  20.019  0.00  0.00    +0.000 OA
ENDROOT
BRANCH   1  17
ATOM     16  N   UNL     1       5.929  -1.961  23.405  0.00  0.00    +0.000 NA
ATOM     17  C   UNL     1       6.799  -1.246  24.131  0.00  0.00    +0.000 C 
ATOM     18  O   UNL     1       6.953  -1.559  25.308  0.00  0.00    +0.000 OA
BRANCH  16  19
ATOM     19  C   UNL     1       6.209  -3.244  22.858  0.00  0.00    +0.000 C 
BRANCH  19  25
ATOM     20  C   UNL     1       5.562  -4.760  24.819  0.00  0.00    +0.000 C 
ATOM     21  C   UNL     1       6.026  -4.683  26.284  0.00  0.00    +0.000 C 
ATOM     22  C   UNL     1       7.393  -5.349  26.354  0.00  0.00    +0.000 C 
ATOM     23  C   UNL     1       8.403  -4.979  25.439  0.00  0.00    +0.000 C 
ATOM     24  C   UNL     1       7.996  -4.500  24.157  0.00  0.00    +0.000 C 
ATOM     25  C   UNL     1       6.640  -4.184  23.947  0.00  0.00    +0.000 C 
ATOM     26  F   UNL     1       9.288  -5.978  25.272  0.00  0.00    +0.000 F 
BRANCH  20  27
ATOM     27  N   UNL     1       5.356  -6.156  24.495  0.00  0.00    +0.000 NA
BRANCH  27  29
ATOM     28  C   UNL     1       3.327  -5.662  23.272  0.00  0.00    +0.000 C 
ATOM     29  C   UNL     1       3.940  -6.390  24.461  0.00  0.00    +0.000 C 
ENDBRANCH  27  29
ENDBRANCH  20  27
ENDBRANCH  19  25
ENDBRANCH  16  19
ENDBRANCH   1  17
BRANCH   6  30
ATOM     30  C   UNL     1       8.772   1.968  24.130  0.00  0.00    +0.000 C 
ATOM     31  O   UNL     1       9.905   2.412  24.348  0.00  0.00    +0.000 OA
ATOM     32  O   UNL     1       7.750   2.652  24.656  0.00  0.00    +0.000 OA
ENDBRANCH   6  30
TORSDOF 6
ENDMDL
