MODEL 1
REMARK VINA RESULT:      -6.4      0.000      0.000
REMARK  Name = 
REMARK  5 active torsions:
REMARK  status: ('A' for Active; 'I' for Inactive)
REMARK    1  A    between atoms: C_2  and  S_3
REMARK    2  A    between atoms: C_2  and  C_7
REMARK    3  A    between atoms: C_11  and  C_22
REMARK    4  A    between atoms: C_12  and  N_13
REMARK    5  A    between atoms: N_16  and  C_19
REMARK                            x       y       z     vdW  Elec       q    Type
REMARK                         _______ _______ _______ _____ _____    ______ ____
ROOT
ATOM      1  C   UNL     1       6.329  -4.394  24.716  0.00  0.00    +0.000 C 
ATOM      2  C   UNL     1       7.322  -5.463  24.315  0.00  0.00    +0.000 C 
ATOM      3  C   UNL     1       7.114  -5.763  22.832  0.00  0.00    +0.000 C 
ATOM      4  C   UNL     1       7.047  -4.717  21.903  0.00  0.00    +0.000 C 
ATOM      5  C   UNL     1       6.746  -3.393  22.414  0.00  0.00    +0.000 C 
ATOM      6  C   UNL     1       6.596  -3.150  23.772  0.00  0.00    +0.000 C 
ATOM      7  F   UNL     1       6.339  -4.995  20.828  0.00  0.00    +0.000 F 
ENDROOT
BRANCH   6   8
ATOM      8  N   UNL     1       7.486  -2.279  24.501  0.00  0.00    +0.000 N 
ATOM      9  C   UNL     1       6.966  -0.934  24.718  0.00  0.00    +0.000 C 
ATOM     10  C   UNL     1       7.775   0.019  23.863  0.00  0.00    +0.000 C 
ATOM     11  N   UNL     1       9.130  -0.179  23.901  0.00  0.00    +0.000 NA
ATOM     12  C   UNL     1       9.648  -1.444  23.831  0.00  0.00    +0.000 C 
ATOM     13  C   UNL     1       8.879  -2.527  24.551  0.00  0.00    +0.000 C 
BRANCH  11  14
ATOM     14  C   UNL     1       9.830   0.699  24.761  0.00  0.00    +0.000 C 
ATOM     15  O   UNL     1      11.216   0.640  24.507  0.00  0.00    +0.000 OA
ATOM     16  C   UNL     1       9.393   2.143  24.515  0.00  0.00    +0.000 C 
ENDBRANCH  11  14
ENDBRANCH   6   8
BRANCH   1  18
ATOM     17  O   UNL     1       5.202  -3.300  26.487  0.00  0.00    +0.000 OA
ATOM     18  C   UNL     1       6.354  -4.010  26.115  0.00  0.00    +0.000 C 
BRANCH  18  19
ATOM     19  S   UNL     1       6.607  -5.377  27.220  0.00  0.00    +0.000 S 
ATOM     20  O   UNL     1       8.025  -5.571  27.356  0.00  0.00    +0.000 OA
ATOM     21  O   UNL     1       5.867  -6.497  26.706  0.00  0.00    +0.000 OA
ATOM     22  N   UNL     1       5.992  -4.985  28.701  0.00  0.00    +0.000 NA
ENDBRANCH  18  19
ENDBRANCH   1  18
BRANCH   5  23
ATOM     23  C   UNL     1       5.890  -2.869  21.542  0.00  0.00    +0.000 C 
ATOM     24  N   UNL     1       6.287  -1.845  21.182  0.00  0.00    +0.000 NA
ENDBRANCH   5  23
TORSDOF 5
ENDMDL
MODEL 2
REMARK VINA RESULT:      -6.0      4.152      6.616
REMARK  Name = 
REMARK  5 active torsions:
REMARK  status: ('A' for Active; 'I' for Inactive)
REMARK    1  A    between atoms: C_2  and  S_3
REMARK    2  A    between atoms: C_2  and  C_7
REMARK    3  A    between atoms: C_11  and  C_22
REMARK    4  A    between atoms: C_12  and  N_13
REMARK    5  A    between atoms: N_16  and  C_19
REMARK                            x       y       z     vdW  Elec       q    Type
REMARK                         _______ _______ _______ _____ _____    ______ ____
ROOT
ATOM      1  C   UNL     1       7.346   0.332  21.410  0.00  0.00    +0.000 C 
ATOM      2  C   UNL     1       8.709   0.948  21.184  0.00  0.00    +0.000 C 
ATOM      3  C   UNL     1       8.871   2.102  22.171  0.00  0.00    +0.000 C 
ATOM      4  C   UNL     1       8.585   1.914  23.529  0.00  0.00    +0.000 C 
ATOM      5  C   UNL     1       7.747   0.784  23.882  0.00  0.00    +0.000 C 
ATOM      6  C   UNL     1       7.298  -0.119  22.928  0.00  0.00    +0.000 C 
ATOM      7  F   UNL     1       8.213   3.009  24.159  0.00  0.00    +0.000 F 
ENDROOT
BRANCH   6   8
ATOM      8  N   UNL     1       7.680  -1.510  22.944  0.00  0.00    +0.000 N 
ATOM      9  C   UNL     1       6.733  -2.386  23.623  0.00  0.00    +0.000 C 
ATOM     10  C   UNL     1       7.379  -2.860  24.908  0.00  0.00    +0.000 C 
ATOM     11  N   UNL     1       8.681  -3.266  24.785  0.00  0.00    +0.000 NA
ATOM     12  C   UNL     1       9.569  -2.533  24.044  0.00  0.00    +0.000 C 
ATOM     13  C   UNL     1       9.031  -1.903  22.780  0.00  0.00    +0.000 C 
BRANCH  11  14
ATOM     14  C   UNL     1       8.856  -4.666  24.700  0.00  0.00    +0.000 C 
ATOM     15  O   UNL     1      10.200  -5.014  24.954  0.00  0.00    +0.000 OA
ATOM     16  C   UNL     1       8.007  -5.373  25.757  0.00  0.00    +0.000 C 
ENDBRANCH  11  14
ENDBRANCH   6   8
BRANCH   1  18
ATOM     17  O   UNL     1       5.953  -1.546  21.036  0.00  0.00    +0.000 OA
ATOM     18  C   UNL     1       6.999  -0.763  20.523  0.00  0.00    +0.000 C 
BRANCH  18  19
ATOM     19  S   UNL     1       6.611  -0.240  18.870  0.00  0.00    +0.000 S 
ATOM     20  O   UNL     1       5.951  -1.333  18.211  0.00  0.00    +0.000 OA
ATOM     21  O   UNL     1       7.830   0.217  18.261  0.00  0.00    +0.000 OA
ATOM     22  N   UNL     1       5.561   1.031  18.947  0.00  0.00    +0.000 NA
ENDBRANCH  18  19
ENDBRANCH   1  18
BRANCH   5  23
ATOM     23  C   UNL     1       6.916   1.242  24.812  0.00  0.00    +0.000 C 
ATOM     24  N   UNL     1       6.997   0.582  25.758  0.00  0.00    +0.000 NA
ENDBRANCH   5  23
TORSDOF 5
ENDMDL
MODEL 3
REMARK VINA RESULT:      -6.0      3.198      4.250
REMARK  Name = 
REMARK  5 active torsions:
REMARK  status: ('A' for Active; 'I' for Inactive)
REMARK    1  A    between atoms: C_2  and  S_3
REMARK    2  A    between atoms: C_2  and  C_7
REMARK    3  A    between atoms: C_11  and  C_22
REMARK    4  A    between atoms: C_12  and  N_13
REMARK    5  A    between atoms: N_16  and  C_19
REMARK                            x       y       z     vdW  Elec       q    Type
REMARK                         _______ _______ _______ _____ _____    ______ ____
ROOT
ATOM      1  C   UNL     1       5.441  -5.183  24.591  0.00  0.00    +0.000 C 
ATOM      2  C   UNL     1       5.022  -4.670  25.951  0.00  0.00    +0.000 C 
ATOM      3  C   UNL     1       6.149  -4.979  26.936  0.00  0.00    +0.000 C 
ATOM      4  C   UNL     1       7.472  -4.645  26.621  0.00  0.00    +0.000 C 
ATOM      5  C   UNL     1       7.786  -4.421  25.222  0.00  0.00    +0.000 C 
ATOM      6  C   UNL     1       6.809  -4.465  24.237  0.00  0.00    +0.000 C 
ATOM      7  F   UNL     1       8.374  -5.407  27.204  0.00  0.00    +0.000 F 
ENDROOT
BRANCH   6   8
ATOM      8  N   UNL     1       6.461  -3.311  23.446  0.00  0.00    +0.000 N 
ATOM      9  C   UNL     1       7.031  -3.309  22.103  0.00  0.00    +0.000 C 
ATOM     10  C   UNL     1       8.087  -2.224  22.051  0.00  0.00    +0.000 C 
ATOM     11  N   UNL     1       7.719  -1.031  22.613  0.00  0.00    +0.000 NA
ATOM     12  C   UNL     1       7.063  -1.003  23.814  0.00  0.00    +0.000 C 
ATOM     13  C   UNL     1       6.051  -2.099  24.053  0.00  0.00    +0.000 C 
BRANCH  11  14
ATOM     14  C   UNL     1       7.297  -0.049  21.687  0.00  0.00    +0.000 C 
ATOM     15  O   UNL     1       7.382   1.238  22.257  0.00  0.00    +0.000 OA
ATOM     16  C   UNL     1       8.206  -0.052  20.458  0.00  0.00    +0.000 C 
ENDBRANCH  11  14
ENDBRANCH   6   8
BRANCH   1  18
ATOM     17  O   UNL     1       4.789  -5.765  22.391  0.00  0.00    +0.000 OA
ATOM     18  C   UNL     1       4.467  -5.012  23.531  0.00  0.00    +0.000 C 
BRANCH  18  19
ATOM     19  S   UNL     1       2.800  -5.363  24.037  0.00  0.00    +0.000 S 
ATOM     20  O   UNL     1       2.253  -4.158  24.598  0.00  0.00    +0.000 OA
ATOM     21  O   UNL     1       2.842  -6.501  24.914  0.00  0.00    +0.000 OA
ATOM     22  N   UNL     1       1.913  -5.766  22.705  0.00  0.00    +0.000 NA
ENDBRANCH  18  19
ENDBRANCH   1  18
BRANCH   5  23
ATOM     23  C   UNL     1       8.959  -5.016  25.029  0.00  0.00    +0.000 C 
ATOM     24  N   UNL     1       9.705  -4.255  24.580  0.00  0.00    +0.000 NA
ENDBRANCH   5  23
TORSDOF 5
ENDMDL
MODEL 4
REMARK VINA RESULT:      -5.8      2.648      5.557
REMARK  Name = 
REMARK  5 active torsions:
REMARK  status: ('A' for Active; 'I' for Inactive)
REMARK    1  A    between atoms: C_2  and  S_3
REMARK    2  A    between atoms: C_2  and  C_7
REMARK    3  A    between atoms: C_11  and  C_22
REMARK    4  A    between atoms: C_12  and  N_13
REMARK    5  A    between atoms: N_16  and  C_19
REMARK                            x       y       z     vdW  Elec       q    Type
REMARK                         _______ _______ _______ _____ _____    ______ ____
ROOT
ATOM      1  C   UNL     1       8.506  -1.617  21.991  0.00  0.00    +0.000 C 
ATOM      2  C   UNL     1       7.637  -0.416  21.687  0.00  0.00    +0.000 C 
ATOM      3  C   UNL     1       6.637  -0.823  20.606  0.00  0.00    +0.000 C 
ATOM      4  C   UNL     1       5.894  -2.003  20.739  0.00  0.00    +0.000 C 
ATOM      5  C   UNL     1       6.398  -3.004  21.661  0.00  0.00    +0.000 C 
ATOM      6  C   UNL     1       7.530  -2.783  22.434  0.00  0.00    +0.000 C 
ATOM      7  F   UNL     1       5.524  -2.540  19.596  0.00  0.00    +0.000 F 
ENDROOT
BRANCH   6   8
ATOM      8  N   UNL     1       7.481  -2.736  23.875  0.00  0.00    +0.000 N 
ATOM      9  C   UNL     1       8.194  -3.823  24.536  0.00  0.00    +0.000 C 
ATOM     10  C   UNL     1       7.164  -4.733  25.173  0.00  0.00    +0.000 C 
ATOM     11  N   UNL     1       6.166  -4.088  25.855  0.00  0.00    +0.000 NA
ATOM     12  C   UNL     1       5.563  -2.982  25.319  0.00  0.00    +0.000 C 
ATOM     13  C   UNL     1       6.456  -2.033  24.554  0.00  0.00    +0.000 C 
BRANCH  11  14
ATOM     14  C   UNL     1       6.345  -4.042  27.257  0.00  0.00    +0.000 C 
ATOM     15  O   UNL     1       5.211  -3.484  27.882  0.00  0.00    +0.000 OA
ATOM     16  C   UNL     1       6.513  -5.454  27.818  0.00  0.00    +0.000 C 
ENDBRANCH  11  14
ENDBRANCH   6   8
BRANCH   1  18
ATOM     17  O   UNL     1      10.766  -1.987  22.590  0.00  0.00    +0.000 OA
ATOM     18  C   UNL     1       9.550  -1.400  22.974  0.00  0.00    +0.000 C 
BRANCH  18  19
ATOM     19  S   UNL     1       9.803   0.312  23.373  0.00  0.00    +0.000 S 
ATOM     20  O   UNL     1       8.637   0.772  24.077  0.00  0.00    +0.000 OA
ATOM     21  O   UNL     1      10.113   1.004  22.152  0.00  0.00    +0.000 OA
ATOM     22  N   UNL     1      11.102   0.437  24.384  0.00  0.00    +0.000 NA
ENDBRANCH  18  19
ENDBRANCH   1  18
BRANCH   5  23
ATOM     23  C   UNL     1       6.229  -4.167  21.040  0.00  0.00    +0.000 C 
ATOM     24  N   UNL     1       5.576  -4.860  21.695  0.00  0.00    +0.000 NA
ENDBRANCH   5  23
TORSDOF 5
ENDMDL
MODEL 5
REMARK VINA RESULT:      -5.6      4.235      6.648
REMARK  Name = 
REMARK  5 active torsions:
REMARK  status: ('A' for Active; 'I' for Inactive)
REMARK    1  A    between atoms: C_2  and  S_3
REMARK    2  A    between atoms: C_2  and  C_7
REMARK    3  A    between atoms: C_11  and  C_22
REMARK    4  A    between atoms: C_12  and  N_13
REMARK    5  A    between atoms: N_16  and  C_19
REMARK                            x       y       z     vdW  Elec       q    Type
REMARK                         _______ _______ _______ _____ _____    ______ ____
ROOT
ATOM      1  C   UNL     1       7.933   0.640  21.625  0.00  0.00    +0.000 C 
ATOM      2  C   UNL     1       8.549  -0.717  21.367  0.00  0.00    +0.000 C 
ATOM      3  C   UNL     1       9.950  -0.719  21.975  0.00  0.00    +0.000 C 
ATOM      4  C   UNL     1      10.149  -0.280  23.290  0.00  0.00    +0.000 C 
ATOM      5  C   UNL     1       9.116   0.554  23.876  0.00  0.00    +0.000 C 
ATOM      6  C   UNL     1       7.945   0.853  23.195  0.00  0.00    +0.000 C 
ATOM      7  F   UNL     1      11.352   0.203  23.521  0.00  0.00    +0.000 F 
ENDROOT
BRANCH   6   8
ATOM      8  N   UNL     1       6.650   0.426  23.665  0.00  0.00    +0.000 N 
ATOM      9  C   UNL     1       5.890   1.463  24.355  0.00  0.00    +0.000 C 
ATOM     10  C   UNL     1       5.830   1.094  25.822  0.00  0.00    +0.000 C 
ATOM     11  N   UNL     1       5.536  -0.220  26.077  0.00  0.00    +0.000 NA
ATOM     12  C   UNL     1       6.136  -1.217  25.357  0.00  0.00    +0.000 C 
ATOM     13  C   UNL     1       6.363  -0.942  23.888  0.00  0.00    +0.000 C 
BRANCH  11  14
ATOM     14  C   UNL     1       4.185  -0.467  26.414  0.00  0.00    +0.000 C 
ATOM     15  O   UNL     1       3.802  -1.762  26.007  0.00  0.00    +0.000 OA
ATOM     16  C   UNL     1       3.995  -0.403  27.930  0.00  0.00    +0.000 C 
ENDBRANCH  11  14
ENDBRANCH   6   8
BRANCH   1  18
ATOM     17  O   UNL     1       6.249   2.196  21.033  0.00  0.00    +0.000 OA
ATOM     18  C   UNL     1       6.605   0.839  21.075  0.00  0.00    +0.000 C 
BRANCH  18  19
ATOM     19  S   UNL     1       6.384   0.103  19.473  0.00  0.00    +0.000 S 
ATOM     20  O   UNL     1       5.900  -1.235  19.671  0.00  0.00    +0.000 OA
ATOM     21  O   UNL     1       7.628   0.223  18.763  0.00  0.00    +0.000 OA
ATOM     22  N   UNL     1       5.234   0.956  18.651  0.00  0.00    +0.000 NA
ENDBRANCH  18  19
ENDBRANCH   1  18
BRANCH   5  23
ATOM     23  C   UNL     1       9.769   1.506  24.535  0.00  0.00    +0.000 C 
ATOM     24  N   UNL     1       9.318   2.536  24.267  0.00  0.00    +0.000 NA
ENDBRANCH   5  23
TORSDOF 5
ENDMDL
MODEL 6
REMARK VINA RESULT:      -5.6      3.223      4.347
REMARK  Name = 
REMARK  5 active torsions:
REMARK  status: ('A' for Active; 'I' for Inactive)
REMARK    1  A    between atoms: C_2  and  S_3
REMARK    2  A    between atoms: C_2  and  C_7
REMARK    3  A    between atoms: C_11  and  C_22
REMARK    4  A    between atoms: C_12  and  N_13
REMARK    5  A    between atoms: N_16  and  C_19
REMARK                            x       y       z     vdW  Elec       q    Type
REMARK                         _______ _______ _______ _____ _____    ______ ____
ROOT
ATOM      1  C   UNL     1       7.249  -5.096  23.795  0.00  0.00    +0.000 C 
ATOM      2  C   UNL     1       5.888  -5.037  24.453  0.00  0.00    +0.000 C 
ATOM      3  C   UNL     1       6.052  -5.463  25.910  0.00  0.00    +0.000 C 
ATOM      4  C   UNL     1       7.056  -4.893  26.703  0.00  0.00    +0.000 C 
ATOM      5  C   UNL     1       8.162  -4.252  26.016  0.00  0.00    +0.000 C 
ATOM      6  C   UNL     1       8.199  -4.143  24.633  0.00  0.00    +0.000 C 
ATOM      7  F   UNL     1       7.476  -5.668  27.681  0.00  0.00    +0.000 F 
ENDROOT
BRANCH   6   8
ATOM      8  N   UNL     1       8.178  -2.868  23.960  0.00  0.00    +0.000 N 
ATOM      9  C   UNL     1       9.454  -2.478  23.372  0.00  0.00    +0.000 C 
ATOM     10  C   UNL     1      10.001  -1.318  24.178  0.00  0.00    +0.000 C 
ATOM     11  N   UNL     1       9.088  -0.342  24.480  0.00  0.00    +0.000 NA
ATOM     12  C   UNL     1       7.833  -0.676  24.911  0.00  0.00    +0.000 C 
ATOM     13  C   UNL     1       7.202  -1.890  24.268  0.00  0.00    +0.000 C 
BRANCH  11  14
ATOM     14  C   UNL     1       9.141   0.793  23.638  0.00  0.00    +0.000 C 
ATOM     15  O   UNL     1       8.051   1.651  23.897  0.00  0.00    +0.000 OA
ATOM     16  C   UNL     1      10.413   1.596  23.908  0.00  0.00    +0.000 C 
ENDBRANCH  11  14
ENDBRANCH   6   8
BRANCH   1  18
ATOM     17  O   UNL     1       8.060  -5.660  21.644  0.00  0.00    +0.000 OA
ATOM     18  C   UNL     1       7.277  -4.761  22.384  0.00  0.00    +0.000 C 
BRANCH  18  19
ATOM     19  S   UNL     1       5.662  -4.622  21.657  0.00  0.00    +0.000 S 
ATOM     20  O   UNL     1       5.806  -4.808  20.239  0.00  0.00    +0.000 OA
ATOM     21  O   UNL     1       5.104  -3.364  22.072  0.00  0.00    +0.000 OA
ATOM     22  N   UNL     1       4.708  -5.833  22.246  0.00  0.00    +0.000 NA
ENDBRANCH  18  19
ENDBRANCH   1  18
BRANCH   5  23
ATOM     23  C   UNL     1       9.249  -4.619  26.687  0.00  0.00    +0.000 C 
ATOM     24  N   UNL     1      10.034  -5.033  25.948  0.00  0.00    +0.000 NA
ENDBRANCH   5  23
TORSDOF 5
ENDMDL
MODEL 7
REMARK VINA RESULT:      -5.6      3.775      6.668
REMARK  Name = 
REMARK  5 active torsions:
REMARK  status: ('A' for Active; 'I' for Inactive)
REMARK    1  A    between atoms: C_2  and  S_3
REMARK    2  A    between atoms: C_2  and  C_7
REMARK    3  A    between atoms: C_11  and  C_22
REMARK    4  A    between atoms: C_12  and  N_13
REMARK    5  A    between atoms: N_16  and  C_19
REMARK                            x       y       z     vdW  Elec       q    Type
REMARK                         _______ _______ _______ _____ _____    ______ ____
ROOT
ATOM      1  C   UNL     1       7.977   0.836  22.484  0.00  0.00    +0.000 C 
ATOM      2  C   UNL     1       9.248   0.743  21.670  0.00  0.00    +0.000 C 
ATOM      3  C   UNL     1      10.430   0.877  22.628  0.00  0.00    +0.000 C 
ATOM      4  C   UNL     1      10.483   0.104  23.796  0.00  0.00    +0.000 C 
ATOM      5  C   UNL     1       9.236  -0.466  24.272  0.00  0.00    +0.000 C 
ATOM      6  C   UNL     1       8.048  -0.316  23.570  0.00  0.00    +0.000 C 
ATOM      7  F   UNL     1      11.170   0.654  24.775  0.00  0.00    +0.000 F 
ENDROOT
BRANCH   6   8
ATOM      8  N   UNL     1       7.339  -1.439  23.008  0.00  0.00    +0.000 N 
ATOM      9  C   UNL     1       6.018  -1.666  23.585  0.00  0.00    +0.000 C 
ATOM     10  C   UNL     1       6.082  -2.939  24.402  0.00  0.00    +0.000 C 
ATOM     11  N   UNL     1       6.725  -3.985  23.793  0.00  0.00    +0.000 NA
ATOM     12  C   UNL     1       7.904  -3.782  23.129  0.00  0.00    +0.000 C 
ATOM     13  C   UNL     1       8.026  -2.490  22.354  0.00  0.00    +0.000 C 
BRANCH  11  14
ATOM     14  C   UNL     1       5.866  -4.936  23.195  0.00  0.00    +0.000 C 
ATOM     15  O   UNL     1       4.973  -4.304  22.304  0.00  0.00    +0.000 OA
ATOM     16  C   UNL     1       6.675  -5.941  22.375  0.00  0.00    +0.000 C 
ENDBRANCH  11  14
ENDBRANCH   6   8
BRANCH   1  18
ATOM     17  O   UNL     1       6.030   1.979  21.771  0.00  0.00    +0.000 OA
ATOM     18  C   UNL     1       6.741   0.770  21.726  0.00  0.00    +0.000 C 
BRANCH  18  19
ATOM     19  S   UNL     1       6.973   0.265  20.039  0.00  0.00    +0.000 S 
ATOM     20  O   UNL     1       8.331  -0.183  19.900  0.00  0.00    +0.000 OA
ATOM     21  O   UNL     1       6.585   1.364  19.198  0.00  0.00    +0.000 OA
ATOM     22  N   UNL     1       5.971  -1.009  19.723  0.00  0.00    +0.000 NA
ENDBRANCH  18  19
ENDBRANCH   1  18
BRANCH   5  23
ATOM     23  C   UNL     1       9.259  -0.303  25.591  0.00  0.00    +0.000 C 
ATOM     24  N   UNL     1       8.848  -1.254  26.102  0.00  0.00    +0.000 NA
ENDBRANCH   5  23
TORSDOF 5
ENDMDL
MODEL 8
REMARK VINA RESULT:      -5.5      3.261      4.676
REMARK  Name = 
REMARK  5 active torsions:
REMARK  status: ('A' for Active; 'I' for Inactive)
REMARK    1  A    between atoms: C_2  and  S_3
REMARK    2  A    between atoms: C_2  and  C_7
REMARK    3  A    between atoms: C_11  and  C_22
REMARK    4  A    between atoms: C_12  and  N_13
REMARK    5  A    between atoms: N_16  and  C_19
REMARK                            x       y       z     vdW  Elec       q    Type
REMARK                         _______ _______ _______ _____ _____    ______ ____
ROOT
ATOM      1  C   UNL     1       7.925  -3.010  24.651  0.00  0.00    +0.000 C 
ATOM      2  C   UNL     1       6.887  -2.529  25.640  0.00  0.00    +0.000 C 
ATOM      3  C   UNL     1       7.583  -1.609  26.641  0.00  0.00    +0.000 C 
ATOM      4  C   UNL     1       8.415  -0.576  26.190  0.00  0.00    +0.000 C 
ATOM      5  C   UNL     1       8.926  -0.678  24.835  0.00  0.00    +0.000 C 
ATOM      6  C   UNL     1       8.558  -1.716  23.991  0.00  0.00    +0.000 C 
ATOM      7  F   UNL     1       9.359  -0.233  27.040  0.00  0.00    +0.000 F 
ENDROOT
BRANCH   6   8
ATOM      8  N   UNL     1       7.825  -1.492  22.769  0.00  0.00    +0.000 N 
ATOM      9  C   UNL     1       8.583  -1.768  21.554  0.00  0.00    +0.000 C 
ATOM     10  C   UNL     1       8.863  -0.446  20.872  0.00  0.00    +0.000 C 
ATOM     11  N   UNL     1       7.792   0.406  20.802  0.00  0.00    +0.000 NA
ATOM     12  C   UNL     1       6.980   0.590  21.888  0.00  0.00    +0.000 C 
ATOM     13  C   UNL     1       6.701  -0.632  22.733  0.00  0.00    +0.000 C 
BRANCH  11  14
ATOM     14  C   UNL     1       7.122   0.410  19.557  0.00  0.00    +0.000 C 
ATOM     15  O   UNL     1       7.974  -0.063  18.536  0.00  0.00    +0.000 OA
ATOM     16  C   UNL     1       5.916  -0.529  19.600  0.00  0.00    +0.000 C 
ENDBRANCH  11  14
ENDBRANCH   6   8
BRANCH   1  18
ATOM     17  O   UNL     1       8.423  -4.878  23.284  0.00  0.00    +0.000 OA
ATOM     18  C   UNL     1       7.446  -3.936  23.642  0.00  0.00    +0.000 C 
BRANCH  18  19
ATOM     19  S   UNL     1       5.943  -4.766  24.098  0.00  0.00    +0.000 S 
ATOM     20  O   UNL     1       5.712  -5.810  23.138  0.00  0.00    +0.000 OA
ATOM     21  O   UNL     1       4.911  -3.770  24.204  0.00  0.00    +0.000 OA
ATOM     22  N   UNL     1       6.148  -5.459  25.582  0.00  0.00    +0.000 NA
ENDBRANCH  18  19
ENDBRANCH   1  18
BRANCH   5  23
ATOM     23  C   UNL     1      10.197  -0.297  24.913  0.00  0.00    +0.000 C 
ATOM     24  N   UNL     1      10.439   0.414  24.035  0.00  0.00    +0.000 NA
ENDBRANCH   5  23
TORSDOF 5
ENDMDL
MODEL 9
REMARK VINA RESULT:      -5.5      3.184      4.413
REMARK  Name = 
REMARK  5 active torsions:
REMARK  status: ('A' for Active; 'I' for Inactive)
REMARK    1  A    between atoms: C_2  and  S_3
REMARK    2  A    between atoms: C_2  and  C_7
REMARK    3  A    between atoms: C_11  and  C_22
REMARK    4  A    between atoms: C_12  and  N_13
REMARK    5  A    between atoms: N_16  and  C_19
REMARK                            x       y       z     vdW  Elec       q    Type
REMARK                         _______ _______ _______ _____ _____    ______ ____
ROOT
ATOM      1  C   UNL     1       6.698  -4.254  24.052  0.00  0.00    +0.000 C 
ATOM      2  C   UNL     1       5.239  -3.866  24.137  0.00  0.00    +0.000 C 
ATOM      3  C   UNL     1       4.931  -3.509  25.590  0.00  0.00    +0.000 C 
ATOM      4  C   UNL     1       5.763  -2.626  26.290  0.00  0.00    +0.000 C 
ATOM      5  C   UNL     1       7.102  -2.421  25.770  0.00  0.00    +0.000 C 
ATOM      6  C   UNL     1       7.528  -3.017  24.592  0.00  0.00    +0.000 C 
ATOM      7  F   UNL     1       5.772  -2.812  27.593  0.00  0.00    +0.000 F 
ENDROOT
BRANCH   6   8
ATOM      8  N   UNL     1       7.898  -2.247  23.429  0.00  0.00    +0.000 N 
ATOM      9  C   UNL     1       9.329  -2.232  23.149  0.00  0.00    +0.000 C 
ATOM     10  C   UNL     1       9.843  -0.838  23.439  0.00  0.00    +0.000 C 
ATOM     11  N   UNL     1       9.065   0.179  22.953  0.00  0.00    +0.000 NA
ATOM     12  C   UNL     1       7.704   0.134  23.084  0.00  0.00    +0.000 C 
ATOM     13  C   UNL     1       7.058  -1.224  22.928  0.00  0.00    +0.000 C 
BRANCH  11  14
ATOM     14  C   UNL     1       9.523   0.742  21.739  0.00  0.00    +0.000 C 
ATOM     15  O   UNL     1       8.440   0.984  20.866  0.00  0.00    +0.000 OA
ATOM     16  C   UNL     1      10.195   2.090  21.998  0.00  0.00    +0.000 C 
ENDBRANCH  11  14
ENDBRANCH   6   8
BRANCH   1  18
ATOM     17  O   UNL     1       7.995  -5.795  22.807  0.00  0.00    +0.000 OA
ATOM     18  C   UNL     1       7.161  -4.668  22.741  0.00  0.00    +0.000 C 
BRANCH  18  19
ATOM     19  S   UNL     1       5.843  -4.956  21.584  0.00  0.00    +0.000 S 
ATOM     20  O   UNL     1       5.551  -3.707  20.936  0.00  0.00    +0.000 OA
ATOM     21  O   UNL     1       4.756  -5.560  22.304  0.00  0.00    +0.000 OA
ATOM     22  N   UNL     1       6.365  -6.026  20.440  0.00  0.00    +0.000 NA
ENDBRANCH  18  19
ENDBRANCH   1  18
BRANCH   5  23
ATOM     23  C   UNL     1       7.893  -2.410  26.839  0.00  0.00    +0.000 C 
ATOM     24  N   UNL     1       8.600  -1.498  26.783  0.00  0.00    +0.000 NA
ENDBRANCH   5  23
TORSDOF 5
ENDMDL
