MODEL 1
REMARK VINA RESULT:      -5.1      0.000      0.000
REMARK  Name = 
REMARK  4 active torsions:
REMARK  status: ('A' for Active; 'I' for Inactive)
REMARK    1  A    between atoms: C_2  and  N_3
REMARK    2  A    between atoms: N_3  and  C_4
REMARK    3  A    between atoms: C_9  and  C_10
REMARK    4  A    between atoms: C_10  and  S_11
REMARK                            x       y       z     vdW  Elec       q    Type
REMARK                         _______ _______ _______ _____ _____    ______ ____
ROOT
ATOM      1  C   UNL     1       7.519  -1.150  22.352  0.00  0.00    +0.000 C 
ATOM      2  C   UNL     1       7.500  -0.669  23.830  0.00  0.00    +0.000 C 
ATOM      3  C   UNL     1       8.681  -1.426  24.487  0.00  0.00    +0.000 C 
ATOM      4  C   UNL     1       8.937  -2.764  24.201  0.00  0.00    +0.000 C 
ATOM      5  C   UNL     1       8.077  -3.428  23.260  0.00  0.00    +0.000 C 
ATOM      6  C   UNL     1       7.266  -2.656  22.397  0.00  0.00    +0.000 C 
ATOM      7  F   UNL     1      10.215  -3.046  23.929  0.00  0.00    +0.000 F 
ENDROOT
BRANCH   6   8
ATOM      8  C   UNL     1       5.832  -3.049  22.079  0.00  0.00    +0.000 C 
ATOM      9  O   UNL     1       5.593  -2.685  20.729  0.00  0.00    +0.000 OA
BRANCH   8  10
ATOM     10  S   UNL     1       5.719  -4.861  22.207  0.00  0.00    +0.000 S 
ATOM     11  O   UNL     1       4.362  -5.217  22.581  0.00  0.00    +0.000 OA
ATOM     12  N   UNL     1       6.067  -5.521  20.746  0.00  0.00    +0.000 NA
ENDBRANCH   8  10
ENDBRANCH   6   8
BRANCH   1  13
ATOM     13  N   UNL     1       8.860  -0.942  21.842  0.00  0.00    +0.000 NA
BRANCH  13  15
ATOM     14  C   UNL     1       7.855   0.084  19.894  0.00  0.00    +0.000 C 
ATOM     15  C   UNL     1       8.867   0.233  21.029  0.00  0.00    +0.000 C 
ENDBRANCH  13  15
ENDBRANCH   1  13
TORSDOF 4
ENDMDL
MODEL 2
REMARK VINA RESULT:      -5.1      3.834      4.764
REMARK  Name = 
REMARK  4 active torsions:
REMARK  status: ('A' for Active; 'I' for Inactive)
REMARK    1  A    between atoms: C_2  and  N_3
REMARK    2  A    between atoms: N_3  and  C_4
REMARK    3  A    between atoms: C_9  and  C_10
REMARK    4  A    between atoms: C_10  and  S_11
REMARK                            x       y       z     vdW  Elec       q    Type
REMARK                         _______ _______ _______ _____ _____    ______ ____
ROOT
ATOM      1  C   UNL     1       8.845   0.013  23.519  0.00  0.00    +0.000 C 
ATOM      2  C   UNL     1      10.281  -0.127  24.097  0.00  0.00    +0.000 C 
ATOM      3  C   UNL     1      10.775   1.335  24.236  0.00  0.00    +0.000 C 
ATOM      4  C   UNL     1      10.517   2.286  23.253  0.00  0.00    +0.000 C 
ATOM      5  C   UNL     1       9.761   1.878  22.101  0.00  0.00    +0.000 C 
ATOM      6  C   UNL     1       9.004   0.685  22.157  0.00  0.00    +0.000 C 
ATOM      7  F   UNL     1      10.057   3.456  23.710  0.00  0.00    +0.000 F 
ENDROOT
BRANCH   6   8
ATOM      8  C   UNL     1       8.942  -0.280  20.983  0.00  0.00    +0.000 C 
ATOM      9  O   UNL     1       8.957  -1.590  21.524  0.00  0.00    +0.000 OA
BRANCH   8  10
ATOM     10  S   UNL     1       7.344  -0.028  20.150  0.00  0.00    +0.000 S 
ATOM     11  O   UNL     1       6.757   1.209  20.633  0.00  0.00    +0.000 OA
ATOM     12  N   UNL     1       7.600   0.091  18.533  0.00  0.00    +0.000 NA
ENDBRANCH   8  10
ENDBRANCH   6   8
BRANCH   1  13
ATOM     13  N   UNL     1       8.115   0.925  24.378  0.00  0.00    +0.000 NA
BRANCH  13  15
ATOM     14  C   UNL     1       6.306  -0.674  24.214  0.00  0.00    +0.000 C 
ATOM     15  C   UNL     1       6.718   0.793  24.110  0.00  0.00    +0.000 C 
ENDBRANCH  13  15
ENDBRANCH   1  13
TORSDOF 4
ENDMDL
MODEL 3
REMARK VINA RESULT:      -5.1      3.251      4.399
REMARK  Name = 
REMARK  4 active torsions:
REMARK  status: ('A' for Active; 'I' for Inactive)
REMARK    1  A    between atoms: C_2  and  N_3
REMARK    2  A    between atoms: N_3  and  C_4
REMARK    3  A    between atoms: C_9  and  C_10
REMARK    4  A    between atoms: C_10  and  S_11
REMARK                            x       y       z     vdW  Elec       q    Type
REMARK                         _______ _______ _______ _____ _____    ______ ____
ROOT
ATOM      1  C   UNL     1       7.401  -1.528  22.712  0.00  0.00    +0.000 C 
ATOM      2  C   UNL     1       7.054  -0.060  23.086  0.00  0.00    +0.000 C 
ATOM      3  C   UNL     1       7.259   0.724  21.766  0.00  0.00    +0.000 C 
ATOM      4  C   UNL     1       8.339   0.464  20.927  0.00  0.00    +0.000 C 
ATOM      5  C   UNL     1       9.259  -0.570  21.313  0.00  0.00    +0.000 C 
ATOM      6  C   UNL     1       8.869  -1.516  22.288  0.00  0.00    +0.000 C 
ATOM      7  F   UNL     1       8.028   0.338  19.633  0.00  0.00    +0.000 F 
ENDROOT
BRANCH   6   8
ATOM      8  C   UNL     1       9.826  -1.995  23.369  0.00  0.00    +0.000 C 
ATOM      9  O   UNL     1      10.131  -0.872  24.178  0.00  0.00    +0.000 OA
BRANCH   8  10
ATOM     10  S   UNL     1       8.935  -3.208  24.392  0.00  0.00    +0.000 S 
ATOM     11  O   UNL     1       9.774  -4.383  24.556  0.00  0.00    +0.000 OA
ATOM     12  N   UNL     1       8.639  -2.547  25.864  0.00  0.00    +0.000 NA
ENDBRANCH   8  10
ENDBRANCH   6   8
BRANCH   1  13
ATOM     13  N   UNL     1       6.609  -1.882  21.551  0.00  0.00    +0.000 NA
BRANCH  13  15
ATOM     14  C   UNL     1       5.287  -3.354  22.944  0.00  0.00    +0.000 C 
ATOM     15  C   UNL     1       6.157  -3.230  21.695  0.00  0.00    +0.000 C 
ENDBRANCH  13  15
ENDBRANCH   1  13
TORSDOF 4
ENDMDL
MODEL 4
REMARK VINA RESULT:      -5.1      2.512      3.118
REMARK  Name = 
REMARK  4 active torsions:
REMARK  status: ('A' for Active; 'I' for Inactive)
REMARK    1  A    between atoms: C_2  and  N_3
REMARK    2  A    between atoms: N_3  and  C_4
REMARK    3  A    between atoms: C_9  and  C_10
REMARK    4  A    between atoms: C_10  and  S_11
REMARK                            x       y       z     vdW  Elec       q    Type
REMARK                         _______ _______ _______ _____ _____    ______ ____
ROOT
ATOM      1  C   UNL     1       7.171  -0.055  21.438  0.00  0.00    +0.000 C 
ATOM      2  C   UNL     1       7.097   0.813  22.725  0.00  0.00    +0.000 C 
ATOM      3  C   UNL     1       8.441   1.583  22.739  0.00  0.00    +0.000 C 
ATOM      4  C   UNL     1       9.638   0.961  22.395  0.00  0.00    +0.000 C 
ATOM      5  C   UNL     1       9.593  -0.422  22.010  0.00  0.00    +0.000 C 
ATOM      6  C   UNL     1       8.357  -0.997  21.636  0.00  0.00    +0.000 C 
ATOM      7  F   UNL     1      10.403   1.648  21.540  0.00  0.00    +0.000 F 
ENDROOT
BRANCH   6   8
ATOM      8  C   UNL     1       7.962  -2.401  22.068  0.00  0.00    +0.000 C 
ATOM      9  O   UNL     1       8.311  -2.525  23.437  0.00  0.00    +0.000 OA
BRANCH   8  10
ATOM     10  S   UNL     1       6.153  -2.530  21.929  0.00  0.00    +0.000 S 
ATOM     11  O   UNL     1       5.831  -3.655  21.069  0.00  0.00    +0.000 OA
ATOM     12  N   UNL     1       5.522  -2.793  23.421  0.00  0.00    +0.000 NA
ENDBRANCH   8  10
ENDBRANCH   6   8
BRANCH   1  13
ATOM     13  N   UNL     1       7.489   0.828  20.333  0.00  0.00    +0.000 NA
BRANCH  13  15
ATOM     14  C   UNL     1       5.972  -0.266  18.798  0.00  0.00    +0.000 C 
ATOM     15  C   UNL     1       7.424   0.084  19.115  0.00  0.00    +0.000 C 
ENDBRANCH  13  15
ENDBRANCH   1  13
TORSDOF 4
ENDMDL
MODEL 5
REMARK VINA RESULT:      -5.1      3.852      4.687
REMARK  Name = 
REMARK  4 active torsions:
REMARK  status: ('A' for Active; 'I' for Inactive)
REMARK    1  A    between atoms: C_2  and  N_3
REMARK    2  A    between atoms: N_3  and  C_4
REMARK    3  A    between atoms: C_9  and  C_10
REMARK    4  A    between atoms: C_10  and  S_11
REMARK                            x       y       z     vdW  Elec       q    Type
REMARK                         _______ _______ _______ _____ _____    ______ ____
ROOT
ATOM      1  C   UNL     1       7.873   0.925  22.968  0.00  0.00    +0.000 C 
ATOM      2  C   UNL     1       8.682   0.337  24.158  0.00  0.00    +0.000 C 
ATOM      3  C   UNL     1       9.753   1.417  24.455  0.00  0.00    +0.000 C 
ATOM      4  C   UNL     1      10.420   2.080  23.429  0.00  0.00    +0.000 C 
ATOM      5  C   UNL     1      10.076   1.745  22.074  0.00  0.00    +0.000 C 
ATOM      6  C   UNL     1       8.865   1.064  21.815  0.00  0.00    +0.000 C 
ATOM      7  F   UNL     1      10.485   3.408  23.568  0.00  0.00    +0.000 F 
ENDROOT
BRANCH   6   8
ATOM      8  C   UNL     1       8.779  -0.056  20.789  0.00  0.00    +0.000 C 
ATOM      9  O   UNL     1       8.586  -1.262  21.510  0.00  0.00    +0.000 OA
BRANCH   8  10
ATOM     10  S   UNL     1       7.298   0.242  19.774  0.00  0.00    +0.000 S 
ATOM     11  O   UNL     1       7.676   0.183  18.373  0.00  0.00    +0.000 OA
ATOM     12  N   UNL     1       6.194  -0.931  20.086  0.00  0.00    +0.000 NA
ENDBRANCH   8  10
ENDBRANCH   6   8
BRANCH   1  13
ATOM     13  N   UNL     1       7.445   2.257  23.346  0.00  0.00    +0.000 NA
BRANCH  13  15
ATOM     14  C   UNL     1       7.106   4.353  22.185  0.00  0.00    +0.000 C 
ATOM     15  C   UNL     1       6.783   2.862  22.233  0.00  0.00    +0.000 C 
ENDBRANCH  13  15
ENDBRANCH   1  13
TORSDOF 4
ENDMDL
MODEL 6
REMARK VINA RESULT:      -5.0      2.315      3.465
REMARK  Name = 
REMARK  4 active torsions:
REMARK  status: ('A' for Active; 'I' for Inactive)
REMARK    1  A    between atoms: C_2  and  N_3
REMARK    2  A    between atoms: N_3  and  C_4
REMARK    3  A    between atoms: C_9  and  C_10
REMARK    4  A    between atoms: C_10  and  S_11
REMARK                            x       y       z     vdW  Elec       q    Type
REMARK                         _______ _______ _______ _____ _____    ______ ____
ROOT
ATOM      1  C   UNL     1       9.084  -0.860  21.516  0.00  0.00    +0.000 C 
ATOM      2  C   UNL     1       8.351  -0.119  20.363  0.00  0.00    +0.000 C 
ATOM      3  C   UNL     1       7.659   1.078  21.065  0.00  0.00    +0.000 C 
ATOM      4  C   UNL     1       7.033   0.933  22.299  0.00  0.00    +0.000 C 
ATOM      5  C   UNL     1       7.057  -0.363  22.920  0.00  0.00    +0.000 C 
ATOM      6  C   UNL     1       7.992  -1.327  22.476  0.00  0.00    +0.000 C 
ATOM      7  F   UNL     1       7.338   1.875  23.198  0.00  0.00    +0.000 F 
ENDROOT
BRANCH   6   8
ATOM      8  C   UNL     1       7.618  -2.793  22.319  0.00  0.00    +0.000 C 
ATOM      9  O   UNL     1       7.816  -3.407  23.582  0.00  0.00    +0.000 OA
BRANCH   8  10
ATOM     10  S   UNL     1       5.844  -2.868  21.922  0.00  0.00    +0.000 S 
ATOM     11  O   UNL     1       5.666  -2.525  20.522  0.00  0.00    +0.000 OA
ATOM     12  N   UNL     1       5.307  -4.397  22.176  0.00  0.00    +0.000 NA
ENDBRANCH   8  10
ENDBRANCH   6   8
BRANCH   1  13
ATOM     13  N   UNL     1       9.899   0.115  22.214  0.00  0.00    +0.000 NA
BRANCH  13  15
ATOM     14  C   UNL     1      10.670   0.509  24.474  0.00  0.00    +0.000 C 
ATOM     15  C   UNL     1      10.493  -0.512  23.352  0.00  0.00    +0.000 C 
ENDBRANCH  13  15
ENDBRANCH   1  13
TORSDOF 4
ENDMDL
MODEL 7
REMARK VINA RESULT:      -5.0      3.066      3.897
REMARK  Name = 
REMARK  4 active torsions:
REMARK  status: ('A' for Active; 'I' for Inactive)
REMARK    1  A    between atoms: C_2  and  N_3
REMARK    2  A    between atoms: N_3  and  C_4
REMARK    3  A    between atoms: C_9  and  C_10
REMARK    4  A    between atoms: C_10  and  S_11
REMARK                            x       y       z     vdW  Elec       q    Type
REMARK                         _______ _______ _______ _____ _____    ______ ____
ROOT
ATOM      1  C   UNL     1       7.349   0.068  21.294  0.00  0.00    +0.000 C 
ATOM      2  C   UNL     1       6.917   1.431  21.904  0.00  0.00    +0.000 C 
ATOM      3  C   UNL     1       8.227   2.257  21.946  0.00  0.00    +0.000 C 
ATOM      4  C   UNL     1       9.436   1.683  22.329  0.00  0.00    +0.000 C 
ATOM      5  C   UNL     1       9.440   0.287  22.673  0.00  0.00    +0.000 C 
ATOM      6  C   UNL     1       8.358  -0.529  22.273  0.00  0.00    +0.000 C 
ATOM      7  F   UNL     1      10.468   1.958  21.526  0.00  0.00    +0.000 F 
ENDROOT
BRANCH   6   8
ATOM      8  C   UNL     1       7.771  -1.590  23.191  0.00  0.00    +0.000 C 
ATOM      9  O   UNL     1       7.601  -2.762  22.413  0.00  0.00    +0.000 OA
BRANCH   8  10
ATOM     10  S   UNL     1       9.002  -1.938  24.484  0.00  0.00    +0.000 S 
ATOM     11  O   UNL     1       8.310  -2.413  25.670  0.00  0.00    +0.000 OA
ATOM     12  N   UNL     1      10.020  -3.109  23.948  0.00  0.00    +0.000 NA
ENDBRANCH   8  10
ENDBRANCH   6   8
BRANCH   1  13
ATOM     13  N   UNL     1       8.048   0.346  20.054  0.00  0.00    +0.000 NA
BRANCH  13  15
ATOM     14  C   UNL     1       6.049  -0.769  19.267  0.00  0.00    +0.000 C 
ATOM     15  C   UNL     1       7.113   0.287  18.975  0.00  0.00    +0.000 C 
ENDBRANCH  13  15
ENDBRANCH   1  13
TORSDOF 4
ENDMDL
MODEL 8
REMARK VINA RESULT:      -4.9      3.964      4.834
REMARK  Name = 
REMARK  4 active torsions:
REMARK  status: ('A' for Active; 'I' for Inactive)
REMARK    1  A    between atoms: C_2  and  N_3
REMARK    2  A    between atoms: N_3  and  C_4
REMARK    3  A    between atoms: C_9  and  C_10
REMARK    4  A    between atoms: C_10  and  S_11
REMARK                            x       y       z     vdW  Elec       q    Type
REMARK                         _______ _______ _______ _____ _____    ______ ____
ROOT
ATOM      1  C   UNL     1       7.380  -4.300  22.857  0.00  0.00    +0.000 C 
ATOM      2  C   UNL     1       7.179  -5.437  21.816  0.00  0.00    +0.000 C 
ATOM      3  C   UNL     1       5.678  -5.799  21.938  0.00  0.00    +0.000 C 
ATOM      4  C   UNL     1       5.048  -5.880  23.177  0.00  0.00    +0.000 C 
ATOM      5  C   UNL     1       5.830  -5.602  24.350  0.00  0.00    +0.000 C 
ATOM      6  C   UNL     1       7.059  -4.916  24.218  0.00  0.00    +0.000 C 
ATOM      7  F   UNL     1       3.873  -5.248  23.252  0.00  0.00    +0.000 F 
ENDROOT
BRANCH   6   8
ATOM      8  C   UNL     1       8.289  -5.311  25.020  0.00  0.00    +0.000 C 
ATOM      9  O   UNL     1       9.401  -4.678  24.410  0.00  0.00    +0.000 OA
BRANCH   8  10
ATOM     10  S   UNL     1       8.095  -4.628  26.695  0.00  0.00    +0.000 S 
ATOM     11  O   UNL     1       7.262  -3.440  26.619  0.00  0.00    +0.000 OA
ATOM     12  N   UNL     1       7.356  -5.745  27.643  0.00  0.00    +0.000 NA
ENDBRANCH   8  10
ENDBRANCH   6   8
BRANCH   1  13
ATOM     13  N   UNL     1       6.385  -3.281  22.588  0.00  0.00    +0.000 NA
BRANCH  13  15
ATOM     14  C   UNL     1       8.410  -1.973  22.384  0.00  0.00    +0.000 C 
ATOM     15  C   UNL     1       6.999  -2.219  21.855  0.00  0.00    +0.000 C 
ENDBRANCH  13  15
ENDBRANCH   1  13
TORSDOF 4
ENDMDL
MODEL 9
REMARK VINA RESULT:      -4.9      3.310      3.971
REMARK  Name = 
REMARK  4 active torsions:
REMARK  status: ('A' for Active; 'I' for Inactive)
REMARK    1  A    between atoms: C_2  and  N_3
REMARK    2  A    between atoms: N_3  and  C_4
REMARK    3  A    between atoms: C_9  and  C_10
REMARK    4  A    between atoms: C_10  and  S_11
REMARK                            x       y       z     vdW  Elec       q    Type
REMARK                         _______ _______ _______ _____ _____    ______ ____
ROOT
ATOM      1  C   UNL     1       9.685  -1.725  23.883  0.00  0.00    +0.000 C 
ATOM      2  C   UNL     1      10.311  -1.632  22.463  0.00  0.00    +0.000 C 
ATOM      3  C   UNL     1       9.225  -0.921  21.618  0.00  0.00    +0.000 C 
ATOM      4  C   UNL     1       7.876  -1.234  21.756  0.00  0.00    +0.000 C 
ATOM      5  C   UNL     1       7.511  -2.233  22.723  0.00  0.00    +0.000 C 
ATOM      6  C   UNL     1       8.434  -2.589  23.733  0.00  0.00    +0.000 C 
ATOM      7  F   UNL     1       7.062  -0.178  21.862  0.00  0.00    +0.000 F 
ENDROOT
BRANCH   6   8
ATOM      8  C   UNL     1       8.627  -4.033  24.170  0.00  0.00    +0.000 C 
ATOM      9  O   UNL     1       9.976  -4.161  24.588  0.00  0.00    +0.000 OA
BRANCH   8  10
ATOM     10  S   UNL     1       7.555  -4.319  25.612  0.00  0.00    +0.000 S 
ATOM     11  O   UNL     1       6.640  -5.404  25.303  0.00  0.00    +0.000 OA
ATOM     12  N   UNL     1       8.488  -4.747  26.891  0.00  0.00    +0.000 NA
ENDBRANCH   8  10
ENDBRANCH   6   8
BRANCH   1  13
ATOM     13  N   UNL     1       9.258  -0.392  24.260  0.00  0.00    +0.000 NA
BRANCH  13  15
ATOM     14  C   UNL     1      10.529   1.666  24.174  0.00  0.00    +0.000 C 
ATOM     15  C   UNL     1      10.366   0.300  24.838  0.00  0.00    +0.000 C 
ENDBRANCH  13  15
ENDBRANCH   1  13
TORSDOF 4
ENDMDL
