MODEL 1
REMARK VINA RESULT:      -8.0      0.000      0.000
REMARK  Name = 
REMARK  4 active torsions:
REMARK  status: ('A' for Active; 'I' for Inactive)
REMARK    1  A    between atoms: C_5  and  N_8
REMARK    2  A    between atoms: C_9  and  C_11
REMARK    3  A    between atoms: C_11  and  C_12
REMARK    4  A    between atoms: C_18  and  C_22
REMARK                            x       y       z     vdW  Elec       q    Type
REMARK                         _______ _______ _______ _____ _____    ______ ____
ROOT
ATOM      1  C   UNL     1       8.477   0.051  22.655  0.00  0.00    +0.000 C 
ATOM      2  C   UNL     1       9.948  -0.203  22.325  0.00  0.00    +0.000 C 
ATOM      3  C   UNL     1       8.185  -0.551  24.034  0.00  0.00    +0.000 C 
ATOM      4  C   UNL     1       7.926   0.869  24.970  0.00  0.00    +0.000 C 
ATOM      5  C   UNL     1       8.672   1.828  24.275  0.00  0.00    +0.000 C 
ATOM      6  C   UNL     1       7.976   1.372  22.732  0.00  0.00    +0.000 C 
ATOM      7  C   UNL     1       8.573   2.608  22.089  0.00  0.00    +0.000 C 
ATOM      8  C   UNL     1       8.612   3.243  23.693  0.00  0.00    +0.000 C 
ATOM      9  C   UNL     1      10.021   3.836  23.648  0.00  0.00    +0.000 C 
ATOM     10  C   UNL     1      10.130   1.364  24.106  0.00  0.00    +0.000 C 
ATOM     11  C   UNL     1      10.421   0.145  24.907  0.00  0.00    +0.000 C 
ATOM     12  C   UNL     1       9.462  -1.004  24.690  0.00  0.00    +0.000 C 
ATOM     13  C   UNL     1      10.112  -2.123  23.913  0.00  0.00    +0.000 C 
ATOM     14  O   UNL     1       9.140  -1.510  25.972  0.00  0.00    +0.000 OA
ENDROOT
BRANCH   6  15
ATOM     15  C   UNL     1       6.545   1.554  22.974  0.00  0.00    +0.000 C 
ATOM     16  O   UNL     1       5.949   0.982  23.804  0.00  0.00    +0.000 OA
ATOM     17  O   UNL     1       6.000   2.468  22.154  0.00  0.00    +0.000 OA
ENDBRANCH   6  15
BRANCH   1  18
ATOM     18  C   UNL     1       7.846  -0.515  21.418  0.00  0.00    +0.000 C 
ATOM     19  O   UNL     1       8.202   0.147  20.320  0.00  0.00    +0.000 OA
BRANCH  18  21
ATOM     20  N   UNL     1       6.888  -2.645  22.136  0.00  0.00    +0.000 NA
ATOM     21  C   UNL     1       6.856  -1.501  21.427  0.00  0.00    +0.000 C 
ATOM     22  O   UNL     1       6.024  -1.522  20.425  0.00  0.00    +0.000 OA
BRANCH  20  27
ATOM     23  O   UNL     1       8.552  -5.480  23.833  0.00  0.00    +0.000 OA
ATOM     24  C   UNL     1       7.531  -4.641  23.454  0.00  0.00    +0.000 C 
ATOM     25  C   UNL     1       6.480  -5.389  22.692  0.00  0.00    +0.000 C 
ATOM     26  C   UNL     1       5.343  -4.484  22.256  0.00  0.00    +0.000 C 
ATOM     27  C   UNL     1       5.610  -3.067  22.750  0.00  0.00    +0.000 C 
ATOM     28  C   UNL     1       5.782  -3.051  24.253  0.00  0.00    +0.000 C 
ATOM     29  C   UNL     1       6.972  -3.909  24.646  0.00  0.00    +0.000 C 
ENDBRANCH  20  27
ENDBRANCH  18  21
ENDBRANCH   1  18
TORSDOF 4
ENDMDL
MODEL 2
REMARK VINA RESULT:      -7.9      2.086      6.154
REMARK  Name = 
REMARK  4 active torsions:
REMARK  status: ('A' for Active; 'I' for Inactive)
REMARK    1  A    between atoms: C_5  and  N_8
REMARK    2  A    between atoms: C_9  and  C_11
REMARK    3  A    between atoms: C_11  and  C_12
REMARK    4  A    between atoms: C_18  and  C_22
REMARK                            x       y       z     vdW  Elec       q    Type
REMARK                         _______ _______ _______ _____ _____    ______ ____
ROOT
ATOM      1  C   UNL     1       7.174  -3.103  25.148  0.00  0.00    +0.000 C 
ATOM      2  C   UNL     1       5.653  -3.142  25.293  0.00  0.00    +0.000 C 
ATOM      3  C   UNL     1       7.779  -4.059  26.184  0.00  0.00    +0.000 C 
ATOM      4  C   UNL     1       8.404  -5.299  25.169  0.00  0.00    +0.000 C 
ATOM      5  C   UNL     1       7.582  -5.207  24.040  0.00  0.00    +0.000 C 
ATOM      6  C   UNL     1       7.789  -3.470  23.928  0.00  0.00    +0.000 C 
ATOM      7  C   UNL     1       7.147  -3.475  22.554  0.00  0.00    +0.000 C 
ATOM      8  C   UNL     1       7.602  -5.139  22.511  0.00  0.00    +0.000 C 
ATOM      9  C   UNL     1       6.291  -5.699  21.958  0.00  0.00    +0.000 C 
ATOM     10  C   UNL     1       6.099  -5.317  24.438  0.00  0.00    +0.000 C 
ATOM     11  C   UNL     1       5.933  -5.713  25.861  0.00  0.00    +0.000 C 
ATOM     12  C   UNL     1       6.694  -4.862  26.852  0.00  0.00    +0.000 C 
ATOM     13  C   UNL     1       5.764  -3.976  27.645  0.00  0.00    +0.000 C 
ATOM     14  O   UNL     1       7.309  -5.752  27.765  0.00  0.00    +0.000 OA
ENDROOT
BRANCH   6  15
ATOM     15  C   UNL     1       9.241  -3.340  23.821  0.00  0.00    +0.000 C 
ATOM     16  O   UNL     1       9.994  -3.801  24.591  0.00  0.00    +0.000 OA
ATOM     17  O   UNL     1       9.614  -2.653  22.727  0.00  0.00    +0.000 OA
ENDBRANCH   6  15
BRANCH   1  18
ATOM     18  C   UNL     1       7.393  -1.623  25.246  0.00  0.00    +0.000 C 
ATOM     19  O   UNL     1       8.010  -1.277  26.372  0.00  0.00    +0.000 OA
BRANCH  18  21
ATOM     20  N   UNL     1       7.548   0.086  23.507  0.00  0.00    +0.000 NA
ATOM     21  C   UNL     1       6.851  -0.693  24.355  0.00  0.00    +0.000 C 
ATOM     22  O   UNL     1       5.645  -0.264  24.599  0.00  0.00    +0.000 OA
BRANCH  20  27
ATOM     23  O   UNL     1      10.357   2.271  22.500  0.00  0.00    +0.000 OA
ATOM     24  C   UNL     1       9.177   1.576  22.384  0.00  0.00    +0.000 C 
ATOM     25  C   UNL     1       8.031   2.506  22.124  0.00  0.00    +0.000 C 
ATOM     26  C   UNL     1       6.714   1.765  21.999  0.00  0.00    +0.000 C 
ATOM     27  C   UNL     1       6.962   0.269  22.160  0.00  0.00    +0.000 C 
ATOM     28  C   UNL     1       7.968  -0.217  21.140  0.00  0.00    +0.000 C 
ATOM     29  C   UNL     1       9.294   0.496  21.342  0.00  0.00    +0.000 C 
ENDBRANCH  20  27
ENDBRANCH  18  21
ENDBRANCH   1  18
TORSDOF 4
ENDMDL
MODEL 3
REMARK VINA RESULT:      -7.6      2.133      6.151
REMARK  Name = 
REMARK  4 active torsions:
REMARK  status: ('A' for Active; 'I' for Inactive)
REMARK    1  A    between atoms: C_5  and  N_8
REMARK    2  A    between atoms: C_9  and  C_11
REMARK    3  A    between atoms: C_11  and  C_12
REMARK    4  A    between atoms: C_18  and  C_22
REMARK                            x       y       z     vdW  Elec       q    Type
REMARK                         _______ _______ _______ _____ _____    ______ ____
ROOT
ATOM      1  C   UNL     1       6.672  -3.368  24.580  0.00  0.00    +0.000 C 
ATOM      2  C   UNL     1       6.815  -2.874  26.020  0.00  0.00    +0.000 C 
ATOM      3  C   UNL     1       7.995  -4.023  24.165  0.00  0.00    +0.000 C 
ATOM      4  C   UNL     1       7.527  -5.675  24.048  0.00  0.00    +0.000 C 
ATOM      5  C   UNL     1       6.444  -5.744  24.932  0.00  0.00    +0.000 C 
ATOM      6  C   UNL     1       5.684  -4.323  24.243  0.00  0.00    +0.000 C 
ATOM      7  C   UNL     1       4.411  -4.622  25.012  0.00  0.00    +0.000 C 
ATOM      8  C   UNL     1       5.003  -6.242  25.069  0.00  0.00    +0.000 C 
ATOM      9  C   UNL     1       4.697  -6.523  26.541  0.00  0.00    +0.000 C 
ATOM     10  C   UNL     1       6.848  -5.233  26.327  0.00  0.00    +0.000 C 
ATOM     11  C   UNL     1       8.315  -5.017  26.436  0.00  0.00    +0.000 C 
ATOM     12  C   UNL     1       8.913  -4.149  25.352  0.00  0.00    +0.000 C 
ATOM     13  C   UNL     1       9.307  -2.794  25.887  0.00  0.00    +0.000 C 
ATOM     14  O   UNL     1      10.097  -4.795  24.923  0.00  0.00    +0.000 OA
ENDROOT
BRANCH   6  15
ATOM     15  C   UNL     1       5.541  -4.701  22.838  0.00  0.00    +0.000 C 
ATOM     16  O   UNL     1       6.446  -4.944  22.136  0.00  0.00    +0.000 OA
ATOM     17  O   UNL     1       4.255  -4.761  22.453  0.00  0.00    +0.000 OA
ENDBRANCH   6  15
BRANCH   1  18
ATOM     18  C   UNL     1       6.203  -2.100  23.931  0.00  0.00    +0.000 C 
ATOM     19  O   UNL     1       5.064  -1.655  24.456  0.00  0.00    +0.000 OA
BRANCH  18  21
ATOM     20  N   UNL     1       7.779  -0.641  22.768  0.00  0.00    +0.000 NA
ATOM     21  C   UNL     1       6.784  -1.547  22.788  0.00  0.00    +0.000 C 
ATOM     22  O   UNL     1       6.100  -1.606  21.681  0.00  0.00    +0.000 OA
BRANCH  20  27
ATOM     23  O   UNL     1       9.964   1.877  24.372  0.00  0.00    +0.000 OA
ATOM     24  C   UNL     1       9.562   0.937  23.453  0.00  0.00    +0.000 C 
ATOM     25  C   UNL     1       9.448   1.540  22.086  0.00  0.00    +0.000 C 
ATOM     26  C   UNL     1       8.998   0.525  21.053  0.00  0.00    +0.000 C 
ATOM     27  C   UNL     1       8.813  -0.831  21.727  0.00  0.00    +0.000 C 
ATOM     28  C   UNL     1      10.093  -1.265  22.408  0.00  0.00    +0.000 C 
ATOM     29  C   UNL     1      10.472  -0.262  23.483  0.00  0.00    +0.000 C 
ENDBRANCH  20  27
ENDBRANCH  18  21
ENDBRANCH   1  18
TORSDOF 4
ENDMDL
MODEL 4
REMARK VINA RESULT:      -7.5      1.838      2.940
REMARK  Name = 
REMARK  4 active torsions:
REMARK  status: ('A' for Active; 'I' for Inactive)
REMARK    1  A    between atoms: C_5  and  N_8
REMARK    2  A    between atoms: C_9  and  C_11
REMARK    3  A    between atoms: C_11  and  C_12
REMARK    4  A    between atoms: C_18  and  C_22
REMARK                            x       y       z     vdW  Elec       q    Type
REMARK                         _______ _______ _______ _____ _____    ______ ____
ROOT
ATOM      1  C   UNL     1       8.446  -0.916  23.914  0.00  0.00    +0.000 C 
ATOM      2  C   UNL     1       9.323  -0.720  25.152  0.00  0.00    +0.000 C 
ATOM      3  C   UNL     1       7.032  -0.424  24.247  0.00  0.00    +0.000 C 
ATOM      4  C   UNL     1       6.923   0.976  23.252  0.00  0.00    +0.000 C 
ATOM      5  C   UNL     1       8.265   1.354  23.118  0.00  0.00    +0.000 C 
ATOM      6  C   UNL     1       8.767  -0.271  22.697  0.00  0.00    +0.000 C 
ATOM      7  C   UNL     1      10.128   0.250  22.278  0.00  0.00    +0.000 C 
ATOM      8  C   UNL     1       9.325   1.766  22.094  0.00  0.00    +0.000 C 
ATOM      9  C   UNL     1      10.378   2.643  22.775  0.00  0.00    +0.000 C 
ATOM     10  C   UNL     1       8.920   1.532  24.499  0.00  0.00    +0.000 C 
ATOM     11  C   UNL     1       7.920   1.482  25.599  0.00  0.00    +0.000 C 
ATOM     12  C   UNL     1       7.018   0.268  25.584  0.00  0.00    +0.000 C 
ATOM     13  C   UNL     1       7.363  -0.688  26.700  0.00  0.00    +0.000 C 
ATOM     14  O   UNL     1       5.704   0.737  25.820  0.00  0.00    +0.000 OA
ENDROOT
BRANCH   6  15
ATOM     15  C   UNL     1       7.939  -0.556  21.526  0.00  0.00    +0.000 C 
ATOM     16  O   UNL     1       6.804  -0.839  21.587  0.00  0.00    +0.000 OA
ATOM     17  O   UNL     1       8.621  -0.432  20.375  0.00  0.00    +0.000 OA
ENDBRANCH   6  15
BRANCH   1  18
ATOM     18  C   UNL     1       8.714  -2.367  23.651  0.00  0.00    +0.000 C 
ATOM     19  O   UNL     1       9.990  -2.599  23.351  0.00  0.00    +0.000 OA
BRANCH  18  21
ATOM     20  N   UNL     1       7.101  -3.952  24.575  0.00  0.00    +0.000 NA
ATOM     21  C   UNL     1       7.717  -3.340  23.546  0.00  0.00    +0.000 C 
ATOM     22  O   UNL     1       7.622  -3.979  22.415  0.00  0.00    +0.000 OA
BRANCH  20  27
ATOM     23  O   UNL     1       6.835  -5.108  28.078  0.00  0.00    +0.000 OA
ATOM     24  C   UNL     1       6.424  -4.786  26.807  0.00  0.00    +0.000 C 
ATOM     25  C   UNL     1       5.865  -5.986  26.105  0.00  0.00    +0.000 C 
ATOM     26  C   UNL     1       5.411  -5.660  24.695  0.00  0.00    +0.000 C 
ATOM     27  C   UNL     1       5.646  -4.178  24.421  0.00  0.00    +0.000 C 
ATOM     28  C   UNL     1       4.927  -3.327  25.445  0.00  0.00    +0.000 C 
ATOM     29  C   UNL     1       5.459  -3.631  26.835  0.00  0.00    +0.000 C 
ENDBRANCH  20  27
ENDBRANCH  18  21
ENDBRANCH   1  18
TORSDOF 4
ENDMDL
MODEL 5
REMARK VINA RESULT:      -7.5      1.906      6.520
REMARK  Name = 
REMARK  4 active torsions:
REMARK  status: ('A' for Active; 'I' for Inactive)
REMARK    1  A    between atoms: C_5  and  N_8
REMARK    2  A    between atoms: C_9  and  C_11
REMARK    3  A    between atoms: C_11  and  C_12
REMARK    4  A    between atoms: C_18  and  C_22
REMARK                            x       y       z     vdW  Elec       q    Type
REMARK                         _______ _______ _______ _____ _____    ______ ____
ROOT
ATOM      1  C   UNL     1       7.183  -3.084  24.972  0.00  0.00    +0.000 C 
ATOM      2  C   UNL     1       6.494  -1.992  24.152  0.00  0.00    +0.000 C 
ATOM      3  C   UNL     1       6.255  -3.468  26.131  0.00  0.00    +0.000 C 
ATOM      4  C   UNL     1       5.796  -5.063  25.676  0.00  0.00    +0.000 C 
ATOM      5  C   UNL     1       5.934  -5.029  24.283  0.00  0.00    +0.000 C 
ATOM      6  C   UNL     1       7.533  -4.317  24.375  0.00  0.00    +0.000 C 
ATOM      7  C   UNL     1       7.744  -4.582  22.897  0.00  0.00    +0.000 C 
ATOM      8  C   UNL     1       6.524  -5.787  23.091  0.00  0.00    +0.000 C 
ATOM      9  C   UNL     1       5.715  -5.468  21.833  0.00  0.00    +0.000 C 
ATOM     10  C   UNL     1       5.114  -3.872  23.684  0.00  0.00    +0.000 C 
ATOM     11  C   UNL     1       4.223  -3.242  24.693  0.00  0.00    +0.000 C 
ATOM     12  C   UNL     1       4.912  -2.809  25.968  0.00  0.00    +0.000 C 
ATOM     13  C   UNL     1       5.023  -1.306  26.050  0.00  0.00    +0.000 C 
ATOM     14  O   UNL     1       4.086  -3.230  27.038  0.00  0.00    +0.000 OA
ENDROOT
BRANCH   6  15
ATOM     15  C   UNL     1       8.259  -5.294  25.186  0.00  0.00    +0.000 C 
ATOM     16  O   UNL     1       7.917  -5.635  26.253  0.00  0.00    +0.000 OA
ATOM     17  O   UNL     1       9.346  -5.773  24.558  0.00  0.00    +0.000 OA
ENDBRANCH   6  15
BRANCH   1  18
ATOM     18  C   UNL     1       8.496  -2.406  25.228  0.00  0.00    +0.000 C 
ATOM     19  O   UNL     1       8.690  -2.154  26.520  0.00  0.00    +0.000 OA
BRANCH  18  21
ATOM     20  N   UNL     1       9.088  -0.873  23.421  0.00  0.00    +0.000 NA
ATOM     21  C   UNL     1       9.337  -1.926  24.222  0.00  0.00    +0.000 C 
ATOM     22  O   UNL     1      10.242  -2.741  23.759  0.00  0.00    +0.000 OA
BRANCH  20  27
ATOM     23  O   UNL     1       6.954   2.134  23.719  0.00  0.00    +0.000 OA
ATOM     24  C   UNL     1       8.093   1.394  23.513  0.00  0.00    +0.000 C 
ATOM     25  C   UNL     1       8.620   1.598  22.125  0.00  0.00    +0.000 C 
ATOM     26  C   UNL     1       9.876   0.786  21.868  0.00  0.00    +0.000 C 
ATOM     27  C   UNL     1      10.239   0.010  23.129  0.00  0.00    +0.000 C 
ATOM     28  C   UNL     1      10.419   0.951  24.300  0.00  0.00    +0.000 C 
ATOM     29  C   UNL     1       9.122   1.692  24.571  0.00  0.00    +0.000 C 
ENDBRANCH  20  27
ENDBRANCH  18  21
ENDBRANCH   1  18
TORSDOF 4
ENDMDL
MODEL 6
REMARK VINA RESULT:      -7.5      1.803      5.766
REMARK  Name = 
REMARK  4 active torsions:
REMARK  status: ('A' for Active; 'I' for Inactive)
REMARK    1  A    between atoms: C_5  and  N_8
REMARK    2  A    between atoms: C_9  and  C_11
REMARK    3  A    between atoms: C_11  and  C_12
REMARK    4  A    between atoms: C_18  and  C_22
REMARK                            x       y       z     vdW  Elec       q    Type
REMARK                         _______ _______ _______ _____ _____    ______ ____
ROOT
ATOM      1  C   UNL     1       6.285  -2.839  24.228  0.00  0.00    +0.000 C 
ATOM      2  C   UNL     1       4.938  -2.489  24.863  0.00  0.00    +0.000 C 
ATOM      3  C   UNL     1       7.325  -1.828  24.726  0.00  0.00    +0.000 C 
ATOM      4  C   UNL     1       8.314  -2.827  25.718  0.00  0.00    +0.000 C 
ATOM      5  C   UNL     1       7.427  -3.840  26.103  0.00  0.00    +0.000 C 
ATOM      6  C   UNL     1       6.881  -4.101  24.458  0.00  0.00    +0.000 C 
ATOM      7  C   UNL     1       6.176  -5.373  24.886  0.00  0.00    +0.000 C 
ATOM      8  C   UNL     1       7.276  -5.359  26.215  0.00  0.00    +0.000 C 
ATOM      9  C   UNL     1       6.272  -5.691  27.320  0.00  0.00    +0.000 C 
ATOM     10  C   UNL     1       6.168  -3.241  26.755  0.00  0.00    +0.000 C 
ATOM     11  C   UNL     1       6.315  -1.784  27.012  0.00  0.00    +0.000 C 
ATOM     12  C   UNL     1       6.740  -0.966  25.813  0.00  0.00    +0.000 C 
ATOM     13  C   UNL     1       5.604  -0.120  25.292  0.00  0.00    +0.000 C 
ATOM     14  O   UNL     1       7.752  -0.083  26.262  0.00  0.00    +0.000 OA
ENDROOT
BRANCH   6  15
ATOM     15  C   UNL     1       8.131  -4.410  23.764  0.00  0.00    +0.000 C 
ATOM     16  O   UNL     1       9.040  -3.675  23.705  0.00  0.00    +0.000 OA
ATOM     17  O   UNL     1       8.125  -5.641  23.225  0.00  0.00    +0.000 OA
ENDBRANCH   6  15
BRANCH   1  18
ATOM     18  C   UNL     1       5.875  -2.876  22.786  0.00  0.00    +0.000 C 
ATOM     19  O   UNL     1       5.059  -3.892  22.519  0.00  0.00    +0.000 OA
BRANCH  18  21
ATOM     20  N   UNL     1       7.193  -0.973  22.006  0.00  0.00    +0.000 NA
ATOM     21  C   UNL     1       6.426  -2.059  21.796  0.00  0.00    +0.000 C 
ATOM     22  O   UNL     1       5.882  -2.103  20.614  0.00  0.00    +0.000 OA
BRANCH  20  27
ATOM     23  O   UNL     1       8.200   2.138  23.735  0.00  0.00    +0.000 OA
ATOM     24  C   UNL     1       8.245   1.119  22.815  0.00  0.00    +0.000 C 
ATOM     25  C   UNL     1       8.085   1.648  21.422  0.00  0.00    +0.000 C 
ATOM     26  C   UNL     1       8.124   0.541  20.385  0.00  0.00    +0.000 C 
ATOM     27  C   UNL     1       8.338  -0.796  21.085  0.00  0.00    +0.000 C 
ATOM     28  C   UNL     1       9.606  -0.768  21.911  0.00  0.00    +0.000 C 
ATOM     29  C   UNL     1       9.500   0.304  22.983  0.00  0.00    +0.000 C 
ENDBRANCH  20  27
ENDBRANCH  18  21
ENDBRANCH   1  18
TORSDOF 4
ENDMDL
MODEL 7
REMARK VINA RESULT:      -7.4      1.891      6.029
REMARK  Name = 
REMARK  4 active torsions:
REMARK  status: ('A' for Active; 'I' for Inactive)
REMARK    1  A    between atoms: C_5  and  N_8
REMARK    2  A    between atoms: C_9  and  C_11
REMARK    3  A    between atoms: C_11  and  C_12
REMARK    4  A    between atoms: C_18  and  C_22
REMARK                            x       y       z     vdW  Elec       q    Type
REMARK                         _______ _______ _______ _____ _____    ______ ____
ROOT
ATOM      1  C   UNL     1       7.844  -4.006  24.294  0.00  0.00    +0.000 C 
ATOM      2  C   UNL     1       7.980  -5.475  23.888  0.00  0.00    +0.000 C 
ATOM      3  C   UNL     1       6.691  -3.393  23.492  0.00  0.00    +0.000 C 
ATOM      4  C   UNL     1       5.527  -3.126  24.732  0.00  0.00    +0.000 C 
ATOM      5  C   UNL     1       5.873  -4.096  25.681  0.00  0.00    +0.000 C 
ATOM      6  C   UNL     1       7.569  -3.655  25.636  0.00  0.00    +0.000 C 
ATOM      7  C   UNL     1       7.829  -4.501  26.868  0.00  0.00    +0.000 C 
ATOM      8  C   UNL     1       6.141  -4.309  27.173  0.00  0.00    +0.000 C 
ATOM      9  C   UNL     1       5.831  -5.760  27.545  0.00  0.00    +0.000 C 
ATOM     10  C   UNL     1       5.900  -5.496  25.043  0.00  0.00    +0.000 C 
ATOM     11  C   UNL     1       5.341  -5.489  23.665  0.00  0.00    +0.000 C 
ATOM     12  C   UNL     1       5.950  -4.463  22.736  0.00  0.00    +0.000 C 
ATOM     13  C   UNL     1       6.832  -5.114  21.699  0.00  0.00    +0.000 C 
ATOM     14  O   UNL     1       4.874  -3.849  22.050  0.00  0.00    +0.000 OA
ENDROOT
BRANCH   6  15
ATOM     15  C   UNL     1       7.527  -2.235  25.983  0.00  0.00    +0.000 C 
ATOM     16  O   UNL     1       6.710  -1.494  25.590  0.00  0.00    +0.000 OA
ATOM     17  O   UNL     1       8.517  -1.884  26.821  0.00  0.00    +0.000 OA
ENDBRANCH   6  15
BRANCH   1  18
ATOM     18  C   UNL     1       9.259  -3.559  24.074  0.00  0.00    +0.000 C 
ATOM     19  O   UNL     1      10.132  -4.290  24.763  0.00  0.00    +0.000 OA
BRANCH  18  21
ATOM     20  N   UNL     1       8.760  -1.544  22.787  0.00  0.00    +0.000 NA
ATOM     21  C   UNL     1       9.613  -2.400  23.380  0.00  0.00    +0.000 C 
ATOM     22  O   UNL     1      10.838  -2.315  22.944  0.00  0.00    +0.000 OA
BRANCH  20  27
ATOM     23  O   UNL     1       6.278  -0.667  20.188  0.00  0.00    +0.000 OA
ATOM     24  C   UNL     1       7.253  -0.474  21.138  0.00  0.00    +0.000 C 
ATOM     25  C   UNL     1       8.478   0.138  20.530  0.00  0.00    +0.000 C 
ATOM     26  C   UNL     1       9.574   0.355  21.556  0.00  0.00    +0.000 C 
ATOM     27  C   UNL     1       9.082  -0.106  22.923  0.00  0.00    +0.000 C 
ATOM     28  C   UNL     1       7.813   0.625  23.306  0.00  0.00    +0.000 C 
ATOM     29  C   UNL     1       6.720   0.327  22.296  0.00  0.00    +0.000 C 
ENDBRANCH  20  27
ENDBRANCH  18  21
ENDBRANCH   1  18
TORSDOF 4
ENDMDL
MODEL 8
REMARK VINA RESULT:      -7.3      2.068      6.033
REMARK  Name = 
REMARK  4 active torsions:
REMARK  status: ('A' for Active; 'I' for Inactive)
REMARK    1  A    between atoms: C_5  and  N_8
REMARK    2  A    between atoms: C_9  and  C_11
REMARK    3  A    between atoms: C_11  and  C_12
REMARK    4  A    between atoms: C_18  and  C_22
REMARK                            x       y       z     vdW  Elec       q    Type
REMARK                         _______ _______ _______ _____ _____    ______ ____
ROOT
ATOM      1  C   UNL     1       6.655  -3.706  23.773  0.00  0.00    +0.000 C 
ATOM      2  C   UNL     1       7.352  -5.027  23.445  0.00  0.00    +0.000 C 
ATOM      3  C   UNL     1       5.171  -3.845  23.411  0.00  0.00    +0.000 C 
ATOM      4  C   UNL     1       4.444  -3.820  24.970  0.00  0.00    +0.000 C 
ATOM      5  C   UNL     1       5.472  -4.302  25.789  0.00  0.00    +0.000 C 
ATOM      6  C   UNL     1       6.651  -3.205  25.096  0.00  0.00    +0.000 C 
ATOM      7  C   UNL     1       7.632  -3.550  26.200  0.00  0.00    +0.000 C 
ATOM      8  C   UNL     1       6.233  -4.030  27.090  0.00  0.00    +0.000 C 
ATOM      9  C   UNL     1       6.781  -5.345  27.645  0.00  0.00    +0.000 C 
ATOM     10  C   UNL     1       5.980  -5.663  25.281  0.00  0.00    +0.000 C 
ATOM     11  C   UNL     1       5.111  -6.214  24.207  0.00  0.00    +0.000 C 
ATOM     12  C   UNL     1       4.851  -5.272  23.053  0.00  0.00    +0.000 C 
ATOM     13  C   UNL     1       5.590  -5.706  21.811  0.00  0.00    +0.000 C 
ATOM     14  O   UNL     1       3.466  -5.351  22.770  0.00  0.00    +0.000 OA
ENDROOT
BRANCH   6  15
ATOM     15  C   UNL     1       6.037  -1.901  25.338  0.00  0.00    +0.000 C 
ATOM     16  O   UNL     1       4.968  -1.606  24.963  0.00  0.00    +0.000 OA
ATOM     17  O   UNL     1       6.829  -1.089  26.059  0.00  0.00    +0.000 OA
ENDBRANCH   6  15
BRANCH   1  18
ATOM     18  C   UNL     1       7.547  -2.764  23.020  0.00  0.00    +0.000 C 
ATOM     19  O   UNL     1       8.817  -2.854  23.406  0.00  0.00    +0.000 OA
BRANCH  18  21
ATOM     20  N   UNL     1       7.089  -0.451  22.384  0.00  0.00    +0.000 NA
ATOM     21  C   UNL     1       7.082  -1.776  22.150  0.00  0.00    +0.000 C 
ATOM     22  O   UNL     1       6.251  -2.144  21.216  0.00  0.00    +0.000 OA
BRANCH  20  27
ATOM     23  O   UNL     1       9.292   1.611  24.524  0.00  0.00    +0.000 OA
ATOM     24  C   UNL     1       8.649   1.194  23.384  0.00  0.00    +0.000 C 
ATOM     25  C   UNL     1       7.735   2.262  22.864  0.00  0.00    +0.000 C 
ATOM     26  C   UNL     1       7.005   1.825  21.608  0.00  0.00    +0.000 C 
ATOM     27  C   UNL     1       7.446   0.412  21.237  0.00  0.00    +0.000 C 
ATOM     28  C   UNL     1       8.947   0.354  21.053  0.00  0.00    +0.000 C 
ATOM     29  C   UNL     1       9.641   0.729  22.351  0.00  0.00    +0.000 C 
ENDBRANCH  20  27
ENDBRANCH  18  21
ENDBRANCH   1  18
TORSDOF 4
ENDMDL
MODEL 9
REMARK VINA RESULT:      -7.3      1.945      3.217
REMARK  Name = 
REMARK  4 active torsions:
REMARK  status: ('A' for Active; 'I' for Inactive)
REMARK    1  A    between atoms: C_5  and  N_8
REMARK    2  A    between atoms: C_9  and  C_11
REMARK    3  A    between atoms: C_11  and  C_12
REMARK    4  A    between atoms: C_18  and  C_22
REMARK                            x       y       z     vdW  Elec       q    Type
REMARK                         _______ _______ _______ _____ _____    ______ ____
ROOT
ATOM      1  C   UNL     1       7.553  -0.443  24.100  0.00  0.00    +0.000 C 
ATOM      2  C   UNL     1       7.104  -0.192  22.660  0.00  0.00    +0.000 C 
ATOM      3  C   UNL     1       8.865  -1.234  24.061  0.00  0.00    +0.000 C 
ATOM      4  C   UNL     1       9.980  -0.062  24.648  0.00  0.00    +0.000 C 
ATOM      5  C   UNL     1       9.359   1.143  24.298  0.00  0.00    +0.000 C 
ATOM      6  C   UNL     1       7.820   0.642  24.969  0.00  0.00    +0.000 C 
ATOM      7  C   UNL     1       7.294   2.058  24.840  0.00  0.00    +0.000 C 
ATOM      8  C   UNL     1       8.957   2.517  24.841  0.00  0.00    +0.000 C 
ATOM      9  C   UNL     1       8.896   3.523  23.690  0.00  0.00    +0.000 C 
ATOM     10  C   UNL     1       9.045   1.176  22.792  0.00  0.00    +0.000 C 
ATOM     11  C   UNL     1       9.674   0.040  22.068  0.00  0.00    +0.000 C 
ATOM     12  C   UNL     1       9.381  -1.325  22.649  0.00  0.00    +0.000 C 
ATOM     13  C   UNL     1       8.436  -2.106  21.768  0.00  0.00    +0.000 C 
ATOM     14  O   UNL     1      10.610  -2.027  22.677  0.00  0.00    +0.000 OA
ENDROOT
BRANCH   6  15
ATOM     15  C   UNL     1       8.171   0.343  26.356  0.00  0.00    +0.000 C 
ATOM     16  O   UNL     1       8.961  -0.462  26.668  0.00  0.00    +0.000 OA
ATOM     17  O   UNL     1       7.501   1.115  27.230  0.00  0.00    +0.000 OA
ENDBRANCH   6  15
BRANCH   1  18
ATOM     18  C   UNL     1       6.298  -1.058  24.645  0.00  0.00    +0.000 C 
ATOM     19  O   UNL     1       5.279  -0.203  24.653  0.00  0.00    +0.000 OA
BRANCH  18  21
ATOM     20  N   UNL     1       6.132  -3.494  24.607  0.00  0.00    +0.000 NA
ATOM     21  C   UNL     1       6.243  -2.316  25.248  0.00  0.00    +0.000 C 
ATOM     22  O   UNL     1       5.903  -2.363  26.505  0.00  0.00    +0.000 OA
BRANCH  20  27
ATOM     23  O   UNL     1       5.056  -5.710  21.847  0.00  0.00    +0.000 OA
ATOM     24  C   UNL     1       5.708  -5.327  22.994  0.00  0.00    +0.000 C 
ATOM     25  C   UNL     1       5.262  -6.150  24.164  0.00  0.00    +0.000 C 
ATOM     26  C   UNL     1       5.962  -5.742  25.447  0.00  0.00    +0.000 C 
ATOM     27  C   UNL     1       6.939  -4.610  25.148  0.00  0.00    +0.000 C 
ATOM     28  C   UNL     1       7.932  -5.030  24.086  0.00  0.00    +0.000 C 
ATOM     29  C   UNL     1       7.201  -5.362  22.798  0.00  0.00    +0.000 C 
ENDBRANCH  20  27
ENDBRANCH  18  21
ENDBRANCH   1  18
TORSDOF 4
ENDMDL
