MODEL 1
REMARK VINA RESULT:      -8.3      0.000      0.000
REMARK  Name = 
REMARK  3 active torsions:
REMARK  status: ('A' for Active; 'I' for Inactive)
REMARK    1  A    between atoms: C_5  and  C_7
REMARK    2  A    between atoms: C_7  and  C_8
REMARK    3  A    between atoms: C_14  and  C_18
REMARK                            x       y       z     vdW  Elec       q    Type
REMARK                         _______ _______ _______ _____ _____    ______ ____
ROOT
ATOM      1  C   UNL     1       7.643   0.520  23.016  0.00  0.00    +0.000 C 
ATOM      2  C   UNL     1       6.379   0.930  23.979  0.00  0.00    +0.000 C 
ATOM      3  C   UNL     1       8.245  -0.559  24.000  0.00  0.00    +0.000 C 
ATOM      4  C   UNL     1       8.655   0.558  25.087  0.00  0.00    +0.000 C 
ATOM      5  C   UNL     1       9.488   1.513  24.461  0.00  0.00    +0.000 C 
ATOM      6  C   UNL     1       8.535   1.611  23.099  0.00  0.00    +0.000 C 
ATOM      7  C   UNL     1       9.772   1.835  22.209  0.00  0.00    +0.000 C 
ATOM      8  C   UNL     1      10.379   2.502  23.629  0.00  0.00    +0.000 C 
ATOM      9  C   UNL     1      10.176   3.859  23.702  0.00  0.00    +0.000 C 
ATOM     10  C   UNL     1      10.722   0.517  24.416  0.00  0.00    +0.000 C 
ATOM     11  C   UNL     1      10.645  -0.338  23.235  0.00  0.00    +0.000 C 
ATOM     12  C   UNL     1       9.392  -1.223  23.395  0.00  0.00    +0.000 C 
ATOM     13  C   UNL     1       9.096  -1.786  22.018  0.00  0.00    +0.000 C 
ATOM     14  O   UNL     1       9.790  -2.296  24.221  0.00  0.00    +0.000 OA
ENDROOT
BRANCH   6  15
ATOM     15  C   UNL     1       7.932   2.976  23.216  0.00  0.00    +0.000 C 
ATOM     16  O   UNL     1       7.284   3.305  24.134  0.00  0.00    +0.000 OA
ATOM     17  O   UNL     1       7.750   3.529  21.980  0.00  0.00    +0.000 OA
ENDBRANCH   6  15
BRANCH   1  18
ATOM     18  C   UNL     1       7.035   0.053  21.826  0.00  0.00    +0.000 C 
BRANCH  18  23
ATOM     19  O   UNL     1       6.086  -0.709  17.795  0.00  0.00    +0.000 OA
ATOM     20  C   UNL     1       6.506   0.545  18.270  0.00  0.00    +0.000 C 
ATOM     21  C   UNL     1       5.285   1.230  18.905  0.00  0.00    +0.000 C 
ATOM     22  C   UNL     1       5.698   1.643  20.347  0.00  0.00    +0.000 C 
ATOM     23  C   UNL     1       7.042   1.013  20.644  0.00  0.00    +0.000 C 
ATOM     24  C   UNL     1       7.524   0.279  19.391  0.00  0.00    +0.000 C 
ENDBRANCH  18  23
ENDBRANCH   1  18
TORSDOF 3
ENDMDL
MODEL 2
REMARK VINA RESULT:      -7.8      2.570      4.889
REMARK  Name = 
REMARK  3 active torsions:
REMARK  status: ('A' for Active; 'I' for Inactive)
REMARK    1  A    between atoms: C_5  and  C_7
REMARK    2  A    between atoms: C_7  and  C_8
REMARK    3  A    between atoms: C_14  and  C_18
REMARK                            x       y       z     vdW  Elec       q    Type
REMARK                         _______ _______ _______ _____ _____    ______ ____
ROOT
ATOM      1  C   UNL     1       8.100  -1.341  22.453  0.00  0.00    +0.000 C 
ATOM      2  C   UNL     1       9.494  -2.130  22.812  0.00  0.00    +0.000 C 
ATOM      3  C   UNL     1       8.576  -0.822  21.039  0.00  0.00    +0.000 C 
ATOM      4  C   UNL     1       9.673   0.163  21.691  0.00  0.00    +0.000 C 
ATOM      5  C   UNL     1       9.021   1.028  22.599  0.00  0.00    +0.000 C 
ATOM      6  C   UNL     1       8.109  -0.191  23.273  0.00  0.00    +0.000 C 
ATOM      7  C   UNL     1       6.925   0.769  23.491  0.00  0.00    +0.000 C 
ATOM      8  C   UNL     1       8.166   1.899  23.586  0.00  0.00    +0.000 C 
ATOM      9  C   UNL     1       8.588   2.112  24.877  0.00  0.00    +0.000 C 
ATOM     10  C   UNL     1       8.357   1.874  21.432  0.00  0.00    +0.000 C 
ATOM     11  C   UNL     1       7.118   1.243  20.986  0.00  0.00    +0.000 C 
ATOM     12  C   UNL     1       7.497  -0.115  20.361  0.00  0.00    +0.000 C 
ATOM     13  C   UNL     1       6.213  -0.918  20.289  0.00  0.00    +0.000 C 
ATOM     14  O   UNL     1       7.897   0.175  19.039  0.00  0.00    +0.000 OA
ENDROOT
BRANCH   6  15
ATOM     15  C   UNL     1       8.705  -0.333  24.638  0.00  0.00    +0.000 C 
ATOM     16  O   UNL     1       9.854  -0.469  24.815  0.00  0.00    +0.000 OA
ATOM     17  O   UNL     1       7.784  -0.833  25.516  0.00  0.00    +0.000 OA
ENDBRANCH   6  15
BRANCH   1  18
ATOM     18  C   UNL     1       7.112  -2.354  22.479  0.00  0.00    +0.000 C 
BRANCH  18  23
ATOM     19  O   UNL     1       4.939  -5.223  24.664  0.00  0.00    +0.000 OA
ATOM     20  C   UNL     1       6.280  -5.391  24.282  0.00  0.00    +0.000 C 
ATOM     21  C   UNL     1       6.288  -5.845  22.814  0.00  0.00    +0.000 C 
ATOM     22  C   UNL     1       7.218  -4.864  22.043  0.00  0.00    +0.000 C 
ATOM     23  C   UNL     1       7.562  -3.722  22.974  0.00  0.00    +0.000 C 
ATOM     24  C   UNL     1       6.938  -4.003  24.343  0.00  0.00    +0.000 C 
ENDBRANCH  18  23
ENDBRANCH   1  18
TORSDOF 3
ENDMDL
MODEL 3
REMARK VINA RESULT:      -7.7      1.584      2.272
REMARK  Name = 
REMARK  3 active torsions:
REMARK  status: ('A' for Active; 'I' for Inactive)
REMARK    1  A    between atoms: C_5  and  C_7
REMARK    2  A    between atoms: C_7  and  C_8
REMARK    3  A    between atoms: C_14  and  C_18
REMARK                            x       y       z     vdW  Elec       q    Type
REMARK                         _______ _______ _______ _____ _____    ______ ____
ROOT
ATOM      1  C   UNL     1       7.355   0.556  22.948  0.00  0.00    +0.000 C 
ATOM      2  C   UNL     1       6.990   2.155  22.884  0.00  0.00    +0.000 C 
ATOM      3  C   UNL     1       6.473   0.247  24.222  0.00  0.00    +0.000 C 
ATOM      4  C   UNL     1       7.428   1.120  25.182  0.00  0.00    +0.000 C 
ATOM      5  C   UNL     1       8.748   0.626  25.078  0.00  0.00    +0.000 C 
ATOM      6  C   UNL     1       8.685   0.503  23.419  0.00  0.00    +0.000 C 
ATOM      7  C   UNL     1       9.583  -0.748  23.444  0.00  0.00    +0.000 C 
ATOM      8  C   UNL     1      10.161  -0.014  24.842  0.00  0.00    +0.000 C 
ATOM      9  C   UNL     1      11.259   0.779  24.605  0.00  0.00    +0.000 C 
ATOM     10  C   UNL     1       8.407  -0.677  25.917  0.00  0.00    +0.000 C 
ATOM     11  C   UNL     1       7.843  -1.709  25.052  0.00  0.00    +0.000 C 
ATOM     12  C   UNL     1       6.494  -1.177  24.528  0.00  0.00    +0.000 C 
ATOM     13  C   UNL     1       6.132  -2.047  23.339  0.00  0.00    +0.000 C 
ATOM     14  O   UNL     1       5.560  -1.441  25.552  0.00  0.00    +0.000 OA
ENDROOT
BRANCH   6  15
ATOM     15  C   UNL     1       9.609   1.592  22.972  0.00  0.00    +0.000 C 
ATOM     16  O   UNL     1       9.509   2.698  23.343  0.00  0.00    +0.000 OA
ATOM     17  O   UNL     1      10.149   1.296  21.752  0.00  0.00    +0.000 OA
ENDBRANCH   6  15
BRANCH   1  18
ATOM     18  C   UNL     1       6.909   0.049  21.704  0.00  0.00    +0.000 C 
BRANCH  18  23
ATOM     19  O   UNL     1       6.038  -0.675  17.649  0.00  0.00    +0.000 OA
ATOM     20  C   UNL     1       6.440   0.576  18.145  0.00  0.00    +0.000 C 
ATOM     21  C   UNL     1       5.203   1.245  18.765  0.00  0.00    +0.000 C 
ATOM     22  C   UNL     1       5.587   1.645  20.220  0.00  0.00    +0.000 C 
ATOM     23  C   UNL     1       6.930   1.022  20.533  0.00  0.00    +0.000 C 
ATOM     24  C   UNL     1       7.440   0.305  19.281  0.00  0.00    +0.000 C 
ENDBRANCH  18  23
ENDBRANCH   1  18
TORSDOF 3
ENDMDL
MODEL 4
REMARK VINA RESULT:      -7.3      2.409      4.393
REMARK  Name = 
REMARK  3 active torsions:
REMARK  status: ('A' for Active; 'I' for Inactive)
REMARK    1  A    between atoms: C_5  and  C_7
REMARK    2  A    between atoms: C_7  and  C_8
REMARK    3  A    between atoms: C_14  and  C_18
REMARK                            x       y       z     vdW  Elec       q    Type
REMARK                         _______ _______ _______ _____ _____    ______ ____
ROOT
ATOM      1  C   UNL     1       7.613  -1.543  23.362  0.00  0.00    +0.000 C 
ATOM      2  C   UNL     1       8.071  -2.893  22.547  0.00  0.00    +0.000 C 
ATOM      3  C   UNL     1       9.067  -1.148  23.836  0.00  0.00    +0.000 C 
ATOM      4  C   UNL     1       9.174  -2.429  24.808  0.00  0.00    +0.000 C 
ATOM      5  C   UNL     1       8.086  -2.406  25.710  0.00  0.00    +0.000 C 
ATOM      6  C   UNL     1       6.977  -2.019  24.529  0.00  0.00    +0.000 C 
ATOM      7  C   UNL     1       6.165  -1.169  25.524  0.00  0.00    +0.000 C 
ATOM      8  C   UNL     1       6.819  -2.259  26.624  0.00  0.00    +0.000 C 
ATOM      9  C   UNL     1       5.994  -3.333  26.856  0.00  0.00    +0.000 C 
ATOM     10  C   UNL     1       8.707  -1.208  26.545  0.00  0.00    +0.000 C 
ATOM     11  C   UNL     1       8.361   0.073  25.935  0.00  0.00    +0.000 C 
ATOM     12  C   UNL     1       9.046   0.120  24.554  0.00  0.00    +0.000 C 
ATOM     13  C   UNL     1       8.360   1.230  23.781  0.00  0.00    +0.000 C 
ATOM     14  O   UNL     1      10.374   0.528  24.803  0.00  0.00    +0.000 OA
ENDROOT
BRANCH   6  15
ATOM     15  C   UNL     1       6.177  -3.278  24.404  0.00  0.00    +0.000 C 
ATOM     16  O   UNL     1       6.671  -4.331  24.277  0.00  0.00    +0.000 OA
ATOM     17  O   UNL     1       4.933  -3.009  23.907  0.00  0.00    +0.000 OA
ENDBRANCH   6  15
BRANCH   1  18
ATOM     18  C   UNL     1       7.004  -0.732  22.374  0.00  0.00    +0.000 C 
BRANCH  18  23
ATOM     19  O   UNL     1       5.013   0.508  18.878  0.00  0.00    +0.000 OA
ATOM     20  C   UNL     1       6.097  -0.385  18.878  0.00  0.00    +0.000 C 
ATOM     21  C   UNL     1       7.382   0.452  18.993  0.00  0.00    +0.000 C 
ATOM     22  C   UNL     1       8.184  -0.116  20.200  0.00  0.00    +0.000 C 
ATOM     23  C   UNL     1       7.295  -1.102  20.926  0.00  0.00    +0.000 C 
ATOM     24  C   UNL     1       5.978  -1.231  20.156  0.00  0.00    +0.000 C 
ENDBRANCH  18  23
ENDBRANCH   1  18
TORSDOF 3
ENDMDL
MODEL 5
REMARK VINA RESULT:      -7.3      3.087      5.093
REMARK  Name = 
REMARK  3 active torsions:
REMARK  status: ('A' for Active; 'I' for Inactive)
REMARK    1  A    between atoms: C_5  and  C_7
REMARK    2  A    between atoms: C_7  and  C_8
REMARK    3  A    between atoms: C_14  and  C_18
REMARK                            x       y       z     vdW  Elec       q    Type
REMARK                         _______ _______ _______ _____ _____    ______ ____
ROOT
ATOM      1  C   UNL     1       8.260  -2.187  23.664  0.00  0.00    +0.000 C 
ATOM      2  C   UNL     1       9.304  -3.327  24.218  0.00  0.00    +0.000 C 
ATOM      3  C   UNL     1       9.358  -1.309  22.944  0.00  0.00    +0.000 C 
ATOM      4  C   UNL     1      10.033  -0.878  24.343  0.00  0.00    +0.000 C 
ATOM      5  C   UNL     1       9.044  -0.278  25.155  0.00  0.00    +0.000 C 
ATOM      6  C   UNL     1       7.900  -1.436  24.805  0.00  0.00    +0.000 C 
ATOM      7  C   UNL     1       6.771  -0.391  24.877  0.00  0.00    +0.000 C 
ATOM      8  C   UNL     1       7.840   0.341  25.949  0.00  0.00    +0.000 C 
ATOM      9  C   UNL     1       7.603  -0.016  27.254  0.00  0.00    +0.000 C 
ATOM     10  C   UNL     1       9.026   1.049  24.285  0.00  0.00    +0.000 C 
ATOM     11  C   UNL     1       8.135   0.895  23.139  0.00  0.00    +0.000 C 
ATOM     12  C   UNL     1       8.741  -0.196  22.234  0.00  0.00    +0.000 C 
ATOM     13  C   UNL     1       7.630  -0.631  21.297  0.00  0.00    +0.000 C 
ATOM     14  O   UNL     1       9.724   0.456  21.460  0.00  0.00    +0.000 OA
ENDROOT
BRANCH   6  15
ATOM     15  C   UNL     1       7.776  -2.180  26.098  0.00  0.00    +0.000 C 
ATOM     16  O   UNL     1       8.687  -2.699  26.618  0.00  0.00    +0.000 OA
ATOM     17  O   UNL     1       6.500  -2.637  26.269  0.00  0.00    +0.000 OA
ENDBRANCH   6  15
BRANCH   1  18
ATOM     18  C   UNL     1       7.360  -2.910  22.846  0.00  0.00    +0.000 C 
BRANCH  18  23
ATOM     19  O   UNL     1       3.966  -5.390  22.614  0.00  0.00    +0.000 OA
ATOM     20  C   UNL     1       5.234  -5.845  23.011  0.00  0.00    +0.000 C 
ATOM     21  C   UNL     1       6.058  -6.080  21.735  0.00  0.00    +0.000 C 
ATOM     22  C   UNL     1       7.381  -5.277  21.898  0.00  0.00    +0.000 C 
ATOM     23  C   UNL     1       7.245  -4.403  23.126  0.00  0.00    +0.000 C 
ATOM     24  C   UNL     1       5.897  -4.697  23.788  0.00  0.00    +0.000 C 
ENDBRANCH  18  23
ENDBRANCH   1  18
TORSDOF 3
ENDMDL
MODEL 6
REMARK VINA RESULT:      -7.2      1.702      3.681
REMARK  Name = 
REMARK  3 active torsions:
REMARK  status: ('A' for Active; 'I' for Inactive)
REMARK    1  A    between atoms: C_5  and  C_7
REMARK    2  A    between atoms: C_7  and  C_8
REMARK    3  A    between atoms: C_14  and  C_18
REMARK                            x       y       z     vdW  Elec       q    Type
REMARK                         _______ _______ _______ _____ _____    ______ ____
ROOT
ATOM      1  C   UNL     1       8.762   0.198  22.010  0.00  0.00    +0.000 C 
ATOM      2  C   UNL     1       9.536  -0.959  21.139  0.00  0.00    +0.000 C 
ATOM      3  C   UNL     1      10.075   0.881  22.561  0.00  0.00    +0.000 C 
ATOM      4  C   UNL     1      10.449  -0.401  23.463  0.00  0.00    +0.000 C 
ATOM      5  C   UNL     1       9.362  -0.681  24.323  0.00  0.00    +0.000 C 
ATOM      6  C   UNL     1       8.223  -0.483  23.124  0.00  0.00    +0.000 C 
ATOM      7  C   UNL     1       7.214   0.097  24.132  0.00  0.00    +0.000 C 
ATOM      8  C   UNL     1       8.073  -0.883  25.195  0.00  0.00    +0.000 C 
ATOM      9  C   UNL     1       7.509  -2.129  25.335  0.00  0.00    +0.000 C 
ATOM     10  C   UNL     1       9.672   0.571  25.246  0.00  0.00    +0.000 C 
ATOM     11  C   UNL     1       9.058   1.776  24.695  0.00  0.00    +0.000 C 
ATOM     12  C   UNL     1       9.748   2.063  23.346  0.00  0.00    +0.000 C 
ATOM     13  C   UNL     1       8.845   3.035  22.611  0.00  0.00    +0.000 C 
ATOM     14  O   UNL     1      10.940   2.745  23.669  0.00  0.00    +0.000 OA
ENDROOT
BRANCH   6  15
ATOM     15  C   UNL     1       7.735  -1.879  22.898  0.00  0.00    +0.000 C 
ATOM     16  O   UNL     1       8.438  -2.745  22.544  0.00  0.00    +0.000 OA
ATOM     17  O   UNL     1       6.399  -1.881  22.609  0.00  0.00    +0.000 OA
ENDBRANCH   6  15
BRANCH   1  18
ATOM     18  C   UNL     1       8.008   0.910  21.046  0.00  0.00    +0.000 C 
BRANCH  18  23
ATOM     19  O   UNL     1       4.410   1.875  19.085  0.00  0.00    +0.000 OA
ATOM     20  C   UNL     1       5.065   0.640  18.943  0.00  0.00    +0.000 C 
ATOM     21  C   UNL     1       6.203   0.836  17.930  0.00  0.00    +0.000 C 
ATOM     22  C   UNL     1       7.508   0.334  18.614  0.00  0.00    +0.000 C 
ATOM     23  C   UNL     1       7.196   0.069  20.070  0.00  0.00    +0.000 C 
ATOM     24  C   UNL     1       5.703   0.315  20.303  0.00  0.00    +0.000 C 
ENDBRANCH  18  23
ENDBRANCH   1  18
TORSDOF 3
ENDMDL
MODEL 7
REMARK VINA RESULT:      -7.2      3.847      5.712
REMARK  Name = 
REMARK  3 active torsions:
REMARK  status: ('A' for Active; 'I' for Inactive)
REMARK    1  A    between atoms: C_5  and  C_7
REMARK    2  A    between atoms: C_7  and  C_8
REMARK    3  A    between atoms: C_14  and  C_18
REMARK                            x       y       z     vdW  Elec       q    Type
REMARK                         _______ _______ _______ _____ _____    ______ ____
ROOT
ATOM      1  C   UNL     1       6.768  -2.826  24.151  0.00  0.00    +0.000 C 
ATOM      2  C   UNL     1       5.657  -2.923  22.946  0.00  0.00    +0.000 C 
ATOM      3  C   UNL     1       7.445  -4.221  23.851  0.00  0.00    +0.000 C 
ATOM      4  C   UNL     1       6.132  -5.036  24.309  0.00  0.00    +0.000 C 
ATOM      5  C   UNL     1       5.804  -4.659  25.631  0.00  0.00    +0.000 C 
ATOM      6  C   UNL     1       6.036  -3.036  25.340  0.00  0.00    +0.000 C 
ATOM      7  C   UNL     1       6.562  -2.821  26.771  0.00  0.00    +0.000 C 
ATOM      8  C   UNL     1       5.550  -4.127  27.085  0.00  0.00    +0.000 C 
ATOM      9  C   UNL     1       4.293  -3.736  27.479  0.00  0.00    +0.000 C 
ATOM     10  C   UNL     1       7.021  -5.470  26.245  0.00  0.00    +0.000 C 
ATOM     11  C   UNL     1       8.240  -4.666  26.210  0.00  0.00    +0.000 C 
ATOM     12  C   UNL     1       8.590  -4.434  24.726  0.00  0.00    +0.000 C 
ATOM     13  C   UNL     1       9.580  -3.285  24.702  0.00  0.00    +0.000 C 
ATOM     14  O   UNL     1       9.274  -5.598  24.312  0.00  0.00    +0.000 OA
ENDROOT
BRANCH   6  15
ATOM     15  C   UNL     1       4.644  -2.489  25.388  0.00  0.00    +0.000 C 
ATOM     16  O   UNL     1       3.749  -2.986  24.821  0.00  0.00    +0.000 OA
ATOM     17  O   UNL     1       4.663  -1.149  25.656  0.00  0.00    +0.000 OA
ENDBRANCH   6  15
BRANCH   1  18
ATOM     18  C   UNL     1       7.510  -1.659  23.844  0.00  0.00    +0.000 C 
BRANCH  18  23
ATOM     19  O   UNL     1       8.654   2.051  22.216  0.00  0.00    +0.000 OA
ATOM     20  C   UNL     1       8.127   0.997  21.451  0.00  0.00    +0.000 C 
ATOM     21  C   UNL     1       9.271   0.008  21.180  0.00  0.00    +0.000 C 
ATOM     22  C   UNL     1       8.778  -1.392  21.649  0.00  0.00    +0.000 C 
ATOM     23  C   UNL     1       7.475  -1.200  22.393  0.00  0.00    +0.000 C 
ATOM     24  C   UNL     1       7.091   0.280  22.333  0.00  0.00    +0.000 C 
ENDBRANCH  18  23
ENDBRANCH   1  18
TORSDOF 3
ENDMDL
MODEL 8
REMARK VINA RESULT:      -7.2      5.159      8.041
REMARK  Name = 
REMARK  3 active torsions:
REMARK  status: ('A' for Active; 'I' for Inactive)
REMARK    1  A    between atoms: C_5  and  C_7
REMARK    2  A    between atoms: C_7  and  C_8
REMARK    3  A    between atoms: C_14  and  C_18
REMARK                            x       y       z     vdW  Elec       q    Type
REMARK                         _______ _______ _______ _____ _____    ______ ____
ROOT
ATOM      1  C   UNL     1       6.001  -3.918  24.811  0.00  0.00    +0.000 C 
ATOM      2  C   UNL     1       4.403  -3.538  24.803  0.00  0.00    +0.000 C 
ATOM      3  C   UNL     1       6.510  -2.453  24.517  0.00  0.00    +0.000 C 
ATOM      4  C   UNL     1       5.898  -2.462  23.027  0.00  0.00    +0.000 C 
ATOM      5  C   UNL     1       6.431  -3.569  22.326  0.00  0.00    +0.000 C 
ATOM      6  C   UNL     1       6.216  -4.616  23.603  0.00  0.00    +0.000 C 
ATOM      7  C   UNL     1       7.492  -5.391  23.225  0.00  0.00    +0.000 C 
ATOM      8  C   UNL     1       7.084  -4.845  21.688  0.00  0.00    +0.000 C 
ATOM      9  C   UNL     1       6.319  -5.751  20.993  0.00  0.00    +0.000 C 
ATOM     10  C   UNL     1       7.855  -2.885  22.178  0.00  0.00    +0.000 C 
ATOM     11  C   UNL     1       8.662  -3.122  23.371  0.00  0.00    +0.000 C 
ATOM     12  C   UNL     1       7.966  -2.401  24.543  0.00  0.00    +0.000 C 
ATOM     13  C   UNL     1       8.561  -2.986  25.809  0.00  0.00    +0.000 C 
ATOM     14  O   UNL     1       8.379  -1.054  24.457  0.00  0.00    +0.000 OA
ENDROOT
BRANCH   6  15
ATOM     15  C   UNL     1       5.110  -5.502  23.121  0.00  0.00    +0.000 C 
ATOM     16  O   UNL     1       4.100  -5.082  22.705  0.00  0.00    +0.000 OA
ATOM     17  O   UNL     1       5.180  -6.728  23.719  0.00  0.00    +0.000 OA
ENDBRANCH   6  15
BRANCH   1  18
ATOM     18  C   UNL     1       6.225  -4.442  26.107  0.00  0.00    +0.000 C 
BRANCH  18  23
ATOM     19  O   UNL     1       5.955  -7.639  28.833  0.00  0.00    +0.000 OA
ATOM     20  C   UNL     1       4.851  -6.873  28.423  0.00  0.00    +0.000 C 
ATOM     21  C   UNL     1       4.862  -5.574  29.244  0.00  0.00    +0.000 C 
ATOM     22  C   UNL     1       4.809  -4.397  28.227  0.00  0.00    +0.000 C 
ATOM     23  C   UNL     1       5.000  -4.973  26.841  0.00  0.00    +0.000 C 
ATOM     24  C   UNL     1       5.091  -6.496  26.952  0.00  0.00    +0.000 C 
ENDBRANCH  18  23
ENDBRANCH   1  18
TORSDOF 3
ENDMDL
MODEL 9
REMARK VINA RESULT:      -7.0      4.641      7.045
REMARK  Name = 
REMARK  3 active torsions:
REMARK  status: ('A' for Active; 'I' for Inactive)
REMARK    1  A    between atoms: C_5  and  C_7
REMARK    2  A    between atoms: C_7  and  C_8
REMARK    3  A    between atoms: C_14  and  C_18
REMARK                            x       y       z     vdW  Elec       q    Type
REMARK                         _______ _______ _______ _____ _____    ______ ____
ROOT
ATOM      1  C   UNL     1       6.781  -4.078  24.376  0.00  0.00    +0.000 C 
ATOM      2  C   UNL     1       7.659  -5.142  23.486  0.00  0.00    +0.000 C 
ATOM      3  C   UNL     1       6.975  -4.829  25.752  0.00  0.00    +0.000 C 
ATOM      4  C   UNL     1       6.088  -6.085  25.272  0.00  0.00    +0.000 C 
ATOM      5  C   UNL     1       4.815  -5.615  24.876  0.00  0.00    +0.000 C 
ATOM      6  C   UNL     1       5.437  -4.327  24.023  0.00  0.00    +0.000 C 
ATOM      7  C   UNL     1       4.229  -3.451  24.400  0.00  0.00    +0.000 C 
ATOM      8  C   UNL     1       3.461  -4.946  24.451  0.00  0.00    +0.000 C 
ATOM      9  C   UNL     1       2.863  -5.271  23.257  0.00  0.00    +0.000 C 
ATOM     10  C   UNL     1       4.365  -5.347  26.373  0.00  0.00    +0.000 C 
ATOM     11  C   UNL     1       4.824  -4.034  26.817  0.00  0.00    +0.000 C 
ATOM     12  C   UNL     1       6.366  -4.074  26.839  0.00  0.00    +0.000 C 
ATOM     13  C   UNL     1       6.823  -2.629  26.890  0.00  0.00    +0.000 C 
ATOM     14  O   UNL     1       6.711  -4.677  28.067  0.00  0.00    +0.000 OA
ENDROOT
BRANCH   6  15
ATOM     15  C   UNL     1       5.166  -4.711  22.602  0.00  0.00    +0.000 C 
ATOM     16  O   UNL     1       5.428  -5.767  22.171  0.00  0.00    +0.000 OA
ATOM     17  O   UNL     1       5.132  -3.603  21.803  0.00  0.00    +0.000 OA
ENDBRANCH   6  15
BRANCH   1  18
ATOM     18  C   UNL     1       7.455  -2.844  24.203  0.00  0.00    +0.000 C 
BRANCH  18  23
ATOM     19  O   UNL     1       8.832   0.394  21.892  0.00  0.00    +0.000 OA
ATOM     20  C   UNL     1       9.339  -0.911  21.779  0.00  0.00    +0.000 C 
ATOM     21  C   UNL     1      10.345  -1.115  22.924  0.00  0.00    +0.000 C 
ATOM     22  C   UNL     1       9.911  -2.404  23.681  0.00  0.00    +0.000 C 
ATOM     23  C   UNL     1       8.556  -2.820  23.152  0.00  0.00    +0.000 C 
ATOM     24  C   UNL     1       8.161  -1.869  22.019  0.00  0.00    +0.000 C 
ENDBRANCH  18  23
ENDBRANCH   1  18
TORSDOF 3
ENDMDL
