MODEL 1
REMARK VINA RESULT:      -6.8      0.000      0.000
REMARK  Name = 
REMARK  6 active torsions:
REMARK  status: ('A' for Active; 'I' for Inactive)
REMARK    1  A    between atoms: C_2  and  C_3
REMARK    2  A    between atoms: C_4  and  N_5
REMARK    3  A    between atoms: N_5  and  C_6
REMARK    4  A    between atoms: C_6  and  C_7
REMARK    5  A    between atoms: N_9  and  C_10
REMARK    6  A    between atoms: C_17  and  C_20
REMARK                            x       y       z     vdW  Elec       q    Type
REMARK                         _______ _______ _______ _____ _____    ______ ____
ROOT
ATOM      1  C   UNL     1       7.427   0.352  21.412  0.00  0.00    +0.000 C 
ATOM      2  C   UNL     1       6.934  -0.707  22.233  0.00  0.00    +0.000 C 
ATOM      3  C   UNL     1       7.266  -0.407  23.777  0.00  0.00    +0.000 C 
ATOM      4  C   UNL     1       8.582   0.534  23.508  0.00  0.00    +0.000 C 
ATOM      5  C   UNL     1       8.527   1.144  22.236  0.00  0.00    +0.000 C 
ATOM      6  O   UNL     1       8.618   2.507  21.887  0.00  0.00    +0.000 OA
ATOM      7  C   UNL     1       6.215   0.659  24.146  0.00  0.00    +0.000 C 
ENDROOT
BRANCH   4   8
ATOM      8  C   UNL     1       9.737  -0.146  24.250  0.00  0.00    +0.000 C 
ATOM      9  C   UNL     1       9.221  -0.651  25.579  0.00  0.00    +0.000 C 
ATOM     10  C   UNL     1      10.279  -1.264  23.404  0.00  0.00    +0.000 C 
ATOM     11  C   UNL     1      10.817   0.909  24.491  0.00  0.00    +0.000 C 
ENDBRANCH   4   8
BRANCH   1  13
ATOM     12  C   UNL     1       7.465   0.156  18.999  0.00  0.00    +0.000 C 
ATOM     13  C   UNL     1       7.083   0.870  20.186  0.00  0.00    +0.000 C 
ENDBRANCH   1  13
BRANCH   2  14
ATOM     14  N   UNL     1       7.105  -2.134  22.068  0.00  0.00    +0.000 NA
BRANCH  14  15
ATOM     15  C   UNL     1       5.881  -2.819  21.680  0.00  0.00    +0.000 C 
BRANCH  15  16
ATOM     16  C   UNL     1       5.357  -3.693  22.800  0.00  0.00    +0.000 C 
ATOM     17  O   UNL     1       4.363  -4.388  22.625  0.00  0.00    +0.000 OA
ATOM     18  N   UNL     1       6.150  -3.899  23.848  0.00  0.00    +0.000 NA
BRANCH  18  19
ATOM     19  C   UNL     1       6.634  -5.180  24.275  0.00  0.00    +0.000 C 
ATOM     20  C   UNL     1       6.648  -5.244  25.805  0.00  0.00    +0.000 C 
ATOM     21  C   UNL     1       7.955  -4.703  26.298  0.00  0.00    +0.000 C 
ATOM     22  C   UNL     1       8.980  -4.320  25.416  0.00  0.00    +0.000 C 
ATOM     23  N   UNL     1       8.852  -4.456  24.163  0.00  0.00    +0.000 NA
ATOM     24  C   UNL     1       8.050  -5.366  23.790  0.00  0.00    +0.000 C 
ENDBRANCH  18  19
ENDBRANCH  15  16
ENDBRANCH  14  15
ENDBRANCH   2  14
TORSDOF 6
ENDMDL
MODEL 2
REMARK VINA RESULT:      -6.6      2.260      6.352
REMARK  Name = 
REMARK  6 active torsions:
REMARK  status: ('A' for Active; 'I' for Inactive)
REMARK    1  A    between atoms: C_2  and  C_3
REMARK    2  A    between atoms: C_4  and  N_5
REMARK    3  A    between atoms: N_5  and  C_6
REMARK    4  A    between atoms: C_6  and  C_7
REMARK    5  A    between atoms: N_9  and  C_10
REMARK    6  A    between atoms: C_17  and  C_20
REMARK                            x       y       z     vdW  Elec       q    Type
REMARK                         _______ _______ _______ _____ _____    ______ ____
ROOT
ATOM      1  C   UNL     1       7.377  -4.993  23.491  0.00  0.00    +0.000 C 
ATOM      2  C   UNL     1       8.366  -4.038  23.875  0.00  0.00    +0.000 C 
ATOM      3  C   UNL     1       8.225  -3.699  25.441  0.00  0.00    +0.000 C 
ATOM      4  C   UNL     1       6.627  -4.049  25.566  0.00  0.00    +0.000 C 
ATOM      5  C   UNL     1       6.225  -4.977  24.581  0.00  0.00    +0.000 C 
ATOM      6  O   UNL     1       5.572  -6.219  24.728  0.00  0.00    +0.000 OA
ATOM      7  C   UNL     1       8.849  -4.939  26.111  0.00  0.00    +0.000 C 
ENDROOT
BRANCH   4   8
ATOM      8  C   UNL     1       5.960  -2.767  26.075  0.00  0.00    +0.000 C 
ATOM      9  C   UNL     1       5.087  -3.120  27.259  0.00  0.00    +0.000 C 
ATOM     10  C   UNL     1       7.022  -1.770  26.446  0.00  0.00    +0.000 C 
ATOM     11  C   UNL     1       5.088  -2.219  24.945  0.00  0.00    +0.000 C 
ENDBRANCH   4   8
BRANCH   1  13
ATOM     12  C   UNL     1       6.415  -5.701  21.385  0.00  0.00    +0.000 C 
ATOM     13  C   UNL     1       7.280  -5.946  22.506  0.00  0.00    +0.000 C 
ENDBRANCH   1  13
BRANCH   2  14
ATOM     14  N   UNL     1       8.714  -2.788  23.236  0.00  0.00    +0.000 NA
BRANCH  14  15
ATOM     15  C   UNL     1       7.888  -2.484  22.077  0.00  0.00    +0.000 C 
BRANCH  15  16
ATOM     16  C   UNL     1       7.324  -1.081  22.150  0.00  0.00    +0.000 C 
ATOM     17  O   UNL     1       7.615  -0.349  23.088  0.00  0.00    +0.000 OA
ATOM     18  N   UNL     1       6.756  -0.584  21.054  0.00  0.00    +0.000 NA
BRANCH  18  19
ATOM     19  C   UNL     1       7.199   0.589  20.358  0.00  0.00    +0.000 C 
ATOM     20  C   UNL     1       6.060   1.611  20.290  0.00  0.00    +0.000 C 
ATOM     21  C   UNL     1       5.232   1.331  19.075  0.00  0.00    +0.000 C 
ATOM     22  C   UNL     1       5.584   0.331  18.150  0.00  0.00    +0.000 C 
ATOM     23  N   UNL     1       6.645  -0.346  18.290  0.00  0.00    +0.000 NA
ATOM     24  C   UNL     1       7.574   0.218  18.945  0.00  0.00    +0.000 C 
ENDBRANCH  18  19
ENDBRANCH  15  16
ENDBRANCH  14  15
ENDBRANCH   2  14
TORSDOF 6
ENDMDL
MODEL 3
REMARK VINA RESULT:      -6.5      2.312      3.980
REMARK  Name = 
REMARK  6 active torsions:
REMARK  status: ('A' for Active; 'I' for Inactive)
REMARK    1  A    between atoms: C_2  and  C_3
REMARK    2  A    between atoms: C_4  and  N_5
REMARK    3  A    between atoms: N_5  and  C_6
REMARK    4  A    between atoms: C_6  and  C_7
REMARK    5  A    between atoms: N_9  and  C_10
REMARK    6  A    between atoms: C_17  and  C_20
REMARK                            x       y       z     vdW  Elec       q    Type
REMARK                         _______ _______ _______ _____ _____    ______ ____
ROOT
ATOM      1  C   UNL     1       7.428  -3.548  22.640  0.00  0.00    +0.000 C 
ATOM      2  C   UNL     1       8.124  -3.451  23.882  0.00  0.00    +0.000 C 
ATOM      3  C   UNL     1       8.220  -1.913  24.341  0.00  0.00    +0.000 C 
ATOM      4  C   UNL     1       8.133  -1.262  22.837  0.00  0.00    +0.000 C 
ATOM      5  C   UNL     1       7.461  -2.124  21.942  0.00  0.00    +0.000 C 
ATOM      6  O   UNL     1       6.343  -1.874  21.121  0.00  0.00    +0.000 OA
ATOM      7  C   UNL     1       6.799  -1.628  24.866  0.00  0.00    +0.000 C 
ENDROOT
BRANCH   4   8
ATOM      8  C   UNL     1       9.408  -0.430  22.670  0.00  0.00    +0.000 C 
ATOM      9  C   UNL     1       9.665   0.317  23.960  0.00  0.00    +0.000 C 
ATOM     10  C   UNL     1      10.551  -1.342  22.319  0.00  0.00    +0.000 C 
ATOM     11  C   UNL     1       9.163   0.571  21.541  0.00  0.00    +0.000 C 
ENDBRANCH   4   8
BRANCH   1  13
ATOM     12  C   UNL     1       7.204  -5.857  21.948  0.00  0.00    +0.000 C 
ATOM     13  C   UNL     1       6.681  -4.521  22.020  0.00  0.00    +0.000 C 
ENDBRANCH   1  13
BRANCH   2  14
ATOM     14  N   UNL     1       9.384  -4.050  24.264  0.00  0.00    +0.000 NA
BRANCH  14  15
ATOM     15  C   UNL     1       9.229  -5.289  25.012  0.00  0.00    +0.000 C 
BRANCH  15  16
ATOM     16  C   UNL     1       8.560  -5.049  26.349  0.00  0.00    +0.000 C 
ATOM     17  O   UNL     1       8.925  -4.122  27.063  0.00  0.00    +0.000 OA
ATOM     18  N   UNL     1       7.410  -5.673  26.586  0.00  0.00    +0.000 NA
BRANCH  18  19
ATOM     19  C   UNL     1       6.159  -5.022  26.850  0.00  0.00    +0.000 C 
ATOM     20  C   UNL     1       5.365  -5.826  27.883  0.00  0.00    +0.000 C 
ATOM     21  C   UNL     1       4.554  -6.863  27.168  0.00  0.00    +0.000 C 
ATOM     22  C   UNL     1       4.517  -6.938  25.764  0.00  0.00    +0.000 C 
ATOM     23  N   UNL     1       5.139  -6.101  25.046  0.00  0.00    +0.000 NA
ATOM     24  C   UNL     1       5.347  -4.968  25.580  0.00  0.00    +0.000 C 
ENDBRANCH  18  19
ENDBRANCH  15  16
ENDBRANCH  14  15
ENDBRANCH   2  14
TORSDOF 6
ENDMDL
MODEL 4
REMARK VINA RESULT:      -6.5      1.852      5.640
REMARK  Name = 
REMARK  6 active torsions:
REMARK  status: ('A' for Active; 'I' for Inactive)
REMARK    1  A    between atoms: C_2  and  C_3
REMARK    2  A    between atoms: C_4  and  N_5
REMARK    3  A    between atoms: N_5  and  C_6
REMARK    4  A    between atoms: C_6  and  C_7
REMARK    5  A    between atoms: N_9  and  C_10
REMARK    6  A    between atoms: C_17  and  C_20
REMARK                            x       y       z     vdW  Elec       q    Type
REMARK                         _______ _______ _______ _____ _____    ______ ____
ROOT
ATOM      1  C   UNL     1       5.361  -3.920  24.009  0.00  0.00    +0.000 C 
ATOM      2  C   UNL     1       6.166  -3.327  22.989  0.00  0.00    +0.000 C 
ATOM      3  C   UNL     1       7.593  -4.062  22.918  0.00  0.00    +0.000 C 
ATOM      4  C   UNL     1       7.624  -4.568  24.478  0.00  0.00    +0.000 C 
ATOM      5  C   UNL     1       6.319  -4.705  25.000  0.00  0.00    +0.000 C 
ATOM      6  O   UNL     1       5.706  -5.819  25.609  0.00  0.00    +0.000 OA
ATOM      7  C   UNL     1       7.258  -5.380  22.191  0.00  0.00    +0.000 C 
ENDROOT
BRANCH   4   8
ATOM      8  C   UNL     1       8.893  -3.963  25.086  0.00  0.00    +0.000 C 
ATOM      9  C   UNL     1       9.784  -5.092  25.554  0.00  0.00    +0.000 C 
ATOM     10  C   UNL     1       9.576  -3.108  24.055  0.00  0.00    +0.000 C 
ATOM     11  C   UNL     1       8.474  -3.114  26.286  0.00  0.00    +0.000 C 
ENDBRANCH   4   8
BRANCH   1  13
ATOM     12  C   UNL     1       3.259  -4.966  23.418  0.00  0.00    +0.000 C 
ATOM     13  C   UNL     1       4.010  -4.046  24.227  0.00  0.00    +0.000 C 
ENDBRANCH   1  13
BRANCH   2  14
ATOM     14  N   UNL     1       6.436  -1.927  22.749  0.00  0.00    +0.000 NA
BRANCH  14  15
ATOM     15  C   UNL     1       6.630  -1.611  21.342  0.00  0.00    +0.000 C 
BRANCH  15  16
ATOM     16  C   UNL     1       7.788  -0.657  21.143  0.00  0.00    +0.000 C 
ATOM     17  O   UNL     1       7.902  -0.038  20.091  0.00  0.00    +0.000 OA
ATOM     18  N   UNL     1       8.490  -0.303  22.216  0.00  0.00    +0.000 NA
BRANCH  18  19
ATOM     19  C   UNL     1       8.630   1.039  22.703  0.00  0.00    +0.000 C 
ATOM     20  C   UNL     1      10.110   1.432  22.721  0.00  0.00    +0.000 C 
ATOM     21  C   UNL     1      10.705   1.008  24.028  0.00  0.00    +0.000 C 
ATOM     22  C   UNL     1       9.924   0.441  25.051  0.00  0.00    +0.000 C 
ATOM     23  N   UNL     1       8.672   0.304  24.920  0.00  0.00    +0.000 NA
ATOM     24  C   UNL     1       8.112   1.113  24.118  0.00  0.00    +0.000 C 
ENDBRANCH  18  19
ENDBRANCH  15  16
ENDBRANCH  14  15
ENDBRANCH   2  14
TORSDOF 6
ENDMDL
MODEL 5
REMARK VINA RESULT:      -6.4      2.131      6.053
REMARK  Name = 
REMARK  6 active torsions:
REMARK  status: ('A' for Active; 'I' for Inactive)
REMARK    1  A    between atoms: C_2  and  C_3
REMARK    2  A    between atoms: C_4  and  N_5
REMARK    3  A    between atoms: N_5  and  C_6
REMARK    4  A    between atoms: C_6  and  C_7
REMARK    5  A    between atoms: N_9  and  C_10
REMARK    6  A    between atoms: C_17  and  C_20
REMARK                            x       y       z     vdW  Elec       q    Type
REMARK                         _______ _______ _______ _____ _____    ______ ____
ROOT
ATOM      1  C   UNL     1       6.699  -5.020  23.793  0.00  0.00    +0.000 C 
ATOM      2  C   UNL     1       7.952  -4.676  24.385  0.00  0.00    +0.000 C 
ATOM      3  C   UNL     1       7.722  -4.109  25.872  0.00  0.00    +0.000 C 
ATOM      4  C   UNL     1       6.196  -3.557  25.629  0.00  0.00    +0.000 C 
ATOM      5  C   UNL     1       5.554  -4.263  24.588  0.00  0.00    +0.000 C 
ATOM      6  O   UNL     1       4.324  -4.952  24.593  0.00  0.00    +0.000 OA
ATOM      7  C   UNL     1       7.444  -5.391  26.682  0.00  0.00    +0.000 C 
ENDROOT
BRANCH   4   8
ATOM      8  C   UNL     1       6.238  -2.062  25.956  0.00  0.00    +0.000 C 
ATOM      9  C   UNL     1       5.183  -1.771  27.000  0.00  0.00    +0.000 C 
ATOM     10  C   UNL     1       7.614  -1.700  26.443  0.00  0.00    +0.000 C 
ATOM     11  C   UNL     1       5.911  -1.297  24.673  0.00  0.00    +0.000 C 
ENDBRANCH   4   8
BRANCH   1  13
ATOM     12  C   UNL     1       6.378  -5.508  21.444  0.00  0.00    +0.000 C 
ATOM     13  C   UNL     1       6.295  -5.904  22.823  0.00  0.00    +0.000 C 
ENDBRANCH   1  13
BRANCH   2  14
ATOM     14  N   UNL     1       9.029  -3.887  23.830  0.00  0.00    +0.000 NA
BRANCH  14  15
ATOM     15  C   UNL     1       8.572  -2.852  22.914  0.00  0.00    +0.000 C 
BRANCH  15  16
ATOM     16  C   UNL     1       9.596  -1.745  22.773  0.00  0.00    +0.000 C 
ATOM     17  O   UNL     1      10.766  -2.016  22.531  0.00  0.00    +0.000 OA
ATOM     18  N   UNL     1       9.146  -0.501  22.635  0.00  0.00    +0.000 NA
BRANCH  18  19
ATOM     19  C   UNL     1       9.393   0.342  21.501  0.00  0.00    +0.000 C 
ATOM     20  C   UNL     1       9.504   1.801  21.955  0.00  0.00    +0.000 C 
ATOM     21  C   UNL     1       8.135   2.406  21.974  0.00  0.00    +0.000 C 
ATOM     22  C   UNL     1       7.003   1.698  21.530  0.00  0.00    +0.000 C 
ATOM     23  N   UNL     1       7.107   0.528  21.056  0.00  0.00    +0.000 NA
ATOM     24  C   UNL     1       8.232   0.242  20.542  0.00  0.00    +0.000 C 
ENDBRANCH  18  19
ENDBRANCH  15  16
ENDBRANCH  14  15
ENDBRANCH   2  14
TORSDOF 6
ENDMDL
MODEL 6
REMARK VINA RESULT:      -6.4      2.050      6.130
REMARK  Name = 
REMARK  6 active torsions:
REMARK  status: ('A' for Active; 'I' for Inactive)
REMARK    1  A    between atoms: C_2  and  C_3
REMARK    2  A    between atoms: C_4  and  N_5
REMARK    3  A    between atoms: N_5  and  C_6
REMARK    4  A    between atoms: C_6  and  C_7
REMARK    5  A    between atoms: N_9  and  C_10
REMARK    6  A    between atoms: C_17  and  C_20
REMARK                            x       y       z     vdW  Elec       q    Type
REMARK                         _______ _______ _______ _____ _____    ______ ____
ROOT
ATOM      1  C   UNL     1       6.299  -3.245  22.724  0.00  0.00    +0.000 C 
ATOM      2  C   UNL     1       7.571  -3.454  23.337  0.00  0.00    +0.000 C 
ATOM      3  C   UNL     1       7.619  -4.906  24.025  0.00  0.00    +0.000 C 
ATOM      4  C   UNL     1       6.005  -5.046  24.283  0.00  0.00    +0.000 C 
ATOM      5  C   UNL     1       5.268  -4.265  23.366  0.00  0.00    +0.000 C 
ATOM      6  O   UNL     1       4.234  -4.647  22.487  0.00  0.00    +0.000 OA
ATOM      7  C   UNL     1       7.804  -5.846  22.816  0.00  0.00    +0.000 C 
ENDROOT
BRANCH   4   8
ATOM      8  C   UNL     1       5.842  -5.248  25.793  0.00  0.00    +0.000 C 
ATOM      9  C   UNL     1       5.049  -6.515  26.022  0.00  0.00    +0.000 C 
ATOM     10  C   UNL     1       7.201  -5.321  26.432  0.00  0.00    +0.000 C 
ATOM     11  C   UNL     1       5.061  -4.053  26.339  0.00  0.00    +0.000 C 
ENDBRANCH   4   8
BRANCH   1  13
ATOM     12  C   UNL     1       6.701  -1.471  21.126  0.00  0.00    +0.000 C 
ATOM     13  C   UNL     1       5.840  -2.480  21.678  0.00  0.00    +0.000 C 
ENDBRANCH   1  13
BRANCH   2  14
ATOM     14  N   UNL     1       8.303  -2.578  24.225  0.00  0.00    +0.000 NA
BRANCH  14  15
ATOM     15  C   UNL     1       9.743  -2.618  24.016  0.00  0.00    +0.000 C 
BRANCH  15  16
ATOM     16  C   UNL     1      10.188  -1.559  23.028  0.00  0.00    +0.000 C 
ATOM     17  O   UNL     1      10.447  -1.867  21.871  0.00  0.00    +0.000 OA
ATOM     18  N   UNL     1      10.013  -0.284  23.367  0.00  0.00    +0.000 NA
BRANCH  18  19
ATOM     19  C   UNL     1       9.203   0.654  22.646  0.00  0.00    +0.000 C 
ATOM     20  C   UNL     1      10.048   1.869  22.250  0.00  0.00    +0.000 C 
ATOM     21  C   UNL     1      10.018   2.863  23.369  0.00  0.00    +0.000 C 
ATOM     22  C   UNL     1       9.228   2.666  24.516  0.00  0.00    +0.000 C 
ATOM     23  N   UNL     1       8.476   1.654  24.629  0.00  0.00    +0.000 NA
ATOM     24  C   UNL     1       8.085   1.137  23.537  0.00  0.00    +0.000 C 
ENDBRANCH  18  19
ENDBRANCH  15  16
ENDBRANCH  14  15
ENDBRANCH   2  14
TORSDOF 6
ENDMDL
MODEL 7
REMARK VINA RESULT:      -6.4      2.097      4.110
REMARK  Name = 
REMARK  6 active torsions:
REMARK  status: ('A' for Active; 'I' for Inactive)
REMARK    1  A    between atoms: C_2  and  C_3
REMARK    2  A    between atoms: C_4  and  N_5
REMARK    3  A    between atoms: N_5  and  C_6
REMARK    4  A    between atoms: C_6  and  C_7
REMARK    5  A    between atoms: N_9  and  C_10
REMARK    6  A    between atoms: C_17  and  C_20
REMARK                            x       y       z     vdW  Elec       q    Type
REMARK                         _______ _______ _______ _____ _____    ______ ____
ROOT
ATOM      1  C   UNL     1       8.206   1.219  24.611  0.00  0.00    +0.000 C 
ATOM      2  C   UNL     1       9.450   0.593  24.294  0.00  0.00    +0.000 C 
ATOM      3  C   UNL     1       9.781   0.786  22.733  0.00  0.00    +0.000 C 
ATOM      4  C   UNL     1       8.228   0.936  22.227  0.00  0.00    +0.000 C 
ATOM      5  C   UNL     1       7.394   1.414  23.262  0.00  0.00    +0.000 C 
ATOM      6  O   UNL     1       6.533   2.531  23.281  0.00  0.00    +0.000 OA
ATOM      7  C   UNL     1      10.253   2.253  22.666  0.00  0.00    +0.000 C 
ENDROOT
BRANCH   4   8
ATOM      8  C   UNL     1       8.017  -0.177  21.196  0.00  0.00    +0.000 C 
ATOM      9  C   UNL     1       7.626   0.458  19.880  0.00  0.00    +0.000 C 
ATOM     10  C   UNL     1       9.281  -0.981  21.071  0.00  0.00    +0.000 C 
ATOM     11  C   UNL     1       6.873  -1.060  21.696  0.00  0.00    +0.000 C 
ENDBRANCH   4   8
BRANCH   1  13
ATOM     12  C   UNL     1       6.936   0.903  26.648  0.00  0.00    +0.000 C 
ATOM     13  C   UNL     1       7.655   1.761  25.746  0.00  0.00    +0.000 C 
ENDBRANCH   1  13
BRANCH   2  14
ATOM     14  N   UNL     1       9.904  -0.739  24.626  0.00  0.00    +0.000 NA
BRANCH  14  15
ATOM     15  C   UNL     1       8.819  -1.701  24.758  0.00  0.00    +0.000 C 
BRANCH  15  16
ATOM     16  C   UNL     1       9.133  -2.992  24.031  0.00  0.00    +0.000 C 
ATOM     17  O   UNL     1      10.196  -3.568  24.232  0.00  0.00    +0.000 OA
ATOM     18  N   UNL     1       8.132  -3.612  23.412  0.00  0.00    +0.000 NA
BRANCH  18  19
ATOM     19  C   UNL     1       7.672  -4.936  23.714  0.00  0.00    +0.000 C 
ATOM     20  C   UNL     1       7.398  -5.699  22.415  0.00  0.00    +0.000 C 
ATOM     21  C   UNL     1       5.992  -5.422  21.980  0.00  0.00    +0.000 C 
ATOM     22  C   UNL     1       5.110  -4.656  22.763  0.00  0.00    +0.000 C 
ATOM     23  N   UNL     1       5.461  -4.201  23.891  0.00  0.00    +0.000 NA
ATOM     24  C   UNL     1       6.377  -4.851  24.484  0.00  0.00    +0.000 C 
ENDBRANCH  18  19
ENDBRANCH  15  16
ENDBRANCH  14  15
ENDBRANCH   2  14
TORSDOF 6
ENDMDL
MODEL 8
REMARK VINA RESULT:      -6.3      2.456      6.786
REMARK  Name = 
REMARK  6 active torsions:
REMARK  status: ('A' for Active; 'I' for Inactive)
REMARK    1  A    between atoms: C_2  and  C_3
REMARK    2  A    between atoms: C_4  and  N_5
REMARK    3  A    between atoms: N_5  and  C_6
REMARK    4  A    between atoms: C_6  and  C_7
REMARK    5  A    between atoms: N_9  and  C_10
REMARK    6  A    between atoms: C_17  and  C_20
REMARK                            x       y       z     vdW  Elec       q    Type
REMARK                         _______ _______ _______ _____ _____    ______ ____
ROOT
ATOM      1  C   UNL     1       7.386  -4.167  25.423  0.00  0.00    +0.000 C 
ATOM      2  C   UNL     1       6.641  -3.208  24.673  0.00  0.00    +0.000 C 
ATOM      3  C   UNL     1       5.066  -3.499  24.815  0.00  0.00    +0.000 C 
ATOM      4  C   UNL     1       5.198  -5.107  25.116  0.00  0.00    +0.000 C 
ATOM      5  C   UNL     1       6.451  -5.422  25.686  0.00  0.00    +0.000 C 
ATOM      6  O   UNL     1       6.749  -6.104  26.883  0.00  0.00    +0.000 OA
ATOM      7  C   UNL     1       4.751  -2.963  26.226  0.00  0.00    +0.000 C 
ENDROOT
BRANCH   4   8
ATOM      8  C   UNL     1       4.386  -5.802  24.019  0.00  0.00    +0.000 C 
ATOM      9  C   UNL     1       5.290  -6.033  22.828  0.00  0.00    +0.000 C 
ATOM     10  C   UNL     1       3.835  -7.094  24.556  0.00  0.00    +0.000 C 
ATOM     11  C   UNL     1       3.247  -4.864  23.620  0.00  0.00    +0.000 C 
ENDBRANCH   4   8
BRANCH   1  13
ATOM     12  C   UNL     1       9.686  -4.923  25.419  0.00  0.00    +0.000 C 
ATOM     13  C   UNL     1       8.619  -4.179  26.030  0.00  0.00    +0.000 C 
ENDBRANCH   1  13
BRANCH   2  14
ATOM     14  N   UNL     1       6.835  -2.780  23.305  0.00  0.00    +0.000 NA
BRANCH  14  15
ATOM     15  C   UNL     1       8.106  -3.211  22.742  0.00  0.00    +0.000 C 
BRANCH  15  16
ATOM     16  C   UNL     1       9.139  -2.106  22.795  0.00  0.00    +0.000 C 
ATOM     17  O   UNL     1      10.332  -2.380  22.856  0.00  0.00    +0.000 OA
ATOM     18  N   UNL     1       8.743  -0.873  22.490  0.00  0.00    +0.000 NA
BRANCH  18  19
ATOM     19  C   UNL     1       9.260  -0.087  21.407  0.00  0.00    +0.000 C 
ATOM     20  C   UNL     1       9.903   1.191  21.956  0.00  0.00    +0.000 C 
ATOM     21  C   UNL     1       8.848   2.247  22.080  0.00  0.00    +0.000 C 
ATOM     22  C   UNL     1       7.529   2.034  21.640  0.00  0.00    +0.000 C 
ATOM     23  N   UNL     1       7.191   0.949  21.081  0.00  0.00    +0.000 NA
ATOM     24  C   UNL     1       8.126   0.318  20.498  0.00  0.00    +0.000 C 
ENDBRANCH  18  19
ENDBRANCH  15  16
ENDBRANCH  14  15
ENDBRANCH   2  14
TORSDOF 6
ENDMDL
MODEL 9
REMARK VINA RESULT:      -6.2      2.323      6.369
REMARK  Name = 
REMARK  6 active torsions:
REMARK  status: ('A' for Active; 'I' for Inactive)
REMARK    1  A    between atoms: C_2  and  C_3
REMARK    2  A    between atoms: C_4  and  N_5
REMARK    3  A    between atoms: N_5  and  C_6
REMARK    4  A    between atoms: C_6  and  C_7
REMARK    5  A    between atoms: N_9  and  C_10
REMARK    6  A    between atoms: C_17  and  C_20
REMARK                            x       y       z     vdW  Elec       q    Type
REMARK                         _______ _______ _______ _____ _____    ______ ____
ROOT
ATOM      1  C   UNL     1       7.034  -5.233  23.109  0.00  0.00    +0.000 C 
ATOM      2  C   UNL     1       8.009  -4.304  23.583  0.00  0.00    +0.000 C 
ATOM      3  C   UNL     1       7.845  -4.094  25.168  0.00  0.00    +0.000 C 
ATOM      4  C   UNL     1       6.248  -4.464  25.243  0.00  0.00    +0.000 C 
ATOM      5  C   UNL     1       5.867  -5.313  24.181  0.00  0.00    +0.000 C 
ATOM      6  O   UNL     1       5.223  -6.567  24.218  0.00  0.00    +0.000 OA
ATOM      7  C   UNL     1       8.470  -5.379  25.746  0.00  0.00    +0.000 C 
ENDROOT
BRANCH   4   8
ATOM      8  C   UNL     1       5.564  -3.233  25.844  0.00  0.00    +0.000 C 
ATOM      9  C   UNL     1       6.554  -2.527  26.744  0.00  0.00    +0.000 C 
ATOM     10  C   UNL     1       5.089  -2.339  24.732  0.00  0.00    +0.000 C 
ATOM     11  C   UNL     1       4.378  -3.721  26.675  0.00  0.00    +0.000 C 
ENDBRANCH   4   8
BRANCH   1  13
ATOM     12  C   UNL     1       6.201  -5.722  20.889  0.00  0.00    +0.000 C 
ATOM     13  C   UNL     1       6.958  -6.104  22.049  0.00  0.00    +0.000 C 
ENDBRANCH   1  13
BRANCH   2  14
ATOM     14  N   UNL     1       8.355  -3.005  23.051  0.00  0.00    +0.000 NA
BRANCH  14  15
ATOM     15  C   UNL     1       9.074  -2.167  24.000  0.00  0.00    +0.000 C 
BRANCH  15  16
ATOM     16  C   UNL     1      10.143  -1.344  23.313  0.00  0.00    +0.000 C 
ATOM     17  O   UNL     1      10.695  -1.769  22.306  0.00  0.00    +0.000 OA
ATOM     18  N   UNL     1      10.253  -0.063  23.656  0.00  0.00    +0.000 NA
BRANCH  18  19
ATOM     19  C   UNL     1      10.082   1.046  22.763  0.00  0.00    +0.000 C 
ATOM     20  C   UNL     1      10.498   2.343  23.462  0.00  0.00    +0.000 C 
ATOM     21  C   UNL     1       9.318   2.893  24.201  0.00  0.00    +0.000 C 
ATOM     22  C   UNL     1       8.047   2.296  24.120  0.00  0.00    +0.000 C 
ATOM     23  N   UNL     1       7.842   1.288  23.381  0.00  0.00    +0.000 NA
ATOM     24  C   UNL     1       8.625   1.167  22.389  0.00  0.00    +0.000 C 
ENDBRANCH  18  19
ENDBRANCH  15  16
ENDBRANCH  14  15
ENDBRANCH   2  14
TORSDOF 6
ENDMDL
