MODEL 1
REMARK VINA RESULT:      -6.2      0.000      0.000
REMARK  Name = 
REMARK  5 active torsions:
REMARK  status: ('A' for Active; 'I' for Inactive)
REMARK    1  A    between atoms: C_2  and  C_3
REMARK    2  A    between atoms: C_3  and  N_19
REMARK    3  A    between atoms: C_8  and  N_9
REMARK    4  A    between atoms: N_12  and  C_15
REMARK    5  A    between atoms: N_19  and  C_20
REMARK                            x       y       z     vdW  Elec       q    Type
REMARK                         _______ _______ _______ _____ _____    ______ ____
ROOT
ATOM      1  C   UNL     1       7.805  -0.209  22.270  0.00  0.00    +0.000 C 
ATOM      2  C   UNL     1       8.756  -0.034  21.069  0.00  0.00    +0.000 C 
ATOM      3  C   UNL     1       7.941  -0.083  19.802  0.00  0.00    +0.000 C 
ATOM      4  C   UNL     1       6.570  -0.429  19.801  0.00  0.00    +0.000 C 
ATOM      5  C   UNL     1       6.164  -1.394  20.803  0.00  0.00    +0.000 C 
ATOM      6  C   UNL     1       6.938  -1.378  22.008  0.00  0.00    +0.000 C 
ATOM      7  F   UNL     1       6.211  -0.922  18.598  0.00  0.00    +0.000 F 
ENDROOT
BRANCH   6   8
ATOM      8  N   UNL     1       6.897  -2.443  22.842  0.00  0.00    +0.000 N 
ATOM      9  C   UNL     1       7.355  -3.742  22.244  0.00  0.00    +0.000 C 
ATOM     10  C   UNL     1       6.110  -4.293  21.550  0.00  0.00    +0.000 C 
ATOM     11  N   UNL     1       5.032  -4.424  22.405  0.00  0.00    +0.000 NA
ATOM     12  C   UNL     1       4.753  -3.472  23.332  0.00  0.00    +0.000 C 
ATOM     13  C   UNL     1       5.847  -2.586  23.835  0.00  0.00    +0.000 C 
BRANCH  11  14
ATOM     14  C   UNL     1       4.860  -5.758  22.859  0.00  0.00    +0.000 C 
ATOM     15  O   UNL     1       5.560  -5.979  24.053  0.00  0.00    +0.000 OA
ATOM     16  C   UNL     1       3.390  -6.052  23.110  0.00  0.00    +0.000 C 
ENDBRANCH  11  14
ENDBRANCH   6   8
BRANCH   1  18
ATOM     17  O   UNL     1       7.846   2.140  22.500  0.00  0.00    +0.000 OA
ATOM     18  C   UNL     1       6.939   1.067  22.337  0.00  0.00    +0.000 C 
ENDBRANCH   1  18
BRANCH   1  19
ATOM     19  N   UNL     1       8.561  -0.327  23.472  0.00  0.00    +0.000 NA
BRANCH  19  20
ATOM     20  C   UNL     1       9.898  -0.592  23.472  0.00  0.00    +0.000 C 
ATOM     21  C   UNL     1      10.338  -1.941  23.468  0.00  0.00    +0.000 C 
ATOM     22  C   UNL     1      10.770   0.469  24.096  0.00  0.00    +0.000 C 
ENDBRANCH  19  20
ENDBRANCH   1  19
TORSDOF 5
ENDMDL
MODEL 2
REMARK VINA RESULT:      -6.0      2.247      2.716
REMARK  Name = 
REMARK  5 active torsions:
REMARK  status: ('A' for Active; 'I' for Inactive)
REMARK    1  A    between atoms: C_2  and  C_3
REMARK    2  A    between atoms: C_3  and  N_19
REMARK    3  A    between atoms: C_8  and  N_9
REMARK    4  A    between atoms: N_12  and  C_15
REMARK    5  A    between atoms: N_19  and  C_20
REMARK                            x       y       z     vdW  Elec       q    Type
REMARK                         _______ _______ _______ _____ _____    ______ ____
ROOT
ATOM      1  C   UNL     1       8.150   0.992  22.932  0.00  0.00    +0.000 C 
ATOM      2  C   UNL     1       8.874   1.080  21.574  0.00  0.00    +0.000 C 
ATOM      3  C   UNL     1       8.037   0.373  20.539  0.00  0.00    +0.000 C 
ATOM      4  C   UNL     1       6.893  -0.383  20.884  0.00  0.00    +0.000 C 
ATOM      5  C   UNL     1       6.948  -1.060  22.162  0.00  0.00    +0.000 C 
ATOM      6  C   UNL     1       7.755  -0.415  23.155  0.00  0.00    +0.000 C 
ATOM      7  F   UNL     1       6.646  -1.317  19.942  0.00  0.00    +0.000 F 
ENDROOT
BRANCH   6   8
ATOM      8  N   UNL     1       8.172  -1.116  24.235  0.00  0.00    +0.000 N 
ATOM      9  C   UNL     1       9.289  -2.086  23.975  0.00  0.00    +0.000 C 
ATOM     10  C   UNL     1       8.582  -3.348  23.484  0.00  0.00    +0.000 C 
ATOM     11  N   UNL     1       7.636  -3.816  24.376  0.00  0.00    +0.000 NA
ATOM     12  C   UNL     1       6.812  -2.962  25.037  0.00  0.00    +0.000 C 
ATOM     13  C   UNL     1       7.241  -1.548  25.263  0.00  0.00    +0.000 C 
BRANCH  11  14
ATOM     14  C   UNL     1       8.120  -4.896  25.161  0.00  0.00    +0.000 C 
ATOM     15  O   UNL     1       9.245  -5.485  24.569  0.00  0.00    +0.000 OA
ATOM     16  C   UNL     1       8.512  -4.415  26.549  0.00  0.00    +0.000 C 
ENDBRANCH  11  14
ENDBRANCH   6   8
BRANCH   1  18
ATOM     17  O   UNL     1       7.341   3.155  22.448  0.00  0.00    +0.000 OA
ATOM     18  C   UNL     1       6.885   1.869  22.817  0.00  0.00    +0.000 C 
ENDBRANCH   1  18
BRANCH   1  19
ATOM     19  N   UNL     1       8.989   1.510  23.961  0.00  0.00    +0.000 NA
BRANCH  19  20
ATOM     20  C   UNL     1      10.326   1.709  23.784  0.00  0.00    +0.000 C 
ATOM     21  C   UNL     1      11.247   0.848  24.435  0.00  0.00    +0.000 C 
ATOM     22  C   UNL     1      10.735   3.126  23.465  0.00  0.00    +0.000 C 
ENDBRANCH  19  20
ENDBRANCH   1  19
TORSDOF 5
ENDMDL
MODEL 3
REMARK VINA RESULT:      -6.0      2.619      5.784
REMARK  Name = 
REMARK  5 active torsions:
REMARK  status: ('A' for Active; 'I' for Inactive)
REMARK    1  A    between atoms: C_2  and  C_3
REMARK    2  A    between atoms: C_3  and  N_19
REMARK    3  A    between atoms: C_8  and  N_9
REMARK    4  A    between atoms: N_12  and  C_15
REMARK    5  A    between atoms: N_19  and  C_20
REMARK                            x       y       z     vdW  Elec       q    Type
REMARK                         _______ _______ _______ _____ _____    ______ ____
ROOT
ATOM      1  C   UNL     1       7.421  -4.612  24.703  0.00  0.00    +0.000 C 
ATOM      2  C   UNL     1       6.090  -5.382  24.593  0.00  0.00    +0.000 C 
ATOM      3  C   UNL     1       6.035  -6.052  23.244  0.00  0.00    +0.000 C 
ATOM      4  C   UNL     1       6.997  -5.802  22.239  0.00  0.00    +0.000 C 
ATOM      5  C   UNL     1       7.544  -4.461  22.211  0.00  0.00    +0.000 C 
ATOM      6  C   UNL     1       7.587  -3.798  23.480  0.00  0.00    +0.000 C 
ATOM      7  F   UNL     1       6.477  -6.051  21.019  0.00  0.00    +0.000 F 
ENDROOT
BRANCH   6   8
ATOM      8  N   UNL     1       7.726  -2.453  23.526  0.00  0.00    +0.000 N 
ATOM      9  C   UNL     1       6.524  -1.670  23.084  0.00  0.00    +0.000 C 
ATOM     10  C   UNL     1       6.670  -1.588  21.564  0.00  0.00    +0.000 C 
ATOM     11  N   UNL     1       7.872  -1.033  21.169  0.00  0.00    +0.000 NA
ATOM     12  C   UNL     1       9.031  -1.345  21.803  0.00  0.00    +0.000 C 
ATOM     13  C   UNL     1       8.995  -1.813  23.223  0.00  0.00    +0.000 C 
BRANCH  11  14
ATOM     14  C   UNL     1       7.744   0.335  20.812  0.00  0.00    +0.000 C 
ATOM     15  O   UNL     1       8.927   1.039  21.081  0.00  0.00    +0.000 OA
ATOM     16  C   UNL     1       7.437   0.476  19.330  0.00  0.00    +0.000 C 
ENDBRANCH  11  14
ENDBRANCH   6   8
BRANCH   1  18
ATOM     17  O   UNL     1       9.753  -4.949  24.849  0.00  0.00    +0.000 OA
ATOM     18  C   UNL     1       8.541  -5.673  24.770  0.00  0.00    +0.000 C 
ENDBRANCH   1  18
BRANCH   1  19
ATOM     19  N   UNL     1       7.435  -3.839  25.900  0.00  0.00    +0.000 NA
BRANCH  19  20
ATOM     20  C   UNL     1       6.324  -3.667  26.672  0.00  0.00    +0.000 C 
ATOM     21  C   UNL     1       5.723  -2.384  26.746  0.00  0.00    +0.000 C 
ATOM     22  C   UNL     1       6.191  -4.615  27.838  0.00  0.00    +0.000 C 
ENDBRANCH  19  20
ENDBRANCH   1  19
TORSDOF 5
ENDMDL
MODEL 4
REMARK VINA RESULT:      -5.9      2.986      4.414
REMARK  Name = 
REMARK  5 active torsions:
REMARK  status: ('A' for Active; 'I' for Inactive)
REMARK    1  A    between atoms: C_2  and  C_3
REMARK    2  A    between atoms: C_3  and  N_19
REMARK    3  A    between atoms: C_8  and  N_9
REMARK    4  A    between atoms: N_12  and  C_15
REMARK    5  A    between atoms: N_19  and  C_20
REMARK                            x       y       z     vdW  Elec       q    Type
REMARK                         _______ _______ _______ _____ _____    ______ ____
ROOT
ATOM      1  C   UNL     1       7.766   0.901  21.755  0.00  0.00    +0.000 C 
ATOM      2  C   UNL     1       6.392   1.560  21.992  0.00  0.00    +0.000 C 
ATOM      3  C   UNL     1       6.327   2.029  23.423  0.00  0.00    +0.000 C 
ATOM      4  C   UNL     1       7.326   1.704  24.369  0.00  0.00    +0.000 C 
ATOM      5  C   UNL     1       7.956   0.411  24.199  0.00  0.00    +0.000 C 
ATOM      6  C   UNL     1       8.011  -0.064  22.849  0.00  0.00    +0.000 C 
ATOM      7  F   UNL     1       6.821   1.746  25.619  0.00  0.00    +0.000 F 
ENDROOT
BRANCH   6   8
ATOM      8  N   UNL     1       8.233  -1.377  22.611  0.00  0.00    +0.000 N 
ATOM      9  C   UNL     1       7.172  -2.308  23.124  0.00  0.00    +0.000 C 
ATOM     10  C   UNL     1       7.561  -2.552  24.582  0.00  0.00    +0.000 C 
ATOM     11  N   UNL     1       8.844  -3.043  24.720  0.00  0.00    +0.000 NA
ATOM     12  C   UNL     1       9.866  -2.559  23.966  0.00  0.00    +0.000 C 
ATOM     13  C   UNL     1       9.574  -1.936  22.639  0.00  0.00    +0.000 C 
BRANCH  11  14
ATOM     14  C   UNL     1       8.869  -4.449  24.915  0.00  0.00    +0.000 C 
ATOM     15  O   UNL     1      10.183  -4.936  24.908  0.00  0.00    +0.000 OA
ATOM     16  C   UNL     1       8.234  -4.816  26.246  0.00  0.00    +0.000 C 
ENDBRANCH  11  14
ENDBRANCH   6   8
BRANCH   1  18
ATOM     17  O   UNL     1      10.075   1.392  21.748  0.00  0.00    +0.000 OA
ATOM     18  C   UNL     1       8.816   2.030  21.823  0.00  0.00    +0.000 C 
ENDBRANCH   1  18
BRANCH   1  19
ATOM     19  N   UNL     1       7.800   0.305  20.461  0.00  0.00    +0.000 NA
BRANCH  19  20
ATOM     20  C   UNL     1       6.676   0.118  19.713  0.00  0.00    +0.000 C 
ATOM     21  C   UNL     1       5.983  -1.116  19.798  0.00  0.00    +0.000 C 
ATOM     22  C   UNL     1       6.605   0.921  18.437  0.00  0.00    +0.000 C 
ENDBRANCH  19  20
ENDBRANCH   1  19
TORSDOF 5
ENDMDL
MODEL 5
REMARK VINA RESULT:      -5.8      2.914      6.518
REMARK  Name = 
REMARK  5 active torsions:
REMARK  status: ('A' for Active; 'I' for Inactive)
REMARK    1  A    between atoms: C_2  and  C_3
REMARK    2  A    between atoms: C_3  and  N_19
REMARK    3  A    between atoms: C_8  and  N_9
REMARK    4  A    between atoms: N_12  and  C_15
REMARK    5  A    between atoms: N_19  and  C_20
REMARK                            x       y       z     vdW  Elec       q    Type
REMARK                         _______ _______ _______ _____ _____    ______ ____
ROOT
ATOM      1  C   UNL     1       8.329  -1.179  23.033  0.00  0.00    +0.000 C 
ATOM      2  C   UNL     1       6.948  -1.345  22.368  0.00  0.00    +0.000 C 
ATOM      3  C   UNL     1       7.031  -0.826  20.956  0.00  0.00    +0.000 C 
ATOM      4  C   UNL     1       8.169  -0.142  20.471  0.00  0.00    +0.000 C 
ATOM      5  C   UNL     1       8.878   0.668  21.440  0.00  0.00    +0.000 C 
ATOM      6  C   UNL     1       8.795   0.203  22.793  0.00  0.00    +0.000 C 
ATOM      7  F   UNL     1       7.830   0.664  19.443  0.00  0.00    +0.000 F 
ENDROOT
BRANCH   6   8
ATOM      8  N   UNL     1       9.093   1.047  23.808  0.00  0.00    +0.000 N 
ATOM      9  C   UNL     1       8.045   2.077  24.113  0.00  0.00    +0.000 C 
ATOM     10  C   UNL     1       8.344   3.215  23.137  0.00  0.00    +0.000 C 
ATOM     11  N   UNL     1       9.637   3.689  23.246  0.00  0.00    +0.000 NA
ATOM     12  C   UNL     1      10.684   2.841  23.418  0.00  0.00    +0.000 C 
ATOM     13  C   UNL     1      10.454   1.501  24.039  0.00  0.00    +0.000 C 
BRANCH  11  14
ATOM     14  C   UNL     1       9.714   4.883  24.011  0.00  0.00    +0.000 C 
ATOM     15  O   UNL     1      10.955   5.512  23.841  0.00  0.00    +0.000 OA
ATOM     16  C   UNL     1       8.626   5.859  23.591  0.00  0.00    +0.000 C 
ENDBRANCH  11  14
ENDBRANCH   6   8
BRANCH   1  18
ATOM     17  O   UNL     1      10.513  -2.074  23.014  0.00  0.00    +0.000 OA
ATOM     18  C   UNL     1       9.280  -2.171  22.330  0.00  0.00    +0.000 C 
ENDBRANCH   1  18
BRANCH   1  19
ATOM     19  N   UNL     1       8.243  -1.512  24.416  0.00  0.00    +0.000 NA
BRANCH  19  20
ATOM     20  C   UNL     1       7.224  -2.260  24.926  0.00  0.00    +0.000 C 
ATOM     21  C   UNL     1       6.290  -1.653  25.804  0.00  0.00    +0.000 C 
ATOM     22  C   UNL     1       7.501  -3.738  25.047  0.00  0.00    +0.000 C 
ENDBRANCH  19  20
ENDBRANCH   1  19
TORSDOF 5
ENDMDL
MODEL 6
REMARK VINA RESULT:      -5.8      2.536      6.041
REMARK  Name = 
REMARK  5 active torsions:
REMARK  status: ('A' for Active; 'I' for Inactive)
REMARK    1  A    between atoms: C_2  and  C_3
REMARK    2  A    between atoms: C_3  and  N_19
REMARK    3  A    between atoms: C_8  and  N_9
REMARK    4  A    between atoms: N_12  and  C_15
REMARK    5  A    between atoms: N_19  and  C_20
REMARK                            x       y       z     vdW  Elec       q    Type
REMARK                         _______ _______ _______ _____ _____    ______ ____
ROOT
ATOM      1  C   UNL     1       6.865  -4.180  25.161  0.00  0.00    +0.000 C 
ATOM      2  C   UNL     1       5.515  -4.743  24.674  0.00  0.00    +0.000 C 
ATOM      3  C   UNL     1       5.762  -5.584  23.447  0.00  0.00    +0.000 C 
ATOM      4  C   UNL     1       7.022  -5.632  22.809  0.00  0.00    +0.000 C 
ATOM      5  C   UNL     1       7.798  -4.410  22.853  0.00  0.00    +0.000 C 
ATOM      6  C   UNL     1       7.564  -3.586  24.002  0.00  0.00    +0.000 C 
ATOM      7  F   UNL     1       6.878  -5.972  21.511  0.00  0.00    +0.000 F 
ENDROOT
BRANCH   6   8
ATOM      8  N   UNL     1       7.938  -2.286  23.978  0.00  0.00    +0.000 N 
ATOM      9  C   UNL     1       7.079  -1.388  23.135  0.00  0.00    +0.000 C 
ATOM     10  C   UNL     1       7.655  -1.534  21.726  0.00  0.00    +0.000 C 
ATOM     11  N   UNL     1       9.002  -1.233  21.663  0.00  0.00    +0.000 NA
ATOM     12  C   UNL     1       9.858  -1.638  22.637  0.00  0.00    +0.000 C 
ATOM     13  C   UNL     1       9.339  -1.901  24.014  0.00  0.00    +0.000 C 
BRANCH  11  14
ATOM     14  C   UNL     1       9.242   0.078  21.174  0.00  0.00    +0.000 C 
ATOM     15  O   UNL     1       8.077   0.634  20.629  0.00  0.00    +0.000 OA
ATOM     16  C   UNL     1       9.722   0.987  22.294  0.00  0.00    +0.000 C 
ENDBRANCH  11  14
ENDBRANCH   6   8
BRANCH   1  18
ATOM     17  O   UNL     1       6.883  -5.969  26.700  0.00  0.00    +0.000 OA
ATOM     18  C   UNL     1       7.679  -5.379  25.692  0.00  0.00    +0.000 C 
ENDBRANCH   1  18
BRANCH   1  19
ATOM     19  N   UNL     1       6.648  -3.254  26.222  0.00  0.00    +0.000 NA
BRANCH  19  20
ATOM     20  C   UNL     1       5.405  -2.811  26.563  0.00  0.00    +0.000 C 
ATOM     21  C   UNL     1       4.964  -1.548  26.090  0.00  0.00    +0.000 C 
ATOM     22  C   UNL     1       4.859  -3.345  27.865  0.00  0.00    +0.000 C 
ENDBRANCH  19  20
ENDBRANCH   1  19
TORSDOF 5
ENDMDL
MODEL 7
REMARK VINA RESULT:      -5.7      2.907      6.425
REMARK  Name = 
REMARK  5 active torsions:
REMARK  status: ('A' for Active; 'I' for Inactive)
REMARK    1  A    between atoms: C_2  and  C_3
REMARK    2  A    between atoms: C_3  and  N_19
REMARK    3  A    between atoms: C_8  and  N_9
REMARK    4  A    between atoms: N_12  and  C_15
REMARK    5  A    between atoms: N_19  and  C_20
REMARK                            x       y       z     vdW  Elec       q    Type
REMARK                         _______ _______ _______ _____ _____    ______ ____
ROOT
ATOM      1  C   UNL     1       5.852  -4.027  24.795  0.00  0.00    +0.000 C 
ATOM      2  C   UNL     1       6.488  -5.391  25.134  0.00  0.00    +0.000 C 
ATOM      3  C   UNL     1       7.576  -5.170  26.154  0.00  0.00    +0.000 C 
ATOM      4  C   UNL     1       8.003  -3.877  26.533  0.00  0.00    +0.000 C 
ATOM      5  C   UNL     1       7.954  -2.869  25.494  0.00  0.00    +0.000 C 
ATOM      6  C   UNL     1       6.940  -3.069  24.502  0.00  0.00    +0.000 C 
ATOM      7  F   UNL     1       9.269  -3.918  26.997  0.00  0.00    +0.000 F 
ENDROOT
BRANCH   6   8
ATOM      8  N   UNL     1       7.029  -2.424  23.317  0.00  0.00    +0.000 N 
ATOM      9  C   UNL     1       8.166  -2.856  22.436  0.00  0.00    +0.000 C 
ATOM     10  C   UNL     1       9.353  -2.027  22.926  0.00  0.00    +0.000 C 
ATOM     11  N   UNL     1       9.110  -0.668  22.892  0.00  0.00    +0.000 NA
ATOM     12  C   UNL     1       7.909  -0.160  23.272  0.00  0.00    +0.000 C 
ATOM     13  C   UNL     1       6.686  -1.017  23.194  0.00  0.00    +0.000 C 
BRANCH  11  14
ATOM     14  C   UNL     1       9.680  -0.044  21.752  0.00  0.00    +0.000 C 
ATOM     15  O   UNL     1       8.814  -0.116  20.652  0.00  0.00    +0.000 OA
ATOM     16  C   UNL     1       9.969   1.422  22.032  0.00  0.00    +0.000 C 
ENDBRANCH  11  14
ENDBRANCH   6   8
BRANCH   1  18
ATOM     17  O   UNL     1       4.343  -2.435  25.664  0.00  0.00    +0.000 OA
ATOM     18  C   UNL     1       5.090  -3.569  26.056  0.00  0.00    +0.000 C 
ENDBRANCH   1  18
BRANCH   1  19
ATOM     19  N   UNL     1       4.931  -4.178  23.718  0.00  0.00    +0.000 NA
BRANCH  19  20
ATOM     20  C   UNL     1       4.800  -5.346  23.026  0.00  0.00    +0.000 C 
ATOM     21  C   UNL     1       5.614  -5.572  21.887  0.00  0.00    +0.000 C 
ATOM     22  C   UNL     1       3.442  -5.999  23.108  0.00  0.00    +0.000 C 
ENDBRANCH  19  20
ENDBRANCH   1  19
TORSDOF 5
ENDMDL
MODEL 8
REMARK VINA RESULT:      -5.7      3.172      4.308
REMARK  Name = 
REMARK  5 active torsions:
REMARK  status: ('A' for Active; 'I' for Inactive)
REMARK    1  A    between atoms: C_2  and  C_3
REMARK    2  A    between atoms: C_3  and  N_19
REMARK    3  A    between atoms: C_8  and  N_9
REMARK    4  A    between atoms: N_12  and  C_15
REMARK    5  A    between atoms: N_19  and  C_20
REMARK                            x       y       z     vdW  Elec       q    Type
REMARK                         _______ _______ _______ _____ _____    ______ ____
ROOT
ATOM      1  C   UNL     1       8.600  -1.390  23.377  0.00  0.00    +0.000 C 
ATOM      2  C   UNL     1       7.928  -0.058  23.767  0.00  0.00    +0.000 C 
ATOM      3  C   UNL     1       8.230   0.223  25.217  0.00  0.00    +0.000 C 
ATOM      4  C   UNL     1       8.864  -0.725  26.052  0.00  0.00    +0.000 C 
ATOM      5  C   UNL     1       8.564  -2.113  25.769  0.00  0.00    +0.000 C 
ATOM      6  C   UNL     1       8.255  -2.400  24.400  0.00  0.00    +0.000 C 
ATOM      7  F   UNL     1       8.548  -0.499  27.344  0.00  0.00    +0.000 F 
ENDROOT
BRANCH   6   8
ATOM      8  N   UNL     1       7.616  -3.550  24.086  0.00  0.00    +0.000 N 
ATOM      9  C   UNL     1       6.118  -3.458  24.036  0.00  0.00    +0.000 C 
ATOM     10  C   UNL     1       5.682  -3.663  25.487  0.00  0.00    +0.000 C 
ATOM     11  N   UNL     1       6.147  -4.847  26.025  0.00  0.00    +0.000 NA
ATOM     12  C   UNL     1       7.410  -5.281  25.778  0.00  0.00    +0.000 C 
ATOM     13  C   UNL     1       8.114  -4.839  24.535  0.00  0.00    +0.000 C 
BRANCH  11  14
ATOM     14  C   UNL     1       5.161  -5.868  26.022  0.00  0.00    +0.000 C 
ATOM     15  O   UNL     1       5.501  -6.900  26.908  0.00  0.00    +0.000 OA
ATOM     16  C   UNL     1       3.811  -5.310  26.441  0.00  0.00    +0.000 C 
ENDBRANCH  11  14
ENDBRANCH   6   8
BRANCH   1  18
ATOM     17  O   UNL     1      10.711  -2.298  22.839  0.00  0.00    +0.000 OA
ATOM     18  C   UNL     1      10.123  -1.139  23.396  0.00  0.00    +0.000 C 
ENDBRANCH   1  18
BRANCH   1  19
ATOM     19  N   UNL     1       8.203  -1.764  22.060  0.00  0.00    +0.000 NA
BRANCH  19  20
ATOM     20  C   UNL     1       7.424  -0.965  21.277  0.00  0.00    +0.000 C 
ATOM     21  C   UNL     1       6.129  -1.408  20.905  0.00  0.00    +0.000 C 
ATOM     22  C   UNL     1       8.172  -0.019  20.370  0.00  0.00    +0.000 C 
ENDBRANCH  19  20
ENDBRANCH   1  19
TORSDOF 5
ENDMDL
MODEL 9
REMARK VINA RESULT:      -5.7      2.129      3.349
REMARK  Name = 
REMARK  5 active torsions:
REMARK  status: ('A' for Active; 'I' for Inactive)
REMARK    1  A    between atoms: C_2  and  C_3
REMARK    2  A    between atoms: C_3  and  N_19
REMARK    3  A    between atoms: C_8  and  N_9
REMARK    4  A    between atoms: N_12  and  C_15
REMARK    5  A    between atoms: N_19  and  C_20
REMARK                            x       y       z     vdW  Elec       q    Type
REMARK                         _______ _______ _______ _____ _____    ______ ____
ROOT
ATOM      1  C   UNL     1       8.064  -0.126  22.559  0.00  0.00    +0.000 C 
ATOM      2  C   UNL     1       8.898   0.226  23.807  0.00  0.00    +0.000 C 
ATOM      3  C   UNL     1       9.948  -0.838  23.997  0.00  0.00    +0.000 C 
ATOM      4  C   UNL     1       9.966  -2.024  23.228  0.00  0.00    +0.000 C 
ATOM      5  C   UNL     1       8.670  -2.536  22.830  0.00  0.00    +0.000 C 
ATOM      6  C   UNL     1       7.652  -1.542  22.662  0.00  0.00    +0.000 C 
ATOM      7  F   UNL     1      10.600  -3.009  23.897  0.00  0.00    +0.000 F 
ENDROOT
BRANCH   6   8
ATOM      8  N   UNL     1       6.351  -1.914  22.655  0.00  0.00    +0.000 N 
ATOM      9  C   UNL     1       5.736  -2.118  24.009  0.00  0.00    +0.000 C 
ATOM     10  C   UNL     1       6.100  -3.558  24.372  0.00  0.00    +0.000 C 
ATOM     11  N   UNL     1       5.678  -4.473  23.427  0.00  0.00    +0.000 NA
ATOM     12  C   UNL     1       5.787  -4.211  22.099  0.00  0.00    +0.000 C 
ATOM     13  C   UNL     1       5.821  -2.793  21.626  0.00  0.00    +0.000 C 
BRANCH  11  14
ATOM     14  C   UNL     1       4.474  -5.124  23.803  0.00  0.00    +0.000 C 
ATOM     15  O   UNL     1       3.754  -5.542  22.675  0.00  0.00    +0.000 OA
ATOM     16  C   UNL     1       4.769  -6.346  24.656  0.00  0.00    +0.000 C 
ENDBRANCH  11  14
ENDBRANCH   6   8
BRANCH   1  18
ATOM     17  O   UNL     1       9.698   1.256  21.564  0.00  0.00    +0.000 OA
ATOM     18  C   UNL     1       8.995   0.050  21.341  0.00  0.00    +0.000 C 
ENDBRANCH   1  18
BRANCH   1  19
ATOM     19  N   UNL     1       6.964   0.773  22.443  0.00  0.00    +0.000 NA
BRANCH  19  20
ATOM     20  C   UNL     1       6.715   1.746  23.365  0.00  0.00    +0.000 C 
ATOM     21  C   UNL     1       5.680   1.552  24.315  0.00  0.00    +0.000 C 
ATOM     22  C   UNL     1       7.081   3.148  22.944  0.00  0.00    +0.000 C 
ENDBRANCH  19  20
ENDBRANCH   1  19
TORSDOF 5
ENDMDL
