MODEL 1
REMARK VINA RESULT:      -7.6      0.000      0.000
REMARK  Name = 
REMARK  4 active torsions:
REMARK  status: ('A' for Active; 'I' for Inactive)
REMARK    1  A    between atoms: N_8  and  C_11
REMARK    2  A    between atoms: C_11  and  N_12
REMARK    3  A    between atoms: N_20  and  C_21
REMARK    4  A    between atoms: C_29  and  C_33
REMARK                            x       y       z     vdW  Elec       q    Type
REMARK                         _______ _______ _______ _____ _____    ______ ____
ROOT
ATOM      1  N   UNL     1       8.903  -2.287  24.220  0.00  0.00    +0.000 NA
ATOM      2  C   UNL     1       7.562  -2.144  24.603  0.00  0.00    +0.000 C 
ATOM      3  C   UNL     1       6.832  -3.481  24.654  0.00  0.00    +0.000 C 
ATOM      4  N   UNL     1       7.505  -4.301  25.687  0.00  0.00    +0.000 N 
ATOM      5  C   UNL     1       8.969  -4.209  25.699  0.00  0.00    +0.000 C 
ATOM      6  C   UNL     1       9.388  -3.607  24.355  0.00  0.00    +0.000 C 
ATOM      7  C   UNL     1       6.847  -4.548  26.821  0.00  0.00    +0.000 C 
ATOM      8  O   UNL     1       7.342  -4.919  27.840  0.00  0.00    +0.000 OA
ATOM      9  N   UNL     1       5.547  -4.274  26.666  0.00  0.00    +0.000 NA
ENDROOT
BRANCH   9  10
ATOM     10  C   UNL     1       4.560  -5.339  26.801  0.00  0.00    +0.000 C 
ATOM     11  C   UNL     1       5.087  -6.560  26.032  0.00  0.00    +0.000 C 
ATOM     12  C   UNL     1       3.264  -4.875  26.062  0.00  0.00    +0.000 C 
ATOM     13  C   UNL     1       3.527  -3.915  24.997  0.00  0.00    +0.000 C 
ATOM     14  O   UNL     1       2.546  -5.980  25.671  0.00  0.00    +0.000 OA
ATOM     15  C   UNL     1       2.551  -7.017  26.571  0.00  0.00    +0.000 C 
ATOM     16  C   UNL     1       1.966  -6.547  27.943  0.00  0.00    +0.000 C 
ATOM     17  C   UNL     1       2.586  -5.352  28.308  0.00  0.00    +0.000 C 
ATOM     18  C   UNL     1       4.235  -5.654  28.152  0.00  0.00    +0.000 C 
ATOM     19  C   UNL     1       4.342  -4.534  29.242  0.00  0.00    +0.000 C 
ATOM     20  N   UNL     1       2.792  -4.729  29.576  0.00  0.00    +0.000 NA
ATOM     21  C   UNL     1       2.318  -3.371  29.549  0.00  0.00    +0.000 C 
ATOM     22  C   UNL     1       2.426  -4.230  27.230  0.00  0.00    +0.000 C 
BRANCH  18  23
ATOM     23  C   UNL     1       4.500  -6.938  28.765  0.00  0.00    +0.000 C 
ATOM     24  O   UNL     1       4.123  -6.972  29.926  0.00  0.00    +0.000 OA
ATOM     25  O   UNL     1       5.622  -7.519  28.381  0.00  0.00    +0.000 OA
ENDBRANCH  18  23
ENDBRANCH   9  10
BRANCH   1  26
ATOM     26  C   UNL     1       9.191  -1.737  22.972  0.00  0.00    +0.000 C 
BRANCH  26  34
ATOM     27  C   UNL     1       8.429   3.535  25.038  0.00  0.00    +0.000 C 
ATOM     28  N   UNL     1       7.560   3.312  23.900  0.00  0.00    +0.000 NA
ATOM     29  C   UNL     1       7.124   2.087  23.599  0.00  0.00    +0.000 C 
ATOM     30  O   UNL     1       6.035   1.671  23.858  0.00  0.00    +0.000 OA
ATOM     31  N   UNL     1       8.176   1.280  23.320  0.00  0.00    +0.000 N 
ATOM     32  C   UNL     1       9.346   1.346  24.178  0.00  0.00    +0.000 C 
ATOM     33  C   UNL     1      10.172   0.097  24.074  0.00  0.00    +0.000 C 
ATOM     34  N   UNL     1      10.020  -0.623  22.897  0.00  0.00    +0.000 NA
ATOM     35  C   UNL     1       9.711   0.200  21.782  0.00  0.00    +0.000 C 
ATOM     36  C   UNL     1       8.329   0.816  21.944  0.00  0.00    +0.000 C 
ENDBRANCH  26  34
ENDBRANCH   1  26
TORSDOF 4
ENDMDL
MODEL 2
REMARK VINA RESULT:      -7.6      2.019      2.513
REMARK  Name = 
REMARK  4 active torsions:
REMARK  status: ('A' for Active; 'I' for Inactive)
REMARK    1  A    between atoms: N_8  and  C_11
REMARK    2  A    between atoms: C_11  and  N_12
REMARK    3  A    between atoms: N_20  and  C_21
REMARK    4  A    between atoms: C_29  and  C_33
REMARK                            x       y       z     vdW  Elec       q    Type
REMARK                         _______ _______ _______ _____ _____    ______ ____
ROOT
ATOM      1  N   UNL     1       8.136  -2.142  23.717  0.00  0.00    +0.000 NA
ATOM      2  C   UNL     1       6.878  -2.042  24.328  0.00  0.00    +0.000 C 
ATOM      3  C   UNL     1       6.215  -3.403  24.507  0.00  0.00    +0.000 C 
ATOM      4  N   UNL     1       7.086  -4.192  25.408  0.00  0.00    +0.000 N 
ATOM      5  C   UNL     1       8.526  -4.050  25.164  0.00  0.00    +0.000 C 
ATOM      6  C   UNL     1       8.682  -3.444  23.767  0.00  0.00    +0.000 C 
ATOM      7  C   UNL     1       6.645  -4.453  26.639  0.00  0.00    +0.000 C 
ATOM      8  O   UNL     1       7.324  -4.799  27.557  0.00  0.00    +0.000 OA
ATOM      9  N   UNL     1       5.329  -4.224  26.714  0.00  0.00    +0.000 NA
ENDROOT
BRANCH   9  10
ATOM     10  C   UNL     1       4.419  -5.321  27.021  0.00  0.00    +0.000 C 
ATOM     11  C   UNL     1       4.881  -6.546  26.216  0.00  0.00    +0.000 C 
ATOM     12  C   UNL     1       3.011  -4.933  26.467  0.00  0.00    +0.000 C 
ATOM     13  C   UNL     1       3.075  -3.999  25.349  0.00  0.00    +0.000 C 
ATOM     14  O   UNL     1       2.292  -6.077  26.215  0.00  0.00    +0.000 OA
ATOM     15  C   UNL     1       2.472  -7.082  27.133  0.00  0.00    +0.000 C 
ATOM     16  C   UNL     1       2.072  -6.590  28.563  0.00  0.00    +0.000 C 
ATOM     17  C   UNL     1       2.687  -5.360  28.800  0.00  0.00    +0.000 C 
ATOM     18  C   UNL     1       4.307  -5.604  28.413  0.00  0.00    +0.000 C 
ATOM     19  C   UNL     1       4.524  -4.446  29.445  0.00  0.00    +0.000 C 
ATOM     20  N   UNL     1       3.049  -4.689  30.007  0.00  0.00    +0.000 NA
ATOM     21  C   UNL     1       2.518  -3.352  30.013  0.00  0.00    +0.000 C 
ATOM     22  C   UNL     1       2.325  -4.282  27.727  0.00  0.00    +0.000 C 
BRANCH  18  23
ATOM     23  C   UNL     1       4.714  -6.856  29.015  0.00  0.00    +0.000 C 
ATOM     24  O   UNL     1       4.649  -6.814  30.234  0.00  0.00    +0.000 OA
ATOM     25  O   UNL     1       5.694  -7.483  28.392  0.00  0.00    +0.000 OA
ENDBRANCH  18  23
ENDBRANCH   9  10
BRANCH   1  26
ATOM     26  C   UNL     1       8.182  -1.592  22.437  0.00  0.00    +0.000 C 
BRANCH  26  34
ATOM     27  C   UNL     1       4.851   1.685  19.148  0.00  0.00    +0.000 C 
ATOM     28  N   UNL     1       5.820   0.979  18.334  0.00  0.00    +0.000 NA
ATOM     29  C   UNL     1       6.304  -0.204  18.716  0.00  0.00    +0.000 C 
ATOM     30  O   UNL     1       5.942  -1.258  18.285  0.00  0.00    +0.000 OA
ATOM     31  N   UNL     1       6.959  -0.075  19.895  0.00  0.00    +0.000 N 
ATOM     32  C   UNL     1       6.352   0.731  20.939  0.00  0.00    +0.000 C 
ATOM     33  C   UNL     1       6.898   0.376  22.292  0.00  0.00    +0.000 C 
ATOM     34  N   UNL     1       8.156  -0.209  22.293  0.00  0.00    +0.000 NA
ATOM     35  C   UNL     1       8.972   0.232  21.216  0.00  0.00    +0.000 C 
ATOM     36  C   UNL     1       8.408  -0.257  19.890  0.00  0.00    +0.000 C 
ENDBRANCH  26  34
ENDBRANCH   1  26
TORSDOF 4
ENDMDL
MODEL 3
REMARK VINA RESULT:      -7.6      2.480      8.542
REMARK  Name = 
REMARK  4 active torsions:
REMARK  status: ('A' for Active; 'I' for Inactive)
REMARK    1  A    between atoms: N_8  and  C_11
REMARK    2  A    between atoms: C_11  and  N_12
REMARK    3  A    between atoms: N_20  and  C_21
REMARK    4  A    between atoms: C_29  and  C_33
REMARK                            x       y       z     vdW  Elec       q    Type
REMARK                         _______ _______ _______ _____ _____    ______ ____
ROOT
ATOM      1  N   UNL     1       6.861  -5.163  26.019  0.00  0.00    +0.000 NA
ATOM      2  C   UNL     1       6.273  -4.038  25.425  0.00  0.00    +0.000 C 
ATOM      3  C   UNL     1       6.976  -2.744  25.820  0.00  0.00    +0.000 C 
ATOM      4  N   UNL     1       8.365  -2.838  25.318  0.00  0.00    +0.000 N 
ATOM      5  C   UNL     1       8.999  -4.151  25.477  0.00  0.00    +0.000 C 
ATOM      6  C   UNL     1       8.166  -4.924  26.504  0.00  0.00    +0.000 C 
ATOM      7  C   UNL     1       8.721  -2.050  24.302  0.00  0.00    +0.000 C 
ATOM      8  O   UNL     1       9.674  -2.211  23.603  0.00  0.00    +0.000 OA
ATOM      9  N   UNL     1       7.824  -1.070  24.145  0.00  0.00    +0.000 NA
ENDROOT
BRANCH   9  10
ATOM     10  C   UNL     1       8.230   0.319  24.316  0.00  0.00    +0.000 C 
ATOM     11  C   UNL     1       9.202   0.375  25.505  0.00  0.00    +0.000 C 
ATOM     12  C   UNL     1       6.964   1.131  24.740  0.00  0.00    +0.000 C 
ATOM     13  C   UNL     1       5.963   0.314  25.416  0.00  0.00    +0.000 C 
ATOM     14  O   UNL     1       7.356   2.248  25.438  0.00  0.00    +0.000 OA
ATOM     15  C   UNL     1       8.493   2.852  24.963  0.00  0.00    +0.000 C 
ATOM     16  C   UNL     1       8.299   3.282  23.473  0.00  0.00    +0.000 C 
ATOM     17  C   UNL     1       7.778   2.201  22.760  0.00  0.00    +0.000 C 
ATOM     18  C   UNL     1       8.784   0.906  23.141  0.00  0.00    +0.000 C 
ATOM     19  C   UNL     1       8.318   0.388  21.739  0.00  0.00    +0.000 C 
ATOM     20  N   UNL     1       7.819   1.860  21.374  0.00  0.00    +0.000 NA
ATOM     21  C   UNL     1       6.491   1.603  20.884  0.00  0.00    +0.000 C 
ATOM     22  C   UNL     1       6.435   1.670  23.359  0.00  0.00    +0.000 C 
BRANCH  18  23
ATOM     23  C   UNL     1      10.150   1.374  23.043  0.00  0.00    +0.000 C 
ATOM     24  O   UNL     1      10.428   1.724  21.906  0.00  0.00    +0.000 OA
ATOM     25  O   UNL     1      11.016   0.732  23.805  0.00  0.00    +0.000 OA
ENDBRANCH  18  23
ENDBRANCH   9  10
BRANCH   1  26
ATOM     26  C   UNL     1       6.047  -5.789  26.963  0.00  0.00    +0.000 C 
BRANCH  26  34
ATOM     27  C   UNL     1       1.841  -5.614  23.099  0.00  0.00    +0.000 C 
ATOM     28  N   UNL     1       1.455  -4.890  24.294  0.00  0.00    +0.000 NA
ATOM     29  C   UNL     1       2.371  -4.307  25.069  0.00  0.00    +0.000 C 
ATOM     30  O   UNL     1       2.621  -3.139  25.066  0.00  0.00    +0.000 OA
ATOM     31  N   UNL     1       3.220  -5.242  25.561  0.00  0.00    +0.000 N 
ATOM     32  C   UNL     1       3.709  -6.273  24.663  0.00  0.00    +0.000 C 
ATOM     33  C   UNL     1       4.978  -6.890  25.178  0.00  0.00    +0.000 C 
ATOM     34  N   UNL     1       5.176  -6.791  26.548  0.00  0.00    +0.000 NA
ATOM     35  C   UNL     1       3.962  -6.782  27.284  0.00  0.00    +0.000 C 
ATOM     36  C   UNL     1       3.176  -5.511  26.995  0.00  0.00    +0.000 C 
ENDBRANCH  26  34
ENDBRANCH   1  26
TORSDOF 4
ENDMDL
MODEL 4
REMARK VINA RESULT:      -7.5      2.286      8.685
REMARK  Name = 
REMARK  4 active torsions:
REMARK  status: ('A' for Active; 'I' for Inactive)
REMARK    1  A    between atoms: N_8  and  C_11
REMARK    2  A    between atoms: C_11  and  N_12
REMARK    3  A    between atoms: N_20  and  C_21
REMARK    4  A    between atoms: C_29  and  C_33
REMARK                            x       y       z     vdW  Elec       q    Type
REMARK                         _______ _______ _______ _____ _____    ______ ____
ROOT
ATOM      1  N   UNL     1       7.008  -5.199  26.599  0.00  0.00    +0.000 NA
ATOM      2  C   UNL     1       6.786  -3.815  26.622  0.00  0.00    +0.000 C 
ATOM      3  C   UNL     1       7.974  -3.032  26.076  0.00  0.00    +0.000 C 
ATOM      4  N   UNL     1       8.140  -3.432  24.660  0.00  0.00    +0.000 N 
ATOM      5  C   UNL     1       7.957  -4.863  24.392  0.00  0.00    +0.000 C 
ATOM      6  C   UNL     1       8.060  -5.584  25.738  0.00  0.00    +0.000 C 
ATOM      7  C   UNL     1       7.845  -2.538  23.715  0.00  0.00    +0.000 C 
ATOM      8  O   UNL     1       7.639  -2.789  22.567  0.00  0.00    +0.000 OA
ATOM      9  N   UNL     1       7.768  -1.314  24.249  0.00  0.00    +0.000 NA
ENDROOT
BRANCH   9  10
ATOM     10  C   UNL     1       8.694  -0.275  23.817  0.00  0.00    +0.000 C 
ATOM     11  C   UNL     1      10.072  -0.929  23.633  0.00  0.00    +0.000 C 
ATOM     12  C   UNL     1       8.840   0.743  24.993  0.00  0.00    +0.000 C 
ATOM     13  C   UNL     1       8.577   0.148  26.298  0.00  0.00    +0.000 C 
ATOM     14  O   UNL     1      10.053   1.382  24.891  0.00  0.00    +0.000 OA
ATOM     15  C   UNL     1      10.439   1.678  23.607  0.00  0.00    +0.000 C 
ATOM     16  C   UNL     1       9.375   2.593  22.916  0.00  0.00    +0.000 C 
ATOM     17  C   UNL     1       8.111   2.035  23.114  0.00  0.00    +0.000 C 
ATOM     18  C   UNL     1       8.270   0.425  22.650  0.00  0.00    +0.000 C 
ATOM     19  C   UNL     1       6.738   0.563  22.359  0.00  0.00    +0.000 C 
ATOM     20  N   UNL     1       6.889   2.153  22.386  0.00  0.00    +0.000 NA
ATOM     21  C   UNL     1       5.817   2.530  23.267  0.00  0.00    +0.000 C 
ATOM     22  C   UNL     1       7.766   1.834  24.626  0.00  0.00    +0.000 C 
BRANCH  18  23
ATOM     23  C   UNL     1       8.990   0.405  21.394  0.00  0.00    +0.000 C 
ATOM     24  O   UNL     1       8.265   0.683  20.452  0.00  0.00    +0.000 OA
ATOM     25  O   UNL     1       9.926  -0.522  21.301  0.00  0.00    +0.000 OA
ENDBRANCH  18  23
ENDBRANCH   9  10
BRANCH   1  26
ATOM     26  C   UNL     1       7.120  -5.770  27.867  0.00  0.00    +0.000 C 
BRANCH  26  34
ATOM     27  C   UNL     1       1.457  -5.088  28.212  0.00  0.00    +0.000 C 
ATOM     28  N   UNL     1       2.119  -4.320  29.248  0.00  0.00    +0.000 NA
ATOM     29  C   UNL     1       3.356  -3.853  29.071  0.00  0.00    +0.000 C 
ATOM     30  O   UNL     1       3.621  -2.724  28.784  0.00  0.00    +0.000 OA
ATOM     31  N   UNL     1       4.215  -4.884  28.884  0.00  0.00    +0.000 N 
ATOM     32  C   UNL     1       3.814  -5.968  28.006  0.00  0.00    +0.000 C 
ATOM     33  C   UNL     1       5.003  -6.736  27.504  0.00  0.00    +0.000 C 
ATOM     34  N   UNL     1       6.140  -6.659  28.297  0.00  0.00    +0.000 NA
ATOM     35  C   UNL     1       5.843  -6.500  29.677  0.00  0.00    +0.000 C 
ATOM     36  C   UNL     1       5.202  -5.142  29.928  0.00  0.00    +0.000 C 
ENDBRANCH  26  34
ENDBRANCH   1  26
TORSDOF 4
ENDMDL
MODEL 5
REMARK VINA RESULT:      -7.5      2.643      4.536
REMARK  Name = 
REMARK  4 active torsions:
REMARK  status: ('A' for Active; 'I' for Inactive)
REMARK    1  A    between atoms: N_8  and  C_11
REMARK    2  A    between atoms: C_11  and  N_12
REMARK    3  A    between atoms: N_20  and  C_21
REMARK    4  A    between atoms: C_29  and  C_33
REMARK                            x       y       z     vdW  Elec       q    Type
REMARK                         _______ _______ _______ _____ _____    ______ ____
ROOT
ATOM      1  N   UNL     1       9.061   2.166  24.309  0.00  0.00    +0.000 NA
ATOM      2  C   UNL     1       7.901   1.437  24.013  0.00  0.00    +0.000 C 
ATOM      3  C   UNL     1       8.215   0.035  23.504  0.00  0.00    +0.000 C 
ATOM      4  N   UNL     1       8.918  -0.673  24.598  0.00  0.00    +0.000 N 
ATOM      5  C   UNL     1       9.903   0.132  25.330  0.00  0.00    +0.000 C 
ATOM      6  C   UNL     1      10.209   1.356  24.463  0.00  0.00    +0.000 C 
ATOM      7  C   UNL     1       8.276  -1.662  25.222  0.00  0.00    +0.000 C 
ATOM      8  O   UNL     1       8.570  -2.114  26.285  0.00  0.00    +0.000 OA
ATOM      9  N   UNL     1       7.217  -2.048  24.501  0.00  0.00    +0.000 NA
ENDROOT
BRANCH   9  10
ATOM     10  C   UNL     1       7.151  -3.409  23.982  0.00  0.00    +0.000 C 
ATOM     11  C   UNL     1       8.580  -3.834  23.611  0.00  0.00    +0.000 C 
ATOM     12  C   UNL     1       6.340  -3.364  22.647  0.00  0.00    +0.000 C 
ATOM     13  C   UNL     1       6.404  -2.066  21.985  0.00  0.00    +0.000 C 
ATOM     14  O   UNL     1       6.709  -4.427  21.858  0.00  0.00    +0.000 OA
ATOM     15  C   UNL     1       6.941  -5.595  22.541  0.00  0.00    +0.000 C 
ATOM     16  C   UNL     1       5.662  -6.027  23.330  0.00  0.00    +0.000 C 
ATOM     17  C   UNL     1       5.187  -4.927  24.045  0.00  0.00    +0.000 C 
ATOM     18  C   UNL     1       6.528  -4.333  24.870  0.00  0.00    +0.000 C 
ATOM     19  C   UNL     1       5.438  -3.815  25.868  0.00  0.00    +0.000 C 
ATOM     20  N   UNL     1       4.384  -4.825  25.222  0.00  0.00    +0.000 NA
ATOM     21  C   UNL     1       3.260  -3.959  24.986  0.00  0.00    +0.000 C 
ATOM     22  C   UNL     1       4.879  -3.695  23.132  0.00  0.00    +0.000 C 
BRANCH  18  23
ATOM     23  C   UNL     1       7.210  -5.465  25.461  0.00  0.00    +0.000 C 
ATOM     24  O   UNL     1       6.530  -6.006  26.320  0.00  0.00    +0.000 OA
ATOM     25  O   UNL     1       8.516  -5.323  25.595  0.00  0.00    +0.000 OA
ENDBRANCH  18  23
ENDBRANCH   9  10
BRANCH   1  26
ATOM     26  C   UNL     1       9.280   3.244  23.452  0.00  0.00    +0.000 C 
BRANCH  26  34
ATOM     27  C   UNL     1       4.872   5.859  25.979  0.00  0.00    +0.000 C 
ATOM     28  N   UNL     1       4.617   5.705  24.560  0.00  0.00    +0.000 NA
ATOM     29  C   UNL     1       5.155   4.696  23.872  0.00  0.00    +0.000 C 
ATOM     30  O   UNL     1       4.574   3.700  23.560  0.00  0.00    +0.000 OA
ATOM     31  N   UNL     1       6.508   4.779  23.915  0.00  0.00    +0.000 N 
ATOM     32  C   UNL     1       7.142   5.094  25.183  0.00  0.00    +0.000 C 
ATOM     33  C   UNL     1       8.579   4.659  25.199  0.00  0.00    +0.000 C 
ATOM     34  N   UNL     1       9.179   4.538  23.954  0.00  0.00    +0.000 NA
ATOM     35  C   UNL     1       8.652   5.444  22.995  0.00  0.00    +0.000 C 
ATOM     36  C   UNL     1       7.207   5.093  22.673  0.00  0.00    +0.000 C 
ENDBRANCH  26  34
ENDBRANCH   1  26
TORSDOF 4
ENDMDL
MODEL 6
REMARK VINA RESULT:      -7.1      2.449      3.822
REMARK  Name = 
REMARK  4 active torsions:
REMARK  status: ('A' for Active; 'I' for Inactive)
REMARK    1  A    between atoms: N_8  and  C_11
REMARK    2  A    between atoms: C_11  and  N_12
REMARK    3  A    between atoms: N_20  and  C_21
REMARK    4  A    between atoms: C_29  and  C_33
REMARK                            x       y       z     vdW  Elec       q    Type
REMARK                         _______ _______ _______ _____ _____    ______ ____
ROOT
ATOM      1  N   UNL     1       7.132   0.103  23.911  0.00  0.00    +0.000 NA
ATOM      2  C   UNL     1       6.915  -1.270  23.727  0.00  0.00    +0.000 C 
ATOM      3  C   UNL     1       6.800  -2.017  25.051  0.00  0.00    +0.000 C 
ATOM      4  N   UNL     1       5.617  -1.470  25.754  0.00  0.00    +0.000 N 
ATOM      5  C   UNL     1       5.455  -0.015  25.661  0.00  0.00    +0.000 C 
ATOM      6  C   UNL     1       6.803   0.554  25.209  0.00  0.00    +0.000 C 
ATOM      7  C   UNL     1       4.542  -2.250  25.875  0.00  0.00    +0.000 C 
ATOM      8  O   UNL     1       3.440  -1.873  26.133  0.00  0.00    +0.000 OA
ATOM      9  N   UNL     1       4.866  -3.522  25.619  0.00  0.00    +0.000 NA
ENDROOT
BRANCH   9  10
ATOM     10  C   UNL     1       4.725  -4.530  26.663  0.00  0.00    +0.000 C 
ATOM     11  C   UNL     1       5.256  -3.923  27.970  0.00  0.00    +0.000 C 
ATOM     12  C   UNL     1       5.678  -5.715  26.304  0.00  0.00    +0.000 C 
ATOM     13  C   UNL     1       6.815  -5.305  25.487  0.00  0.00    +0.000 C 
ATOM     14  O   UNL     1       6.014  -6.389  27.454  0.00  0.00    +0.000 OA
ATOM     15  C   UNL     1       4.996  -6.513  28.366  0.00  0.00    +0.000 C 
ATOM     16  C   UNL     1       3.783  -7.265  27.727  0.00  0.00    +0.000 C 
ATOM     17  C   UNL     1       3.497  -6.682  26.492  0.00  0.00    +0.000 C 
ATOM     18  C   UNL     1       3.397  -5.031  26.803  0.00  0.00    +0.000 C 
ATOM     19  C   UNL     1       2.456  -5.052  25.553  0.00  0.00    +0.000 C 
ATOM     20  N   UNL     1       2.303  -6.634  25.710  0.00  0.00    +0.000 NA
ATOM     21  C   UNL     1       2.565  -7.085  24.370  0.00  0.00    +0.000 C 
ATOM     22  C   UNL     1       4.721  -6.689  25.519  0.00  0.00    +0.000 C 
BRANCH  18  23
ATOM     23  C   UNL     1       2.596  -4.862  27.997  0.00  0.00    +0.000 C 
ATOM     24  O   UNL     1       1.459  -5.279  27.841  0.00  0.00    +0.000 OA
ATOM     25  O   UNL     1       2.847  -3.765  28.687  0.00  0.00    +0.000 OA
ENDBRANCH  18  23
ENDBRANCH   9  10
BRANCH   1  26
ATOM     26  C   UNL     1       8.394   0.531  23.501  0.00  0.00    +0.000 C 
BRANCH  26  34
ATOM     27  C   UNL     1       5.198   1.358  18.837  0.00  0.00    +0.000 C 
ATOM     28  N   UNL     1       6.047   0.196  18.664  0.00  0.00    +0.000 NA
ATOM     29  C   UNL     1       6.440  -0.529  19.712  0.00  0.00    +0.000 C 
ATOM     30  O   UNL     1       5.956  -1.572  20.037  0.00  0.00    +0.000 OA
ATOM     31  N   UNL     1       7.172   0.239  20.555  0.00  0.00    +0.000 N 
ATOM     32  C   UNL     1       6.705   1.582  20.849  0.00  0.00    +0.000 C 
ATOM     33  C   UNL     1       7.293   2.098  22.131  0.00  0.00    +0.000 C 
ATOM     34  N   UNL     1       8.490   1.510  22.517  0.00  0.00    +0.000 NA
ATOM     35  C   UNL     1       9.278   1.084  21.415  0.00  0.00    +0.000 C 
ATOM     36  C   UNL     1       8.595  -0.063  20.685  0.00  0.00    +0.000 C 
ENDBRANCH  26  34
ENDBRANCH   1  26
TORSDOF 4
ENDMDL
MODEL 7
REMARK VINA RESULT:      -6.6      2.385      8.884
REMARK  Name = 
REMARK  4 active torsions:
REMARK  status: ('A' for Active; 'I' for Inactive)
REMARK    1  A    between atoms: N_8  and  C_11
REMARK    2  A    between atoms: C_11  and  N_12
REMARK    3  A    between atoms: N_20  and  C_21
REMARK    4  A    between atoms: C_29  and  C_33
REMARK                            x       y       z     vdW  Elec       q    Type
REMARK                         _______ _______ _______ _____ _____    ______ ____
ROOT
ATOM      1  N   UNL     1       8.670  -2.517  23.564  0.00  0.00    +0.000 NA
ATOM      2  C   UNL     1       7.796  -1.736  24.332  0.00  0.00    +0.000 C 
ATOM      3  C   UNL     1       8.327  -0.323  24.549  0.00  0.00    +0.000 C 
ATOM      4  N   UNL     1       8.432   0.309  23.215  0.00  0.00    +0.000 N 
ATOM      5  C   UNL     1       8.943  -0.563  22.151  0.00  0.00    +0.000 C 
ATOM      6  C   UNL     1       9.613  -1.756  22.839  0.00  0.00    +0.000 C 
ATOM      7  C   UNL     1       7.579   1.289  22.914  0.00  0.00    +0.000 C 
ATOM      8  O   UNL     1       7.337   1.682  21.814  0.00  0.00    +0.000 OA
ATOM      9  N   UNL     1       6.993   1.745  24.027  0.00  0.00    +0.000 NA
ENDROOT
BRANCH   9  10
ATOM     10  C   UNL     1       7.193   3.130  24.437  0.00  0.00    +0.000 C 
ATOM     11  C   UNL     1       8.634   3.518  24.071  0.00  0.00    +0.000 C 
ATOM     12  C   UNL     1       7.103   3.177  25.996  0.00  0.00    +0.000 C 
ATOM     13  C   UNL     1       7.455   1.910  26.626  0.00  0.00    +0.000 C 
ATOM     14  O   UNL     1       7.810   4.261  26.457  0.00  0.00    +0.000 OA
ATOM     15  C   UNL     1       7.709   5.387  25.679  0.00  0.00    +0.000 C 
ATOM     16  C   UNL     1       6.214   5.829  25.555  0.00  0.00    +0.000 C 
ATOM     17  C   UNL     1       5.446   4.716  25.211  0.00  0.00    +0.000 C 
ATOM     18  C   UNL     1       6.237   4.035  23.891  0.00  0.00    +0.000 C 
ATOM     19  C   UNL     1       4.801   3.512  23.550  0.00  0.00    +0.000 C 
ATOM     20  N   UNL     1       4.184   4.590  24.555  0.00  0.00    +0.000 NA
ATOM     21  C   UNL     1       3.292   3.779  25.338  0.00  0.00    +0.000 C 
ATOM     22  C   UNL     1       5.589   3.540  26.232  0.00  0.00    +0.000 C 
BRANCH  18  23
ATOM     23  C   UNL     1       6.575   5.113  22.985  0.00  0.00    +0.000 C 
ATOM     24  O   UNL     1       5.579   5.621  22.494  0.00  0.00    +0.000 OA
ATOM     25  O   UNL     1       7.679   4.927  22.284  0.00  0.00    +0.000 OA
ENDBRANCH  18  23
ENDBRANCH   9  10
BRANCH   1  26
ATOM     26  C   UNL     1       9.259  -3.562  24.274  0.00  0.00    +0.000 C 
BRANCH  26  34
ATOM     27  C   UNL     1       4.358  -6.218  25.528  0.00  0.00    +0.000 C 
ATOM     28  N   UNL     1       5.144  -6.022  26.730  0.00  0.00    +0.000 NA
ATOM     29  C   UNL     1       5.992  -4.998  26.835  0.00  0.00    +0.000 C 
ATOM     30  O   UNL     1       5.769  -3.990  27.436  0.00  0.00    +0.000 OA
ATOM     31  N   UNL     1       6.948  -5.091  25.879  0.00  0.00    +0.000 N 
ATOM     32  C   UNL     1       6.544  -5.446  24.530  0.00  0.00    +0.000 C 
ATOM     33  C   UNL     1       7.572  -5.021  23.521  0.00  0.00    +0.000 C 
ATOM     34  N   UNL     1       8.861  -4.869  24.011  0.00  0.00    +0.000 NA
ATOM     35  C   UNL     1       9.149  -5.743  25.093  0.00  0.00    +0.000 C 
ATOM     36  C   UNL     1       8.314  -5.374  26.310  0.00  0.00    +0.000 C 
ENDBRANCH  26  34
ENDBRANCH   1  26
TORSDOF 4
ENDMDL
MODEL 8
REMARK VINA RESULT:      -6.5      3.545      8.826
REMARK  Name = 
REMARK  4 active torsions:
REMARK  status: ('A' for Active; 'I' for Inactive)
REMARK    1  A    between atoms: N_8  and  C_11
REMARK    2  A    between atoms: C_11  and  N_12
REMARK    3  A    between atoms: N_20  and  C_21
REMARK    4  A    between atoms: C_29  and  C_33
REMARK                            x       y       z     vdW  Elec       q    Type
REMARK                         _______ _______ _______ _____ _____    ______ ____
ROOT
ATOM      1  N   UNL     1       8.148  -2.578  25.165  0.00  0.00    +0.000 NA
ATOM      2  C   UNL     1       7.025  -1.753  25.016  0.00  0.00    +0.000 C 
ATOM      3  C   UNL     1       7.266  -0.348  25.555  0.00  0.00    +0.000 C 
ATOM      4  N   UNL     1       8.360   0.241  24.750  0.00  0.00    +0.000 N 
ATOM      5  C   UNL     1       9.462  -0.674  24.432  0.00  0.00    +0.000 C 
ATOM      6  C   UNL     1       9.344  -1.861  25.392  0.00  0.00    +0.000 C 
ATOM      7  C   UNL     1       8.059   1.232  23.910  0.00  0.00    +0.000 C 
ATOM      8  O   UNL     1       8.738   1.597  23.000  0.00  0.00    +0.000 OA
ATOM      9  N   UNL     1       6.855   1.734  24.205  0.00  0.00    +0.000 NA
ENDROOT
BRANCH   9  10
ATOM     10  C   UNL     1       6.732   3.126  24.623  0.00  0.00    +0.000 C 
ATOM     11  C   UNL     1       8.009   3.492  25.396  0.00  0.00    +0.000 C 
ATOM     12  C   UNL     1       5.555   3.208  25.647  0.00  0.00    +0.000 C 
ATOM     13  C   UNL     1       5.321   1.951  26.349  0.00  0.00    +0.000 C 
ATOM     14  O   UNL     1       5.743   4.294  26.467  0.00  0.00    +0.000 OA
ATOM     15  C   UNL     1       6.254   5.404  25.842  0.00  0.00    +0.000 C 
ATOM     16  C   UNL     1       5.309   5.859  24.682  0.00  0.00    +0.000 C 
ATOM     17  C   UNL     1       4.994   4.746  23.900  0.00  0.00    +0.000 C 
ATOM     18  C   UNL     1       6.476   4.029  23.550  0.00  0.00    +0.000 C 
ATOM     19  C   UNL     1       5.705   3.513  22.289  0.00  0.00    +0.000 C 
ATOM     20  N   UNL     1       4.580   4.619  22.540  0.00  0.00    +0.000 NA
ATOM     21  C   UNL     1       3.378   3.833  22.455  0.00  0.00    +0.000 C 
ATOM     22  C   UNL     1       4.337   3.591  24.725  0.00  0.00    +0.000 C 
BRANCH  18  23
ATOM     23  C   UNL     1       7.385   5.083  23.151  0.00  0.00    +0.000 C 
ATOM     24  O   UNL     1       7.125   5.506  22.035  0.00  0.00    +0.000 OA
ATOM     25  O   UNL     1       8.629   4.934  23.567  0.00  0.00    +0.000 OA
ENDBRANCH  18  23
ENDBRANCH   9  10
BRANCH   1  26
ATOM     26  C   UNL     1       7.965  -3.615  26.079  0.00  0.00    +0.000 C 
BRANCH  26  34
ATOM     27  C   UNL     1       6.358  -5.967  21.127  0.00  0.00    +0.000 C 
ATOM     28  N   UNL     1       5.196  -5.660  21.936  0.00  0.00    +0.000 NA
ATOM     29  C   UNL     1       5.217  -4.656  22.814  0.00  0.00    +0.000 C 
ATOM     30  O   UNL     1       4.732  -3.580  22.629  0.00  0.00    +0.000 OA
ATOM     31  N   UNL     1       6.169  -4.884  23.752  0.00  0.00    +0.000 N 
ATOM     32  C   UNL     1       7.463  -5.378  23.317  0.00  0.00    +0.000 C 
ATOM     33  C   UNL     1       8.527  -5.099  24.340  0.00  0.00    +0.000 C 
ATOM     34  N   UNL     1       8.074  -4.931  25.641  0.00  0.00    +0.000 NA
ATOM     35  C   UNL     1       6.904  -5.685  25.922  0.00  0.00    +0.000 C 
ATOM     36  C   UNL     1       5.726  -5.157  25.116  0.00  0.00    +0.000 C 
ENDBRANCH  26  34
ENDBRANCH   1  26
TORSDOF 4
ENDMDL
MODEL 9
REMARK VINA RESULT:      -6.3      2.290      8.825
REMARK  Name = 
REMARK  4 active torsions:
REMARK  status: ('A' for Active; 'I' for Inactive)
REMARK    1  A    between atoms: N_8  and  C_11
REMARK    2  A    between atoms: C_11  and  N_12
REMARK    3  A    between atoms: N_20  and  C_21
REMARK    4  A    between atoms: C_29  and  C_33
REMARK                            x       y       z     vdW  Elec       q    Type
REMARK                         _______ _______ _______ _____ _____    ______ ____
ROOT
ATOM      1  N   UNL     1       5.247  -4.133  27.248  0.00  0.00    +0.000 NA
ATOM      2  C   UNL     1       5.328  -2.775  26.910  0.00  0.00    +0.000 C 
ATOM      3  C   UNL     1       6.737  -2.367  26.497  0.00  0.00    +0.000 C 
ATOM      4  N   UNL     1       7.073  -3.147  25.284  0.00  0.00    +0.000 N 
ATOM      5  C   UNL     1       6.640  -4.548  25.305  0.00  0.00    +0.000 C 
ATOM      6  C   UNL     1       6.332  -4.897  26.764  0.00  0.00    +0.000 C 
ATOM      7  C   UNL     1       7.160  -2.497  24.123  0.00  0.00    +0.000 C 
ATOM      8  O   UNL     1       7.122  -3.003  23.043  0.00  0.00    +0.000 OA
ATOM      9  N   UNL     1       7.250  -1.180  24.339  0.00  0.00    +0.000 NA
ENDROOT
BRANCH   9  10
ATOM     10  C   UNL     1       8.442  -0.456  23.916  0.00  0.00    +0.000 C 
ATOM     11  C   UNL     1       9.660  -1.330  24.254  0.00  0.00    +0.000 C 
ATOM     12  C   UNL     1       8.554   0.824  24.804  0.00  0.00    +0.000 C 
ATOM     13  C   UNL     1       7.910   0.676  26.103  0.00  0.00    +0.000 C 
ATOM     14  O   UNL     1       9.869   1.222  24.860  0.00  0.00    +0.000 OA
ATOM     15  C   UNL     1      10.564   1.077  23.685  0.00  0.00    +0.000 C 
ATOM     16  C   UNL     1       9.880   1.899  22.544  0.00  0.00    +0.000 C 
ATOM     17  C   UNL     1       8.515   1.613  22.544  0.00  0.00    +0.000 C 
ATOM     18  C   UNL     1       8.424  -0.067  22.544  0.00  0.00    +0.000 C 
ATOM     19  C   UNL     1       7.048   0.203  21.849  0.00  0.00    +0.000 C 
ATOM     20  N   UNL     1       7.520   1.694  21.522  0.00  0.00    +0.000 NA
ATOM     21  C   UNL     1       6.394   2.462  21.981  0.00  0.00    +0.000 C 
ATOM     22  C   UNL     1       7.832   1.909  23.920  0.00  0.00    +0.000 C 
BRANCH  18  23
ATOM     23  C   UNL     1       9.366  -0.553  21.558  0.00  0.00    +0.000 C 
ATOM     24  O   UNL     1       8.939  -0.421  20.421  0.00  0.00    +0.000 OA
ATOM     25  O   UNL     1      10.057  -1.617  21.922  0.00  0.00    +0.000 OA
ENDBRANCH  18  23
ENDBRANCH   9  10
BRANCH   1  26
ATOM     26  C   UNL     1       4.994  -4.361  28.600  0.00  0.00    +0.000 C 
BRANCH  26  34
ATOM     27  C   UNL     1       1.857  -7.855  25.345  0.00  0.00    +0.000 C 
ATOM     28  N   UNL     1       1.455  -6.478  25.135  0.00  0.00    +0.000 NA
ATOM     29  C   UNL     1       2.323  -5.478  25.297  0.00  0.00    +0.000 C 
ATOM     30  O   UNL     1       2.881  -4.911  24.406  0.00  0.00    +0.000 OA
ATOM     31  N   UNL     1       2.766  -5.456  26.578  0.00  0.00    +0.000 N 
ATOM     32  C   UNL     1       3.120  -6.714  27.209  0.00  0.00    +0.000 C 
ATOM     33  C   UNL     1       4.041  -6.501  28.376  0.00  0.00    +0.000 C 
ATOM     34  N   UNL     1       3.982  -5.244  28.960  0.00  0.00    +0.000 NA
ATOM     35  C   UNL     1       2.695  -4.649  28.865  0.00  0.00    +0.000 C 
ATOM     36  C   UNL     1       2.365  -4.329  27.415  0.00  0.00    +0.000 C 
ENDBRANCH  26  34
ENDBRANCH   1  26
TORSDOF 4
ENDMDL
