MODEL 1
REMARK VINA RESULT:      -8.0      0.000      0.000
REMARK  Name = 
REMARK  7 active torsions:
REMARK  status: ('A' for Active; 'I' for Inactive)
REMARK    1  A    between atoms: C_2  and  C_3
REMARK    2  A    between atoms: C_3  and  N_4
REMARK    3  A    between atoms: N_4  and  C_5
REMARK    4  A    between atoms: C_10  and  C_11
REMARK    5  A    between atoms: C_11  and  N_12
REMARK    6  A    between atoms: C_13  and  C_15
REMARK    7  A    between atoms: C_21  and  C_24
REMARK                            x       y       z     vdW  Elec       q    Type
REMARK                         _______ _______ _______ _____ _____    ______ ____
ROOT
ATOM      1  C   UNL     1       5.352  -5.085  23.806  0.00  0.00    +0.000 C 
ATOM      2  C   UNL     1       6.029  -5.998  22.725  0.00  0.00    +0.000 C 
ATOM      3  C   UNL     1       5.916  -5.537  25.149  0.00  0.00    +0.000 C 
ATOM      4  C   UNL     1       4.669  -5.272  26.179  0.00  0.00    +0.000 C 
ATOM      5  C   UNL     1       3.675  -4.645  25.454  0.00  0.00    +0.000 C 
ATOM      6  C   UNL     1       3.948  -5.406  23.897  0.00  0.00    +0.000 C 
ATOM      7  C   UNL     1       2.641  -4.773  23.470  0.00  0.00    +0.000 C 
ATOM      8  C   UNL     1       2.178  -4.782  25.141  0.00  0.00    +0.000 C 
ATOM      9  C   UNL     1       3.995  -3.171  25.084  0.00  0.00    +0.000 C 
ATOM     10  C   UNL     1       5.297  -4.421  27.312  0.00  0.00    +0.000 C 
ATOM     11  C   UNL     1       6.625  -3.828  26.742  0.00  0.00    +0.000 C 
ATOM     12  C   UNL     1       7.091  -4.882  25.720  0.00  0.00    +0.000 C 
ATOM     13  C   UNL     1       8.127  -4.373  24.779  0.00  0.00    +0.000 C 
ATOM     14  O   UNL     1       7.758  -5.875  26.537  0.00  0.00    +0.000 OA
ENDROOT
BRANCH   1  16
ATOM     15  N   UNL     1       6.439  -3.415  22.329  0.00  0.00    +0.000 NA
ATOM     16  C   UNL     1       5.726  -3.722  23.409  0.00  0.00    +0.000 C 
ATOM     17  O   UNL     1       5.334  -2.784  24.130  0.00  0.00    +0.000 OA
BRANCH  15  18
ATOM     18  C   UNL     1       6.307  -2.107  21.694  0.00  0.00    +0.000 C 
BRANCH  18  24
ATOM     19  C   UNL     1       7.556   0.114  21.594  0.00  0.00    +0.000 C 
ATOM     20  C   UNL     1       8.927   0.669  21.281  0.00  0.00    +0.000 C 
ATOM     21  C   UNL     1       9.926   0.048  22.265  0.00  0.00    +0.000 C 
ATOM     22  C   UNL     1      10.001  -1.373  22.315  0.00  0.00    +0.000 C 
ATOM     23  C   UNL     1       8.816  -2.072  21.959  0.00  0.00    +0.000 C 
ATOM     24  C   UNL     1       7.595  -1.344  21.900  0.00  0.00    +0.000 C 
ATOM     25  F   UNL     1      10.406  -1.780  23.536  0.00  0.00    +0.000 F 
BRANCH  19  26
ATOM     26  N   UNL     1       6.644   0.405  20.524  0.00  0.00    +0.000 NA
BRANCH  26  27
ATOM     27  C   UNL     1       7.367   0.328  19.282  0.00  0.00    +0.000 C 
BRANCH  27  29
ATOM     28  O   UNL     1       5.911  -0.505  17.613  0.00  0.00    +0.000 OA
ATOM     29  C   UNL     1       6.440   0.692  18.129  0.00  0.00    +0.000 C 
ENDBRANCH  27  29
ENDBRANCH  26  27
ENDBRANCH  19  26
ENDBRANCH  18  24
ENDBRANCH  15  18
ENDBRANCH   1  16
BRANCH   6  30
ATOM     30  C   UNL     1       3.692  -6.838  24.256  0.00  0.00    +0.000 C 
ATOM     31  O   UNL     1       4.617  -7.484  24.566  0.00  0.00    +0.000 OA
ATOM     32  O   UNL     1       2.523  -7.277  23.837  0.00  0.00    +0.000 OA
ENDBRANCH   6  30
TORSDOF 7
ENDMDL
MODEL 2
REMARK VINA RESULT:      -8.0      2.720      7.574
REMARK  Name = 
REMARK  7 active torsions:
REMARK  status: ('A' for Active; 'I' for Inactive)
REMARK    1  A    between atoms: C_2  and  C_3
REMARK    2  A    between atoms: C_3  and  N_4
REMARK    3  A    between atoms: N_4  and  C_5
REMARK    4  A    between atoms: C_10  and  C_11
REMARK    5  A    between atoms: C_11  and  N_12
REMARK    6  A    between atoms: C_13  and  C_15
REMARK    7  A    between atoms: C_21  and  C_24
REMARK                            x       y       z     vdW  Elec       q    Type
REMARK                         _______ _______ _______ _____ _____    ______ ____
ROOT
ATOM      1  C   UNL     1       7.331   0.364  23.016  0.00  0.00    +0.000 C 
ATOM      2  C   UNL     1       6.049   0.594  23.892  0.00  0.00    +0.000 C 
ATOM      3  C   UNL     1       8.160   1.638  23.144  0.00  0.00    +0.000 C 
ATOM      4  C   UNL     1       8.899   1.743  21.685  0.00  0.00    +0.000 C 
ATOM      5  C   UNL     1       8.577   0.596  20.988  0.00  0.00    +0.000 C 
ATOM      6  C   UNL     1       6.963   0.332  21.621  0.00  0.00    +0.000 C 
ATOM      7  C   UNL     1       6.818  -0.719  20.541  0.00  0.00    +0.000 C 
ATOM      8  C   UNL     1       8.002   0.161  19.632  0.00  0.00    +0.000 C 
ATOM      9  C   UNL     1       9.278  -0.685  21.518  0.00  0.00    +0.000 C 
ATOM     10  C   UNL     1      10.400   1.902  22.039  0.00  0.00    +0.000 C 
ATOM     11  C   UNL     1      10.563   1.424  23.518  0.00  0.00    +0.000 C 
ATOM     12  C   UNL     1       9.202   1.747  24.162  0.00  0.00    +0.000 C 
ATOM     13  C   UNL     1       8.983   1.046  25.458  0.00  0.00    +0.000 C 
ATOM     14  O   UNL     1       9.308   3.154  24.491  0.00  0.00    +0.000 OA
ENDROOT
BRANCH   1  16
ATOM     15  N   UNL     1       7.287  -1.813  24.205  0.00  0.00    +0.000 NA
ATOM     16  C   UNL     1       7.951  -0.834  23.597  0.00  0.00    +0.000 C 
ATOM     17  O   UNL     1       9.188  -0.948  23.498  0.00  0.00    +0.000 OA
BRANCH  15  18
ATOM     18  C   UNL     1       7.829  -3.167  24.251  0.00  0.00    +0.000 C 
BRANCH  18  24
ATOM     19  C   UNL     1       5.554  -4.313  24.369  0.00  0.00    +0.000 C 
ATOM     20  C   UNL     1       4.886  -5.621  24.010  0.00  0.00    +0.000 C 
ATOM     21  C   UNL     1       5.006  -5.813  22.493  0.00  0.00    +0.000 C 
ATOM     22  C   UNL     1       6.313  -5.790  21.930  0.00  0.00    +0.000 C 
ATOM     23  C   UNL     1       7.281  -5.024  22.635  0.00  0.00    +0.000 C 
ATOM     24  C   UNL     1       6.827  -4.107  23.622  0.00  0.00    +0.000 C 
ATOM     25  F   UNL     1       6.265  -5.373  20.648  0.00  0.00    +0.000 F 
BRANCH  19  26
ATOM     26  N   UNL     1       5.755  -4.229  25.789  0.00  0.00    +0.000 NA
BRANCH  26  27
ATOM     27  C   UNL     1       6.099  -5.540  26.274  0.00  0.00    +0.000 C 
BRANCH  27  29
ATOM     28  O   UNL     1       7.111  -6.232  28.298  0.00  0.00    +0.000 OA
ATOM     29  C   UNL     1       7.340  -5.448  27.153  0.00  0.00    +0.000 C 
ENDBRANCH  27  29
ENDBRANCH  26  27
ENDBRANCH  19  26
ENDBRANCH  18  24
ENDBRANCH  15  18
ENDBRANCH   1  16
BRANCH   6  30
ATOM     30  C   UNL     1       6.291   1.588  21.160  0.00  0.00    +0.000 C 
ATOM     31  O   UNL     1       6.066   2.403  21.969  0.00  0.00    +0.000 OA
ATOM     32  O   UNL     1       5.721   1.468  19.978  0.00  0.00    +0.000 OA
ENDBRANCH   6  30
TORSDOF 7
ENDMDL
MODEL 3
REMARK VINA RESULT:      -7.9      2.089      3.457
REMARK  Name = 
REMARK  7 active torsions:
REMARK  status: ('A' for Active; 'I' for Inactive)
REMARK    1  A    between atoms: C_2  and  C_3
REMARK    2  A    between atoms: C_3  and  N_4
REMARK    3  A    between atoms: N_4  and  C_5
REMARK    4  A    between atoms: C_10  and  C_11
REMARK    5  A    between atoms: C_11  and  N_12
REMARK    6  A    between atoms: C_13  and  C_15
REMARK    7  A    between atoms: C_21  and  C_24
REMARK                            x       y       z     vdW  Elec       q    Type
REMARK                         _______ _______ _______ _____ _____    ______ ____
ROOT
ATOM      1  C   UNL     1       6.419  -2.685  24.106  0.00  0.00    +0.000 C 
ATOM      2  C   UNL     1       5.392  -2.734  22.920  0.00  0.00    +0.000 C 
ATOM      3  C   UNL     1       6.158  -3.935  24.939  0.00  0.00    +0.000 C 
ATOM      4  C   UNL     1       6.520  -3.446  26.460  0.00  0.00    +0.000 C 
ATOM      5  C   UNL     1       7.024  -2.164  26.361  0.00  0.00    +0.000 C 
ATOM      6  C   UNL     1       6.076  -1.601  24.996  0.00  0.00    +0.000 C 
ATOM      7  C   UNL     1       6.615  -0.224  25.316  0.00  0.00    +0.000 C 
ATOM      8  C   UNL     1       6.809  -0.763  26.952  0.00  0.00    +0.000 C 
ATOM      9  C   UNL     1       8.446  -2.088  25.741  0.00  0.00    +0.000 C 
ATOM     10  C   UNL     1       7.525  -4.513  26.964  0.00  0.00    +0.000 C 
ATOM     11  C   UNL     1       8.074  -5.244  25.697  0.00  0.00    +0.000 C 
ATOM     12  C   UNL     1       6.909  -5.163  24.692  0.00  0.00    +0.000 C 
ATOM     13  C   UNL     1       7.320  -5.456  23.291  0.00  0.00    +0.000 C 
ATOM     14  O   UNL     1       6.047  -6.259  25.084  0.00  0.00    +0.000 OA
ENDROOT
BRANCH   1  16
ATOM     15  N   UNL     1       7.952  -2.152  22.231  0.00  0.00    +0.000 NA
ATOM     16  C   UNL     1       7.729  -2.650  23.444  0.00  0.00    +0.000 C 
ATOM     17  O   UNL     1       8.704  -3.107  24.072  0.00  0.00    +0.000 OA
BRANCH  15  18
ATOM     18  C   UNL     1       9.269  -1.640  21.865  0.00  0.00    +0.000 C 
BRANCH  18  24
ATOM     19  C   UNL     1       8.730   0.834  22.171  0.00  0.00    +0.000 C 
ATOM     20  C   UNL     1       9.397   2.135  22.556  0.00  0.00    +0.000 C 
ATOM     21  C   UNL     1       9.944   1.985  23.981  0.00  0.00    +0.000 C 
ATOM     22  C   UNL     1      10.845   0.911  24.228  0.00  0.00    +0.000 C 
ATOM     23  C   UNL     1      10.699  -0.229  23.391  0.00  0.00    +0.000 C 
ATOM     24  C   UNL     1       9.510  -0.354  22.621  0.00  0.00    +0.000 C 
ATOM     25  F   UNL     1      10.774   0.525  25.519  0.00  0.00    +0.000 F 
BRANCH  19  26
ATOM     26  N   UNL     1       8.482   0.799  20.757  0.00  0.00    +0.000 NA
BRANCH  26  27
ATOM     27  C   UNL     1       7.070   0.977  20.542  0.00  0.00    +0.000 C 
BRANCH  27  29
ATOM     28  O   UNL     1       7.737  -0.006  18.495  0.00  0.00    +0.000 OA
ATOM     29  C   UNL     1       6.628   0.141  19.347  0.00  0.00    +0.000 C 
ENDBRANCH  27  29
ENDBRANCH  26  27
ENDBRANCH  19  26
ENDBRANCH  18  24
ENDBRANCH  15  18
ENDBRANCH   1  16
BRANCH   6  30
ATOM     30  C   UNL     1       4.696  -1.720  25.566  0.00  0.00    +0.000 C 
ATOM     31  O   UNL     1       4.046  -2.624  25.207  0.00  0.00    +0.000 OA
ATOM     32  O   UNL     1       4.266  -0.605  26.120  0.00  0.00    +0.000 OA
ENDBRANCH   6  30
TORSDOF 7
ENDMDL
MODEL 4
REMARK VINA RESULT:      -7.8      1.681      2.059
REMARK  Name = 
REMARK  7 active torsions:
REMARK  status: ('A' for Active; 'I' for Inactive)
REMARK    1  A    between atoms: C_2  and  C_3
REMARK    2  A    between atoms: C_3  and  N_4
REMARK    3  A    between atoms: N_4  and  C_5
REMARK    4  A    between atoms: C_10  and  C_11
REMARK    5  A    between atoms: C_11  and  N_12
REMARK    6  A    between atoms: C_13  and  C_15
REMARK    7  A    between atoms: C_21  and  C_24
REMARK                            x       y       z     vdW  Elec       q    Type
REMARK                         _______ _______ _______ _____ _____    ______ ____
ROOT
ATOM      1  C   UNL     1       6.506  -3.946  23.795  0.00  0.00    +0.000 C 
ATOM      2  C   UNL     1       6.841  -4.018  22.264  0.00  0.00    +0.000 C 
ATOM      3  C   UNL     1       7.383  -4.999  24.466  0.00  0.00    +0.000 C 
ATOM      4  C   UNL     1       6.460  -5.499  25.723  0.00  0.00    +0.000 C 
ATOM      5  C   UNL     1       5.336  -4.696  25.742  0.00  0.00    +0.000 C 
ATOM      6  C   UNL     1       5.163  -4.426  24.018  0.00  0.00    +0.000 C 
ATOM      7  C   UNL     1       3.816  -3.820  24.348  0.00  0.00    +0.000 C 
ATOM      8  C   UNL     1       3.806  -4.810  25.771  0.00  0.00    +0.000 C 
ATOM      9  C   UNL     1       5.607  -3.240  26.210  0.00  0.00    +0.000 C 
ATOM     10  C   UNL     1       7.395  -5.355  26.951  0.00  0.00    +0.000 C 
ATOM     11  C   UNL     1       8.550  -4.395  26.523  0.00  0.00    +0.000 C 
ATOM     12  C   UNL     1       8.691  -4.640  25.008  0.00  0.00    +0.000 C 
ATOM     13  C   UNL     1       9.465  -3.577  24.310  0.00  0.00    +0.000 C 
ATOM     14  O   UNL     1       9.508  -5.834  24.933  0.00  0.00    +0.000 OA
ENDROOT
BRANCH   1  16
ATOM     15  N   UNL     1       7.136  -1.598  23.304  0.00  0.00    +0.000 NA
ATOM     16  C   UNL     1       6.818  -2.560  24.165  0.00  0.00    +0.000 C 
ATOM     17  O   UNL     1       6.764  -2.261  25.374  0.00  0.00    +0.000 OA
BRANCH  15  18
ATOM     18  C   UNL     1       6.888  -0.196  23.625  0.00  0.00    +0.000 C 
BRANCH  18  24
ATOM     19  C   UNL     1       8.207   1.714  22.568  0.00  0.00    +0.000 C 
ATOM     20  C   UNL     1       9.603   2.045  22.091  0.00  0.00    +0.000 C 
ATOM     21  C   UNL     1      10.553   1.931  23.290  0.00  0.00    +0.000 C 
ATOM     22  C   UNL     1      10.583   0.692  23.989  0.00  0.00    +0.000 C 
ATOM     23  C   UNL     1       9.387  -0.077  23.945  0.00  0.00    +0.000 C 
ATOM     24  C   UNL     1       8.192   0.559  23.510  0.00  0.00    +0.000 C 
ATOM     25  F   UNL     1      10.938   0.885  25.275  0.00  0.00    +0.000 F 
BRANCH  19  26
ATOM     26  N   UNL     1       7.336   1.493  21.447  0.00  0.00    +0.000 NA
BRANCH  26  27
ATOM     27  C   UNL     1       8.051   0.719  20.467  0.00  0.00    +0.000 C 
BRANCH  27  29
ATOM     28  O   UNL     1       7.499   0.249  18.214  0.00  0.00    +0.000 OA
ATOM     29  C   UNL     1       7.058   0.038  19.533  0.00  0.00    +0.000 C 
ENDBRANCH  27  29
ENDBRANCH  26  27
ENDBRANCH  19  26
ENDBRANCH  18  24
ENDBRANCH  15  18
ENDBRANCH   1  16
BRANCH   6  30
ATOM     30  C   UNL     1       4.954  -5.833  23.550  0.00  0.00    +0.000 C 
ATOM     31  O   UNL     1       5.876  -6.385  23.088  0.00  0.00    +0.000 OA
ATOM     32  O   UNL     1       3.683  -6.144  23.392  0.00  0.00    +0.000 OA
ENDBRANCH   6  30
TORSDOF 7
ENDMDL
MODEL 5
REMARK VINA RESULT:      -7.7      2.219      3.446
REMARK  Name = 
REMARK  7 active torsions:
REMARK  status: ('A' for Active; 'I' for Inactive)
REMARK    1  A    between atoms: C_2  and  C_3
REMARK    2  A    between atoms: C_3  and  N_4
REMARK    3  A    between atoms: N_4  and  C_5
REMARK    4  A    between atoms: C_10  and  C_11
REMARK    5  A    between atoms: C_11  and  N_12
REMARK    6  A    between atoms: C_13  and  C_15
REMARK    7  A    between atoms: C_21  and  C_24
REMARK                            x       y       z     vdW  Elec       q    Type
REMARK                         _______ _______ _______ _____ _____    ______ ____
ROOT
ATOM      1  C   UNL     1       8.004  -3.585  25.186  0.00  0.00    +0.000 C 
ATOM      2  C   UNL     1       8.928  -4.292  26.239  0.00  0.00    +0.000 C 
ATOM      3  C   UNL     1       7.271  -2.483  25.944  0.00  0.00    +0.000 C 
ATOM      4  C   UNL     1       5.827  -2.404  25.175  0.00  0.00    +0.000 C 
ATOM      5  C   UNL     1       5.899  -3.262  24.095  0.00  0.00    +0.000 C 
ATOM      6  C   UNL     1       6.950  -4.486  24.786  0.00  0.00    +0.000 C 
ATOM      7  C   UNL     1       6.613  -5.320  23.569  0.00  0.00    +0.000 C 
ATOM      8  C   UNL     1       5.130  -4.430  23.463  0.00  0.00    +0.000 C 
ATOM      9  C   UNL     1       6.811  -2.756  22.944  0.00  0.00    +0.000 C 
ATOM     10  C   UNL     1       5.678  -0.903  24.817  0.00  0.00    +0.000 C 
ATOM     11  C   UNL     1       7.106  -0.277  24.910  0.00  0.00    +0.000 C 
ATOM     12  C   UNL     1       7.810  -1.125  25.987  0.00  0.00    +0.000 C 
ATOM     13  C   UNL     1       9.291  -0.966  25.985  0.00  0.00    +0.000 C 
ATOM     14  O   UNL     1       7.354  -0.541  27.231  0.00  0.00    +0.000 OA
ENDROOT
BRANCH   1  16
ATOM     15  N   UNL     1       8.627  -2.236  23.200  0.00  0.00    +0.000 NA
ATOM     16  C   UNL     1       8.935  -3.107  24.156  0.00  0.00    +0.000 C 
ATOM     17  O   UNL     1      10.104  -3.540  24.191  0.00  0.00    +0.000 OA
BRANCH  15  18
ATOM     18  C   UNL     1       9.657  -1.400  22.591  0.00  0.00    +0.000 C 
BRANCH  18  24
ATOM     19  C   UNL     1       8.089   0.368  21.631  0.00  0.00    +0.000 C 
ATOM     20  C   UNL     1       8.058   1.842  21.296  0.00  0.00    +0.000 C 
ATOM     21  C   UNL     1       8.300   2.628  22.591  0.00  0.00    +0.000 C 
ATOM     22  C   UNL     1       9.489   2.343  23.319  0.00  0.00    +0.000 C 
ATOM     23  C   UNL     1      10.012   1.029  23.169  0.00  0.00    +0.000 C 
ATOM     24  C   UNL     1       9.175   0.032  22.595  0.00  0.00    +0.000 C 
ATOM     25  F   UNL     1       9.311   2.602  24.631  0.00  0.00    +0.000 F 
BRANCH  19  26
ATOM     26  N   UNL     1       8.186  -0.414  20.431  0.00  0.00    +0.000 NA
BRANCH  26  27
ATOM     27  C   UNL     1       7.464   0.267  19.389  0.00  0.00    +0.000 C 
BRANCH  27  29
ATOM     28  O   UNL     1       6.011  -0.564  17.716  0.00  0.00    +0.000 OA
ATOM     29  C   UNL     1       6.158  -0.466  19.111  0.00  0.00    +0.000 C 
ENDBRANCH  27  29
ENDBRANCH  26  27
ENDBRANCH  19  26
ENDBRANCH  18  24
ENDBRANCH  15  18
ENDBRANCH   1  16
BRANCH   6  30
ATOM     30  C   UNL     1       6.101  -4.945  25.931  0.00  0.00    +0.000 C 
ATOM     31  O   UNL     1       6.227  -4.383  26.950  0.00  0.00    +0.000 OA
ATOM     32  O   UNL     1       5.584  -6.143  25.747  0.00  0.00    +0.000 OA
ENDBRANCH   6  30
TORSDOF 7
ENDMDL
MODEL 6
REMARK VINA RESULT:      -7.7      1.895      3.397
REMARK  Name = 
REMARK  7 active torsions:
REMARK  status: ('A' for Active; 'I' for Inactive)
REMARK    1  A    between atoms: C_2  and  C_3
REMARK    2  A    between atoms: C_3  and  N_4
REMARK    3  A    between atoms: N_4  and  C_5
REMARK    4  A    between atoms: C_10  and  C_11
REMARK    5  A    between atoms: C_11  and  N_12
REMARK    6  A    between atoms: C_13  and  C_15
REMARK    7  A    between atoms: C_21  and  C_24
REMARK                            x       y       z     vdW  Elec       q    Type
REMARK                         _______ _______ _______ _____ _____    ______ ____
ROOT
ATOM      1  C   UNL     1       6.763  -3.244  25.321  0.00  0.00    +0.000 C 
ATOM      2  C   UNL     1       7.688  -2.776  26.500  0.00  0.00    +0.000 C 
ATOM      3  C   UNL     1       5.757  -4.211  25.937  0.00  0.00    +0.000 C 
ATOM      4  C   UNL     1       5.467  -5.265  24.716  0.00  0.00    +0.000 C 
ATOM      5  C   UNL     1       6.140  -4.791  23.607  0.00  0.00    +0.000 C 
ATOM      6  C   UNL     1       7.521  -4.069  24.412  0.00  0.00    +0.000 C 
ATOM      7  C   UNL     1       8.124  -3.924  23.031  0.00  0.00    +0.000 C 
ATOM      8  C   UNL     1       7.140  -5.265  22.544  0.00  0.00    +0.000 C 
ATOM      9  C   UNL     1       5.509  -3.519  22.978  0.00  0.00    +0.000 C 
ATOM     10  C   UNL     1       3.921  -5.277  24.595  0.00  0.00    +0.000 C 
ATOM     11  C   UNL     1       3.407  -3.989  25.315  0.00  0.00    +0.000 C 
ATOM     12  C   UNL     1       4.460  -3.733  26.409  0.00  0.00    +0.000 C 
ATOM     13  C   UNL     1       4.393  -2.359  26.981  0.00  0.00    +0.000 C 
ATOM     14  O   UNL     1       4.060  -4.623  27.480  0.00  0.00    +0.000 OA
ENDROOT
BRANCH   1  16
ATOM     15  N   UNL     1       6.677  -0.783  25.024  0.00  0.00    +0.000 NA
ATOM     16  C   UNL     1       6.182  -1.998  24.806  0.00  0.00    +0.000 C 
ATOM     17  O   UNL     1       5.158  -2.089  24.100  0.00  0.00    +0.000 OA
BRANCH  15  18
ATOM     18  C   UNL     1       6.427   0.305  24.083  0.00  0.00    +0.000 C 
BRANCH  18  24
ATOM     19  C   UNL     1       7.700   0.839  21.938  0.00  0.00    +0.000 C 
ATOM     20  C   UNL     1       9.061   0.646  21.310  0.00  0.00    +0.000 C 
ATOM     21  C   UNL     1      10.098   1.335  22.205  0.00  0.00    +0.000 C 
ATOM     22  C   UNL     1      10.157   0.936  23.570  0.00  0.00    +0.000 C 
ATOM     23  C   UNL     1       8.946   0.440  24.126  0.00  0.00    +0.000 C 
ATOM     24  C   UNL     1       7.734   0.673  23.419  0.00  0.00    +0.000 C 
ATOM     25  F   UNL     1      10.615   1.947  24.337  0.00  0.00    +0.000 F 
BRANCH  19  26
ATOM     26  N   UNL     1       6.740  -0.039  21.330  0.00  0.00    +0.000 NA
BRANCH  26  27
ATOM     27  C   UNL     1       6.711   0.234  19.917  0.00  0.00    +0.000 C 
BRANCH  27  29
ATOM     28  O   UNL     1       6.013  -0.609  17.818  0.00  0.00    +0.000 OA
ATOM     29  C   UNL     1       5.969  -0.886  19.197  0.00  0.00    +0.000 C 
ENDBRANCH  27  29
ENDBRANCH  26  27
ENDBRANCH  19  26
ENDBRANCH  18  24
ENDBRANCH  15  18
ENDBRANCH   1  16
BRANCH   6  30
ATOM     30  C   UNL     1       8.109  -5.281  25.066  0.00  0.00    +0.000 C 
ATOM     31  O   UNL     1       7.666  -5.598  26.101  0.00  0.00    +0.000 OA
ATOM     32  O   UNL     1       9.279  -5.625  24.567  0.00  0.00    +0.000 OA
ENDBRANCH   6  30
TORSDOF 7
ENDMDL
MODEL 7
REMARK VINA RESULT:      -7.6      1.709      3.002
REMARK  Name = 
REMARK  7 active torsions:
REMARK  status: ('A' for Active; 'I' for Inactive)
REMARK    1  A    between atoms: C_2  and  C_3
REMARK    2  A    between atoms: C_3  and  N_4
REMARK    3  A    between atoms: N_4  and  C_5
REMARK    4  A    between atoms: C_10  and  C_11
REMARK    5  A    between atoms: C_11  and  N_12
REMARK    6  A    between atoms: C_13  and  C_15
REMARK    7  A    between atoms: C_21  and  C_24
REMARK                            x       y       z     vdW  Elec       q    Type
REMARK                         _______ _______ _______ _____ _____    ______ ____
ROOT
ATOM      1  C   UNL     1       5.103  -4.142  24.930  0.00  0.00    +0.000 C 
ATOM      2  C   UNL     1       3.584  -4.298  24.568  0.00  0.00    +0.000 C 
ATOM      3  C   UNL     1       5.871  -4.905  23.855  0.00  0.00    +0.000 C 
ATOM      4  C   UNL     1       7.183  -5.459  24.665  0.00  0.00    +0.000 C 
ATOM      5  C   UNL     1       7.130  -4.920  25.934  0.00  0.00    +0.000 C 
ATOM      6  C   UNL     1       5.388  -4.873  26.141  0.00  0.00    +0.000 C 
ATOM      7  C   UNL     1       5.668  -4.542  27.591  0.00  0.00    +0.000 C 
ATOM      8  C   UNL     1       7.187  -5.357  27.405  0.00  0.00    +0.000 C 
ATOM      9  C   UNL     1       7.440  -3.399  25.990  0.00  0.00    +0.000 C 
ATOM     10  C   UNL     1       8.379  -4.990  23.797  0.00  0.00    +0.000 C 
ATOM     11  C   UNL     1       7.841  -3.853  22.871  0.00  0.00    +0.000 C 
ATOM     12  C   UNL     1       6.359  -4.219  22.662  0.00  0.00    +0.000 C 
ATOM     13  C   UNL     1       5.545  -3.092  22.127  0.00  0.00    +0.000 C 
ATOM     14  O   UNL     1       6.400  -5.209  21.606  0.00  0.00    +0.000 OA
ENDROOT
BRANCH   1  16
ATOM     15  N   UNL     1       6.454  -2.095  24.557  0.00  0.00    +0.000 NA
ATOM     16  C   UNL     1       5.324  -2.690  24.929  0.00  0.00    +0.000 C 
ATOM     17  O   UNL     1       4.377  -1.964  25.288  0.00  0.00    +0.000 OA
BRANCH  15  18
ATOM     18  C   UNL     1       6.445  -0.727  24.050  0.00  0.00    +0.000 C 
BRANCH  18  24
ATOM     19  C   UNL     1       8.144   0.314  22.458  0.00  0.00    +0.000 C 
ATOM     20  C   UNL     1       9.597   0.189  22.057  0.00  0.00    +0.000 C 
ATOM     21  C   UNL     1      10.457   0.460  23.298  0.00  0.00    +0.000 C 
ATOM     22  C   UNL     1      10.222  -0.346  24.447  0.00  0.00    +0.000 C 
ATOM     23  C   UNL     1       8.906  -0.865  24.586  0.00  0.00    +0.000 C 
ATOM     24  C   UNL     1       7.872  -0.304  23.786  0.00  0.00    +0.000 C 
ATOM     25  F   UNL     1      10.553   0.326  25.569  0.00  0.00    +0.000 F 
BRANCH  19  26
ATOM     26  N   UNL     1       7.296  -0.232  21.436  0.00  0.00    +0.000 NA
BRANCH  26  27
ATOM     27  C   UNL     1       7.769   0.235  20.160  0.00  0.00    +0.000 C 
BRANCH  27  29
ATOM     28  O   UNL     1       7.131   0.629  17.915  0.00  0.00    +0.000 OA
ATOM     29  C   UNL     1       6.682   0.039  19.110  0.00  0.00    +0.000 C 
ENDBRANCH  27  29
ENDBRANCH  26  27
ENDBRANCH  19  26
ENDBRANCH  18  24
ENDBRANCH  15  18
ENDBRANCH   1  16
BRANCH   6  30
ATOM     30  C   UNL     1       5.072  -6.334  26.037  0.00  0.00    +0.000 C 
ATOM     31  O   UNL     1       4.535  -6.696  25.062  0.00  0.00    +0.000 OA
ATOM     32  O   UNL     1       5.117  -6.959  27.195  0.00  0.00    +0.000 OA
ENDBRANCH   6  30
TORSDOF 7
ENDMDL
MODEL 8
REMARK VINA RESULT:      -7.6      1.353      1.781
REMARK  Name = 
REMARK  7 active torsions:
REMARK  status: ('A' for Active; 'I' for Inactive)
REMARK    1  A    between atoms: C_2  and  C_3
REMARK    2  A    between atoms: C_3  and  N_4
REMARK    3  A    between atoms: N_4  and  C_5
REMARK    4  A    between atoms: C_10  and  C_11
REMARK    5  A    between atoms: C_11  and  N_12
REMARK    6  A    between atoms: C_13  and  C_15
REMARK    7  A    between atoms: C_21  and  C_24
REMARK                            x       y       z     vdW  Elec       q    Type
REMARK                         _______ _______ _______ _____ _____    ______ ____
ROOT
ATOM      1  C   UNL     1       5.218  -4.763  24.582  0.00  0.00    +0.000 C 
ATOM      2  C   UNL     1       4.877  -6.226  24.127  0.00  0.00    +0.000 C 
ATOM      3  C   UNL     1       6.445  -4.879  25.481  0.00  0.00    +0.000 C 
ATOM      4  C   UNL     1       6.231  -3.659  26.553  0.00  0.00    +0.000 C 
ATOM      5  C   UNL     1       5.116  -2.955  26.145  0.00  0.00    +0.000 C 
ATOM      6  C   UNL     1       4.187  -4.281  25.469  0.00  0.00    +0.000 C 
ATOM      7  C   UNL     1       3.034  -3.304  25.392  0.00  0.00    +0.000 C 
ATOM      8  C   UNL     1       3.779  -2.440  26.697  0.00  0.00    +0.000 C 
ATOM      9  C   UNL     1       5.335  -2.109  24.861  0.00  0.00    +0.000 C 
ATOM     10  C   UNL     1       7.566  -2.873  26.492  0.00  0.00    +0.000 C 
ATOM     11  C   UNL     1       8.270  -3.289  25.161  0.00  0.00    +0.000 C 
ATOM     12  C   UNL     1       7.789  -4.734  24.926  0.00  0.00    +0.000 C 
ATOM     13  C   UNL     1       8.021  -5.213  23.535  0.00  0.00    +0.000 C 
ATOM     14  O   UNL     1       8.667  -5.524  25.765  0.00  0.00    +0.000 OA
ENDROOT
BRANCH   1  16
ATOM     15  N   UNL     1       6.290  -3.026  23.174  0.00  0.00    +0.000 NA
ATOM     16  C   UNL     1       5.444  -4.041  23.324  0.00  0.00    +0.000 C 
ATOM     17  O   UNL     1       4.807  -4.417  22.321  0.00  0.00    +0.000 OA
BRANCH  15  18
ATOM     18  C   UNL     1       6.878  -2.730  21.871  0.00  0.00    +0.000 C 
BRANCH  18  24
ATOM     19  C   UNL     1       7.448  -0.274  21.482  0.00  0.00    +0.000 C 
ATOM     20  C   UNL     1       8.632   0.615  21.178  0.00  0.00    +0.000 C 
ATOM     21  C   UNL     1       9.641   0.469  22.325  0.00  0.00    +0.000 C 
ATOM     22  C   UNL     1      10.109  -0.842  22.623  0.00  0.00    +0.000 C 
ATOM     23  C   UNL     1       9.223  -1.907  22.307  0.00  0.00    +0.000 C 
ATOM     24  C   UNL     1       7.862  -1.595  22.036  0.00  0.00    +0.000 C 
ATOM     25  F   UNL     1      10.464  -0.931  23.922  0.00  0.00    +0.000 F 
BRANCH  19  26
ATOM     26  N   UNL     1       6.626  -0.426  20.314  0.00  0.00    +0.000 NA
BRANCH  26  27
ATOM     27  C   UNL     1       7.199   0.361  19.254  0.00  0.00    +0.000 C 
BRANCH  27  29
ATOM     28  O   UNL     1       5.845  -0.429  17.481  0.00  0.00    +0.000 OA
ATOM     29  C   UNL     1       6.117   0.721  18.244  0.00  0.00    +0.000 C 
ENDBRANCH  27  29
ENDBRANCH  26  27
ENDBRANCH  19  26
ENDBRANCH  18  24
ENDBRANCH  15  18
ENDBRANCH   1  16
BRANCH   6  30
ATOM     30  C   UNL     1       4.014  -5.131  26.690  0.00  0.00    +0.000 C 
ATOM     31  O   UNL     1       4.813  -5.965  26.878  0.00  0.00    +0.000 OA
ATOM     32  O   UNL     1       2.801  -5.067  27.200  0.00  0.00    +0.000 OA
ENDBRANCH   6  30
TORSDOF 7
ENDMDL
MODEL 9
REMARK VINA RESULT:      -7.6      1.975      3.687
REMARK  Name = 
REMARK  7 active torsions:
REMARK  status: ('A' for Active; 'I' for Inactive)
REMARK    1  A    between atoms: C_2  and  C_3
REMARK    2  A    between atoms: C_3  and  N_4
REMARK    3  A    between atoms: N_4  and  C_5
REMARK    4  A    between atoms: C_10  and  C_11
REMARK    5  A    between atoms: C_11  and  N_12
REMARK    6  A    between atoms: C_13  and  C_15
REMARK    7  A    between atoms: C_21  and  C_24
REMARK                            x       y       z     vdW  Elec       q    Type
REMARK                         _______ _______ _______ _____ _____    ______ ____
ROOT
ATOM      1  C   UNL     1       6.384  -3.211  24.791  0.00  0.00    +0.000 C 
ATOM      2  C   UNL     1       5.042  -2.516  25.216  0.00  0.00    +0.000 C 
ATOM      3  C   UNL     1       5.981  -4.452  24.000  0.00  0.00    +0.000 C 
ATOM      4  C   UNL     1       7.181  -5.513  24.345  0.00  0.00    +0.000 C 
ATOM      5  C   UNL     1       8.117  -4.831  25.097  0.00  0.00    +0.000 C 
ATOM      6  C   UNL     1       7.041  -3.746  25.959  0.00  0.00    +0.000 C 
ATOM      7  C   UNL     1       8.241  -3.391  26.810  0.00  0.00    +0.000 C 
ATOM      8  C   UNL     1       8.883  -4.954  26.422  0.00  0.00    +0.000 C 
ATOM      9  C   UNL     1       8.943  -3.792  24.290  0.00  0.00    +0.000 C 
ATOM     10  C   UNL     1       7.670  -5.986  22.953  0.00  0.00    +0.000 C 
ATOM     11  C   UNL     1       7.162  -4.932  21.918  0.00  0.00    +0.000 C 
ATOM     12  C   UNL     1       5.860  -4.398  22.545  0.00  0.00    +0.000 C 
ATOM     13  C   UNL     1       5.392  -3.124  21.934  0.00  0.00    +0.000 C 
ATOM     14  O   UNL     1       4.874  -5.394  22.179  0.00  0.00    +0.000 OA
ENDROOT
BRANCH   1  16
ATOM     15  N   UNL     1       8.220  -2.384  23.342  0.00  0.00    +0.000 NA
ATOM     16  C   UNL     1       7.087  -2.185  24.010  0.00  0.00    +0.000 C 
ATOM     17  O   UNL     1       6.574  -1.050  23.956  0.00  0.00    +0.000 OA
BRANCH  15  18
ATOM     18  C   UNL     1       8.558  -1.563  22.184  0.00  0.00    +0.000 C 
BRANCH  18  24
ATOM     19  C   UNL     1       8.813   0.970  22.013  0.00  0.00    +0.000 C 
ATOM     20  C   UNL     1       9.867   2.047  22.129  0.00  0.00    +0.000 C 
ATOM     21  C   UNL     1      10.446   1.993  23.549  0.00  0.00    +0.000 C 
ATOM     22  C   UNL     1      10.997   0.756  23.987  0.00  0.00    +0.000 C 
ATOM     23  C   UNL     1      10.454  -0.414  23.388  0.00  0.00    +0.000 C 
ATOM     24  C   UNL     1       9.230  -0.300  22.673  0.00  0.00    +0.000 C 
ATOM     25  F   UNL     1      10.907   0.650  25.329  0.00  0.00    +0.000 F 
BRANCH  19  26
ATOM     26  N   UNL     1       8.464   0.759  20.636  0.00  0.00    +0.000 NA
BRANCH  26  27
ATOM     27  C   UNL     1       7.068   1.069  20.472  0.00  0.00    +0.000 C 
BRANCH  27  29
ATOM     28  O   UNL     1       7.447   0.336  18.254  0.00  0.00    +0.000 OA
ATOM     29  C   UNL     1       6.505   0.279  19.297  0.00  0.00    +0.000 C 
ENDBRANCH  27  29
ENDBRANCH  26  27
ENDBRANCH  19  26
ENDBRANCH  18  24
ENDBRANCH  15  18
ENDBRANCH   1  16
BRANCH   6  30
ATOM     30  C   UNL     1       6.204  -4.742  26.702  0.00  0.00    +0.000 C 
ATOM     31  O   UNL     1       5.170  -5.026  26.234  0.00  0.00    +0.000 OA
ATOM     32  O   UNL     1       6.577  -4.900  27.956  0.00  0.00    +0.000 OA
ENDBRANCH   6  30
TORSDOF 7
ENDMDL
