MODEL 1
REMARK VINA RESULT:      -6.4      0.000      0.000
REMARK  Name = 
REMARK  6 active torsions:
REMARK  status: ('A' for Active; 'I' for Inactive)
REMARK    1  A    between atoms: N_5  and  C_8
REMARK    2  A    between atoms: C_9  and  C_10
REMARK    3  A    between atoms: C_10  and  C_11
REMARK    4  A    between atoms: C_15  and  C_21
REMARK    5  A    between atoms: C_16  and  O_17
REMARK    6  A    between atoms: O_17  and  C_18
REMARK                            x       y       z     vdW  Elec       q    Type
REMARK                         _______ _______ _______ _____ _____    ______ ____
ROOT
ATOM      1  C   UNL     1       7.581  -2.806  23.559  0.00  0.00    +0.000 C 
ATOM      2  C   UNL     1       6.340  -3.139  22.950  0.00  0.00    +0.000 C 
ATOM      3  C   UNL     1       6.239  -2.253  21.630  0.00  0.00    +0.000 C 
ATOM      4  C   UNL     1       7.381  -1.426  21.611  0.00  0.00    +0.000 C 
ATOM      5  C   UNL     1       8.469  -1.778  22.698  0.00  0.00    +0.000 C 
ATOM      6  O   UNL     1       5.592  -3.066  20.664  0.00  0.00    +0.000 OA
ENDROOT
BRANCH   1  11
ATOM      7  O   UNL     1       6.871  -4.409  27.550  0.00  0.00    +0.000 OA
ATOM      8  C   UNL     1       7.293  -4.082  26.237  0.00  0.00    +0.000 C 
ATOM      9  C   UNL     1       7.517  -5.390  25.509  0.00  0.00    +0.000 C 
ATOM     10  C   UNL     1       7.953  -5.143  24.078  0.00  0.00    +0.000 C 
ATOM     11  N   UNL     1       8.541  -3.806  23.983  0.00  0.00    +0.000 N 
ATOM     12  C   UNL     1       9.395  -3.366  25.086  0.00  0.00    +0.000 C 
ATOM     13  C   UNL     1       8.585  -3.304  26.365  0.00  0.00    +0.000 C 
ENDBRANCH   1  11
BRANCH   4  14
ATOM     14  C   UNL     1       7.395   0.097  21.304  0.00  0.00    +0.000 C 
ATOM     15  C   UNL     1       8.766   0.530  20.899  0.00  0.00    +0.000 C 
ATOM     16  C   UNL     1       6.446   0.228  20.080  0.00  0.00    +0.000 C 
ATOM     17  C   UNL     1       6.821   0.877  22.439  0.00  0.00    +0.000 C 
ENDBRANCH   4  14
BRANCH   2  18
ATOM     18  C   UNL     1       4.947  -3.134  23.610  0.00  0.00    +0.000 C 
BRANCH  18  19
ATOM     19  C   UNL     1       4.438  -4.549  23.587  0.00  0.00    +0.000 C 
ATOM     20  O   UNL     1       4.309  -5.195  22.570  0.00  0.00    +0.000 OA
ATOM     21  N   UNL     1       3.987  -5.020  24.768  0.00  0.00    +0.000 NA
ENDBRANCH  18  19
ENDBRANCH   2  18
BRANCH   5  22
ATOM     22  O   UNL     1       8.692  -0.732  23.548  0.00  0.00    +0.000 OA
BRANCH  22  23
ATOM     23  C   UNL     1      10.016  -0.365  23.516  0.00  0.00    +0.000 C 
ATOM     24  F   UNL     1      10.840  -1.341  23.045  0.00  0.00    +0.000 F 
ATOM     25  C   UNL     1      10.462   0.145  24.864  0.00  0.00    +0.000 C 
ENDBRANCH  22  23
ENDBRANCH   5  22
TORSDOF 6
ENDMDL
MODEL 2
REMARK VINA RESULT:      -6.3      2.213      4.329
REMARK  Name = 
REMARK  6 active torsions:
REMARK  status: ('A' for Active; 'I' for Inactive)
REMARK    1  A    between atoms: N_5  and  C_8
REMARK    2  A    between atoms: C_9  and  C_10
REMARK    3  A    between atoms: C_10  and  C_11
REMARK    4  A    between atoms: C_15  and  C_21
REMARK    5  A    between atoms: C_16  and  O_17
REMARK    6  A    between atoms: O_17  and  C_18
REMARK                            x       y       z     vdW  Elec       q    Type
REMARK                         _______ _______ _______ _____ _____    ______ ____
ROOT
ATOM      1  C   UNL     1       7.437  -2.164  22.967  0.00  0.00    +0.000 C 
ATOM      2  C   UNL     1       8.256  -2.244  24.126  0.00  0.00    +0.000 C 
ATOM      3  C   UNL     1       8.730  -0.757  24.441  0.00  0.00    +0.000 C 
ATOM      4  C   UNL     1       8.219   0.057  23.409  0.00  0.00    +0.000 C 
ATOM      5  C   UNL     1       7.190  -0.660  22.452  0.00  0.00    +0.000 C 
ATOM      6  O   UNL     1       8.768  -0.652  25.856  0.00  0.00    +0.000 OA
ENDROOT
BRANCH   1  11
ATOM      7  O   UNL     1       7.456  -6.464  22.248  0.00  0.00    +0.000 OA
ATOM      8  C   UNL     1       7.182  -5.099  22.517  0.00  0.00    +0.000 C 
ATOM      9  C   UNL     1       6.181  -5.068  23.653  0.00  0.00    +0.000 C 
ATOM     10  C   UNL     1       5.838  -3.641  24.031  0.00  0.00    +0.000 C 
ATOM     11  N   UNL     1       6.120  -2.765  22.892  0.00  0.00    +0.000 N 
ATOM     12  C   UNL     1       5.779  -3.264  21.560  0.00  0.00    +0.000 C 
ATOM     13  C   UNL     1       6.590  -4.507  21.257  0.00  0.00    +0.000 C 
ENDBRANCH   1  11
BRANCH   4  14
ATOM     14  C   UNL     1       9.010   1.148  22.635  0.00  0.00    +0.000 C 
ATOM     15  C   UNL     1       8.074   2.177  22.092  0.00  0.00    +0.000 C 
ATOM     16  C   UNL     1       9.893   1.802  23.734  0.00  0.00    +0.000 C 
ATOM     17  C   UNL     1       9.901   0.534  21.608  0.00  0.00    +0.000 C 
ENDBRANCH   4  14
BRANCH   2  18
ATOM     18  C   UNL     1       9.471  -3.167  24.346  0.00  0.00    +0.000 C 
BRANCH  18  19
ATOM     19  C   UNL     1       9.093  -4.156  25.414  0.00  0.00    +0.000 C 
ATOM     20  O   UNL     1       8.503  -3.850  26.427  0.00  0.00    +0.000 OA
ATOM     21  N   UNL     1       9.581  -5.402  25.246  0.00  0.00    +0.000 NA
ENDBRANCH  18  19
ENDBRANCH   2  18
BRANCH   5  22
ATOM     22  O   UNL     1       7.627  -0.672  21.158  0.00  0.00    +0.000 OA
BRANCH  22  23
ATOM     23  C   UNL     1       6.663  -0.154  20.325  0.00  0.00    +0.000 C 
ATOM     24  F   UNL     1       5.624  -1.004  20.100  0.00  0.00    +0.000 F 
ATOM     25  C   UNL     1       7.277   0.336  19.037  0.00  0.00    +0.000 C 
ENDBRANCH  22  23
ENDBRANCH   5  22
TORSDOF 6
ENDMDL
MODEL 3
REMARK VINA RESULT:      -6.1      2.550      5.200
REMARK  Name = 
REMARK  6 active torsions:
REMARK  status: ('A' for Active; 'I' for Inactive)
REMARK    1  A    between atoms: N_5  and  C_8
REMARK    2  A    between atoms: C_9  and  C_10
REMARK    3  A    between atoms: C_10  and  C_11
REMARK    4  A    between atoms: C_15  and  C_21
REMARK    5  A    between atoms: C_16  and  O_17
REMARK    6  A    between atoms: O_17  and  C_18
REMARK                            x       y       z     vdW  Elec       q    Type
REMARK                         _______ _______ _______ _____ _____    ______ ____
ROOT
ATOM      1  C   UNL     1       7.300  -2.017  23.789  0.00  0.00    +0.000 C 
ATOM      2  C   UNL     1       7.360  -1.650  22.417  0.00  0.00    +0.000 C 
ATOM      3  C   UNL     1       6.556  -2.770  21.620  0.00  0.00    +0.000 C 
ATOM      4  C   UNL     1       6.158  -3.734  22.569  0.00  0.00    +0.000 C 
ATOM      5  C   UNL     1       6.396  -3.317  24.072  0.00  0.00    +0.000 C 
ATOM      6  O   UNL     1       5.896  -2.095  20.560  0.00  0.00    +0.000 OA
ENDROOT
BRANCH   1  11
ATOM      7  O   UNL     1      10.508   0.537  25.270  0.00  0.00    +0.000 OA
ATOM      8  C   UNL     1       9.305  -0.138  24.944  0.00  0.00    +0.000 C 
ATOM      9  C   UNL     1       8.242   0.925  24.759  0.00  0.00    +0.000 C 
ATOM     10  C   UNL     1       6.913   0.299  24.384  0.00  0.00    +0.000 C 
ATOM     11  N   UNL     1       6.898  -1.094  24.833  0.00  0.00    +0.000 N 
ATOM     12  C   UNL     1       7.496  -1.389  26.135  0.00  0.00    +0.000 C 
ATOM     13  C   UNL     1       8.971  -1.042  26.110  0.00  0.00    +0.000 C 
ENDBRANCH   1  11
BRANCH   4  14
ATOM     14  C   UNL     1       6.283  -5.274  22.408  0.00  0.00    +0.000 C 
ATOM     15  C   UNL     1       5.184  -5.962  23.150  0.00  0.00    +0.000 C 
ATOM     16  C   UNL     1       6.075  -5.496  20.884  0.00  0.00    +0.000 C 
ATOM     17  C   UNL     1       7.651  -5.741  22.776  0.00  0.00    +0.000 C 
ENDBRANCH   4  14
BRANCH   2  18
ATOM     18  C   UNL     1       8.622  -1.322  21.594  0.00  0.00    +0.000 C 
BRANCH  18  19
ATOM     19  C   UNL     1       8.520   0.120  21.178  0.00  0.00    +0.000 C 
ATOM     20  O   UNL     1       7.646   0.545  20.456  0.00  0.00    +0.000 OA
ATOM     21  N   UNL     1       9.558   0.901  21.542  0.00  0.00    +0.000 NA
ENDBRANCH  18  19
ENDBRANCH   2  18
BRANCH   5  22
ATOM     22  O   UNL     1       7.239  -4.181  24.710  0.00  0.00    +0.000 OA
BRANCH  22  23
ATOM     23  C   UNL     1       6.637  -4.694  25.834  0.00  0.00    +0.000 C 
ATOM     24  F   UNL     1       5.617  -3.923  26.304  0.00  0.00    +0.000 F 
ATOM     25  C   UNL     1       7.660  -4.986  26.903  0.00  0.00    +0.000 C 
ENDBRANCH  22  23
ENDBRANCH   5  22
TORSDOF 6
ENDMDL
MODEL 4
REMARK VINA RESULT:      -5.8      2.500      4.619
REMARK  Name = 
REMARK  6 active torsions:
REMARK  status: ('A' for Active; 'I' for Inactive)
REMARK    1  A    between atoms: N_5  and  C_8
REMARK    2  A    between atoms: C_9  and  C_10
REMARK    3  A    between atoms: C_10  and  C_11
REMARK    4  A    between atoms: C_15  and  C_21
REMARK    5  A    between atoms: C_16  and  O_17
REMARK    6  A    between atoms: O_17  and  C_18
REMARK                            x       y       z     vdW  Elec       q    Type
REMARK                         _______ _______ _______ _____ _____    ______ ____
ROOT
ATOM      1  C   UNL     1       7.185  -1.215  23.360  0.00  0.00    +0.000 C 
ATOM      2  C   UNL     1       7.661  -0.818  24.640  0.00  0.00    +0.000 C 
ATOM      3  C   UNL     1       7.624   0.774  24.657  0.00  0.00    +0.000 C 
ATOM      4  C   UNL     1       7.207   1.181  23.372  0.00  0.00    +0.000 C 
ATOM      5  C   UNL     1       6.695   0.013  22.444  0.00  0.00    +0.000 C 
ATOM      6  O   UNL     1       7.258   1.141  25.978  0.00  0.00    +0.000 OA
ENDROOT
BRANCH   1  11
ATOM      7  O   UNL     1       8.496  -5.334  23.927  0.00  0.00    +0.000 OA
ATOM      8  C   UNL     1       7.820  -4.103  23.728  0.00  0.00    +0.000 C 
ATOM      9  C   UNL     1       6.560  -4.154  24.566  0.00  0.00    +0.000 C 
ATOM     10  C   UNL     1       5.774  -2.864  24.436  0.00  0.00    +0.000 C 
ATOM     11  N   UNL     1       6.142  -2.205  23.181  0.00  0.00    +0.000 N 
ATOM     12  C   UNL     1       6.339  -3.056  22.007  0.00  0.00    +0.000 C 
ATOM     13  C   UNL     1       7.489  -4.010  22.254  0.00  0.00    +0.000 C 
ENDBRANCH   1  11
BRANCH   4  14
ATOM     14  C   UNL     1       7.857   2.306  22.520  0.00  0.00    +0.000 C 
ATOM     15  C   UNL     1       6.853   2.887  21.579  0.00  0.00    +0.000 C 
ATOM     16  C   UNL     1       8.239   3.383  23.573  0.00  0.00    +0.000 C 
ATOM     17  C   UNL     1       9.104   1.822  21.857  0.00  0.00    +0.000 C 
ENDBRANCH   4  14
BRANCH   2  18
ATOM     18  C   UNL     1       8.974  -1.252  25.322  0.00  0.00    +0.000 C 
BRANCH  18  19
ATOM     19  C   UNL     1      10.105  -0.807  24.435  0.00  0.00    +0.000 C 
ATOM     20  O   UNL     1      10.445  -1.404  23.438  0.00  0.00    +0.000 OA
ATOM     21  N   UNL     1      10.826   0.234  24.899  0.00  0.00    +0.000 NA
ENDBRANCH  18  19
ENDBRANCH   2  18
BRANCH   5  22
ATOM     22  O   UNL     1       7.445  -0.095  21.307  0.00  0.00    +0.000 OA
BRANCH  22  23
ATOM     23  C   UNL     1       6.638  -0.032  20.196  0.00  0.00    +0.000 C 
ATOM     24  F   UNL     1       5.829  -1.117  20.048  0.00  0.00    +0.000 F 
ATOM     25  C   UNL     1       7.455   0.233  18.956  0.00  0.00    +0.000 C 
ENDBRANCH  22  23
ENDBRANCH   5  22
TORSDOF 6
ENDMDL
MODEL 5
REMARK VINA RESULT:      -5.6      2.613      3.981
REMARK  Name = 
REMARK  6 active torsions:
REMARK  status: ('A' for Active; 'I' for Inactive)
REMARK    1  A    between atoms: N_5  and  C_8
REMARK    2  A    between atoms: C_9  and  C_10
REMARK    3  A    between atoms: C_10  and  C_11
REMARK    4  A    between atoms: C_15  and  C_21
REMARK    5  A    between atoms: C_16  and  O_17
REMARK    6  A    between atoms: O_17  and  C_18
REMARK                            x       y       z     vdW  Elec       q    Type
REMARK                         _______ _______ _______ _____ _____    ______ ____
ROOT
ATOM      1  C   UNL     1       7.043  -1.049  23.839  0.00  0.00    +0.000 C 
ATOM      2  C   UNL     1       6.125  -0.740  24.881  0.00  0.00    +0.000 C 
ATOM      3  C   UNL     1       5.900   0.836  24.823  0.00  0.00    +0.000 C 
ATOM      4  C   UNL     1       6.753   1.329  23.814  0.00  0.00    +0.000 C 
ATOM      5  C   UNL     1       7.443   0.217  22.932  0.00  0.00    +0.000 C 
ATOM      6  O   UNL     1       4.537   1.047  25.156  0.00  0.00    +0.000 OA
ENDROOT
BRANCH   1  11
ATOM      7  O   UNL     1       7.448  -5.095  25.413  0.00  0.00    +0.000 OA
ATOM      8  C   UNL     1       7.225  -3.904  24.677  0.00  0.00    +0.000 C 
ATOM      9  C   UNL     1       5.913  -4.081  23.942  0.00  0.00    +0.000 C 
ATOM     10  C   UNL     1       5.573  -2.842  23.138  0.00  0.00    +0.000 C 
ATOM     11  N   UNL     1       6.804  -2.098  22.867  0.00  0.00    +0.000 N 
ATOM     12  C   UNL     1       8.000  -2.871  22.536  0.00  0.00    +0.000 C 
ATOM     13  C   UNL     1       8.376  -3.758  23.706  0.00  0.00    +0.000 C 
ENDBRANCH   1  11
BRANCH   4  14
ATOM     14  C   UNL     1       7.672   2.577  23.929  0.00  0.00    +0.000 C 
ATOM     15  C   UNL     1       7.868   3.199  22.586  0.00  0.00    +0.000 C 
ATOM     16  C   UNL     1       6.849   3.551  24.818  0.00  0.00    +0.000 C 
ATOM     17  C   UNL     1       8.942   2.242  24.637  0.00  0.00    +0.000 C 
ENDBRANCH   4  14
BRANCH   2  18
ATOM     18  C   UNL     1       6.236  -1.131  26.368  0.00  0.00    +0.000 C 
BRANCH  18  19
ATOM     19  C   UNL     1       7.523  -0.551  26.887  0.00  0.00    +0.000 C 
ATOM     20  O   UNL     1       8.614  -1.005  26.623  0.00  0.00    +0.000 OA
ATOM     21  N   UNL     1       7.385   0.436  27.797  0.00  0.00    +0.000 NA
ENDBRANCH  18  19
ENDBRANCH   2  18
BRANCH   5  22
ATOM     22  O   UNL     1       8.805   0.276  23.019  0.00  0.00    +0.000 OA
BRANCH  22  23
ATOM     23  C   UNL     1       9.365   0.236  21.764  0.00  0.00    +0.000 C 
ATOM     24  F   UNL     1      10.297   1.206  21.553  0.00  0.00    +0.000 F 
ATOM     25  C   UNL     1       8.295   0.244  20.700  0.00  0.00    +0.000 C 
ENDBRANCH  22  23
ENDBRANCH   5  22
TORSDOF 6
ENDMDL
MODEL 6
REMARK VINA RESULT:      -5.6      2.358      3.403
REMARK  Name = 
REMARK  6 active torsions:
REMARK  status: ('A' for Active; 'I' for Inactive)
REMARK    1  A    between atoms: N_5  and  C_8
REMARK    2  A    between atoms: C_9  and  C_10
REMARK    3  A    between atoms: C_10  and  C_11
REMARK    4  A    between atoms: C_15  and  C_21
REMARK    5  A    between atoms: C_16  and  O_17
REMARK    6  A    between atoms: O_17  and  C_18
REMARK                            x       y       z     vdW  Elec       q    Type
REMARK                         _______ _______ _______ _____ _____    ______ ____
ROOT
ATOM      1  C   UNL     1       8.072  -2.149  24.824  0.00  0.00    +0.000 C 
ATOM      2  C   UNL     1       8.675  -2.627  23.628  0.00  0.00    +0.000 C 
ATOM      3  C   UNL     1       9.518  -1.412  23.037  0.00  0.00    +0.000 C 
ATOM      4  C   UNL     1       9.283  -0.309  23.883  0.00  0.00    +0.000 C 
ATOM      5  C   UNL     1       8.508  -0.651  25.214  0.00  0.00    +0.000 C 
ATOM      6  O   UNL     1      10.681  -1.988  22.462  0.00  0.00    +0.000 OA
ENDROOT
BRANCH   1  11
ATOM      7  O   UNL     1       5.764  -5.845  24.958  0.00  0.00    +0.000 OA
ATOM      8  C   UNL     1       6.610  -4.725  25.156  0.00  0.00    +0.000 C 
ATOM      9  C   UNL     1       7.905  -5.250  25.739  0.00  0.00    +0.000 C 
ATOM     10  C   UNL     1       8.890  -4.122  25.968  0.00  0.00    +0.000 C 
ATOM     11  N   UNL     1       8.154  -2.862  26.084  0.00  0.00    +0.000 N 
ATOM     12  C   UNL     1       6.893  -2.885  26.825  0.00  0.00    +0.000 C 
ATOM     13  C   UNL     1       5.909  -3.805  26.132  0.00  0.00    +0.000 C 
ENDBRANCH   1  11
BRANCH   4  14
ATOM     14  C   UNL     1       8.954   1.138  23.421  0.00  0.00    +0.000 C 
ATOM     15  C   UNL     1       9.435   2.126  24.432  0.00  0.00    +0.000 C 
ATOM     16  C   UNL     1       9.791   1.301  22.121  0.00  0.00    +0.000 C 
ATOM     17  C   UNL     1       7.508   1.273  23.078  0.00  0.00    +0.000 C 
ENDBRANCH   4  14
BRANCH   2  18
ATOM     18  C   UNL     1       7.972  -3.316  22.441  0.00  0.00    +0.000 C 
BRANCH  18  19
ATOM     19  C   UNL     1       6.833  -2.428  22.021  0.00  0.00    +0.000 C 
ATOM     20  O   UNL     1       6.972  -1.458  21.308  0.00  0.00    +0.000 OA
ATOM     21  N   UNL     1       5.648  -2.691  22.609  0.00  0.00    +0.000 NA
ENDBRANCH  18  19
ENDBRANCH   2  18
BRANCH   5  22
ATOM     22  O   UNL     1       7.328   0.030  25.301  0.00  0.00    +0.000 OA
BRANCH  22  23
ATOM     23  C   UNL     1       7.206   0.616  26.539  0.00  0.00    +0.000 C 
ATOM     24  F   UNL     1       8.040   0.087  27.476  0.00  0.00    +0.000 F 
ATOM     25  C   UNL     1       5.769   0.606  26.997  0.00  0.00    +0.000 C 
ENDBRANCH  22  23
ENDBRANCH   5  22
TORSDOF 6
ENDMDL
MODEL 7
REMARK VINA RESULT:      -5.5      2.694      3.833
REMARK  Name = 
REMARK  6 active torsions:
REMARK  status: ('A' for Active; 'I' for Inactive)
REMARK    1  A    between atoms: N_5  and  C_8
REMARK    2  A    between atoms: C_9  and  C_10
REMARK    3  A    between atoms: C_10  and  C_11
REMARK    4  A    between atoms: C_15  and  C_21
REMARK    5  A    between atoms: C_16  and  O_17
REMARK    6  A    between atoms: O_17  and  C_18
REMARK                            x       y       z     vdW  Elec       q    Type
REMARK                         _______ _______ _______ _____ _____    ______ ____
ROOT
ATOM      1  C   UNL     1       7.438  -0.852  24.018  0.00  0.00    +0.000 C 
ATOM      2  C   UNL     1       6.602  -1.227  25.105  0.00  0.00    +0.000 C 
ATOM      3  C   UNL     1       5.653   0.020  25.390  0.00  0.00    +0.000 C 
ATOM      4  C   UNL     1       6.057   1.043  24.507  0.00  0.00    +0.000 C 
ATOM      5  C   UNL     1       7.091   0.593  23.404  0.00  0.00    +0.000 C 
ATOM      6  O   UNL     1       4.397  -0.523  25.765  0.00  0.00    +0.000 OA
ENDROOT
BRANCH   1  11
ATOM      7  O   UNL     1      10.104  -4.251  24.608  0.00  0.00    +0.000 OA
ATOM      8  C   UNL     1       9.188  -3.260  24.174  0.00  0.00    +0.000 C 
ATOM      9  C   UNL     1       8.056  -3.983  23.475  0.00  0.00    +0.000 C 
ATOM     10  C   UNL     1       7.006  -3.003  22.990  0.00  0.00    +0.000 C 
ATOM     11  N   UNL     1       7.620  -1.682  22.844  0.00  0.00    +0.000 N 
ATOM     12  C   UNL     1       8.974  -1.626  22.293  0.00  0.00    +0.000 C 
ATOM     13  C   UNL     1       9.930  -2.358  23.212  0.00  0.00    +0.000 C 
ENDBRANCH   1  11
BRANCH   4  14
ATOM     14  C   UNL     1       6.282   2.534  24.885  0.00  0.00    +0.000 C 
ATOM     15  C   UNL     1       6.091   3.405  23.688  0.00  0.00    +0.000 C 
ATOM     16  C   UNL     1       5.145   2.824  25.904  0.00  0.00    +0.000 C 
ATOM     17  C   UNL     1       7.595   2.719  25.570  0.00  0.00    +0.000 C 
ENDBRANCH   4  14
BRANCH   2  18
ATOM     18  C   UNL     1       7.044  -1.786  26.472  0.00  0.00    +0.000 C 
BRANCH  18  19
ATOM     19  C   UNL     1       6.507  -3.187  26.577  0.00  0.00    +0.000 C 
ATOM     20  O   UNL     1       5.371  -3.489  26.282  0.00  0.00    +0.000 OA
ATOM     21  N   UNL     1       7.331  -4.079  27.163  0.00  0.00    +0.000 NA
ENDBRANCH  18  19
ENDBRANCH   2  18
BRANCH   5  22
ATOM     22  O   UNL     1       8.264   1.288  23.496  0.00  0.00    +0.000 OA
BRANCH  22  23
ATOM     23  C   UNL     1       8.601   1.819  22.274  0.00  0.00    +0.000 C 
ATOM     24  F   UNL     1       7.941   1.245  21.230  0.00  0.00    +0.000 F 
ATOM     25  C   UNL     1      10.096   1.796  22.074  0.00  0.00    +0.000 C 
ENDBRANCH  22  23
ENDBRANCH   5  22
TORSDOF 6
ENDMDL
MODEL 8
REMARK VINA RESULT:      -5.3      3.122      5.896
REMARK  Name = 
REMARK  6 active torsions:
REMARK  status: ('A' for Active; 'I' for Inactive)
REMARK    1  A    between atoms: N_5  and  C_8
REMARK    2  A    between atoms: C_9  and  C_10
REMARK    3  A    between atoms: C_10  and  C_11
REMARK    4  A    between atoms: C_15  and  C_21
REMARK    5  A    between atoms: C_16  and  O_17
REMARK    6  A    between atoms: O_17  and  C_18
REMARK                            x       y       z     vdW  Elec       q    Type
REMARK                         _______ _______ _______ _____ _____    ______ ____
ROOT
ATOM      1  C   UNL     1       7.964   0.928  23.794  0.00  0.00    +0.000 C 
ATOM      2  C   UNL     1       7.809   0.761  25.198  0.00  0.00    +0.000 C 
ATOM      3  C   UNL     1       7.914  -0.803  25.476  0.00  0.00    +0.000 C 
ATOM      4  C   UNL     1       8.045  -1.428  24.218  0.00  0.00    +0.000 C 
ATOM      5  C   UNL     1       8.284  -0.440  23.012  0.00  0.00    +0.000 C 
ATOM      6  O   UNL     1       8.586  -0.934  26.719  0.00  0.00    +0.000 OA
ENDROOT
BRANCH   1  11
ATOM      7  O   UNL     1       6.758   5.102  24.153  0.00  0.00    +0.000 OA
ATOM      8  C   UNL     1       7.384   3.848  23.941  0.00  0.00    +0.000 C 
ATOM      9  C   UNL     1       8.822   3.992  24.394  0.00  0.00    +0.000 C 
ATOM     10  C   UNL     1       9.573   2.686  24.226  0.00  0.00    +0.000 C 
ATOM     11  N   UNL     1       8.897   1.873  23.214  0.00  0.00    +0.000 N 
ATOM     12  C   UNL     1       8.372   2.564  22.036  0.00  0.00    +0.000 C 
ATOM     13  C   UNL     1       7.309   3.557  22.458  0.00  0.00    +0.000 C 
ENDBRANCH   1  11
BRANCH   4  14
ATOM     14  C   UNL     1       7.265  -2.686  23.743  0.00  0.00    +0.000 C 
ATOM     15  C   UNL     1       8.028  -3.391  22.669  0.00  0.00    +0.000 C 
ATOM     16  C   UNL     1       7.230  -3.588  25.008  0.00  0.00    +0.000 C 
ATOM     17  C   UNL     1       5.865  -2.336  23.366  0.00  0.00    +0.000 C 
ENDBRANCH   4  14
BRANCH   2  18
ATOM     18  C   UNL     1       6.668   1.306  26.081  0.00  0.00    +0.000 C 
BRANCH  18  19
ATOM     19  C   UNL     1       5.372   0.927  25.419  0.00  0.00    +0.000 C 
ATOM     20  O   UNL     1       4.856   1.581  24.539  0.00  0.00    +0.000 OA
ATOM     21  N   UNL     1       4.729  -0.124  25.968  0.00  0.00    +0.000 NA
ENDBRANCH  18  19
ENDBRANCH   2  18
BRANCH   5  22
ATOM     22  O   UNL     1       7.291  -0.533  22.078  0.00  0.00    +0.000 OA
BRANCH  22  23
ATOM     23  C   UNL     1       7.830  -0.640  20.818  0.00  0.00    +0.000 C 
ATOM     24  F   UNL     1       9.154  -0.328  20.765  0.00  0.00    +0.000 F 
ATOM     25  C   UNL     1       7.025   0.157  19.822  0.00  0.00    +0.000 C 
ENDBRANCH  22  23
ENDBRANCH   5  22
TORSDOF 6
ENDMDL
MODEL 9
REMARK VINA RESULT:      -5.3      2.064      4.517
REMARK  Name = 
REMARK  6 active torsions:
REMARK  status: ('A' for Active; 'I' for Inactive)
REMARK    1  A    between atoms: N_5  and  C_8
REMARK    2  A    between atoms: C_9  and  C_10
REMARK    3  A    between atoms: C_10  and  C_11
REMARK    4  A    between atoms: C_15  and  C_21
REMARK    5  A    between atoms: C_16  and  O_17
REMARK    6  A    between atoms: O_17  and  C_18
REMARK                            x       y       z     vdW  Elec       q    Type
REMARK                         _______ _______ _______ _____ _____    ______ ____
ROOT
ATOM      1  C   UNL     1       6.577  -3.010  23.918  0.00  0.00    +0.000 C 
ATOM      2  C   UNL     1       6.483  -3.590  25.212  0.00  0.00    +0.000 C 
ATOM      3  C   UNL     1       6.833  -2.432  26.247  0.00  0.00    +0.000 C 
ATOM      4  C   UNL     1       7.175  -1.298  25.483  0.00  0.00    +0.000 C 
ATOM      5  C   UNL     1       6.885  -1.432  23.938  0.00  0.00    +0.000 C 
ATOM      6  O   UNL     1       5.998  -2.650  27.374  0.00  0.00    +0.000 OA
ENDROOT
BRANCH   1  11
ATOM      7  O   UNL     1       6.433  -6.888  21.931  0.00  0.00    +0.000 OA
ATOM      8  C   UNL     1       6.247  -5.579  22.443  0.00  0.00    +0.000 C 
ATOM      9  C   UNL     1       4.773  -5.434  22.755  0.00  0.00    +0.000 C 
ATOM     10  C   UNL     1       4.475  -4.064  23.333  0.00  0.00    +0.000 C 
ATOM     11  N   UNL     1       5.530  -3.135  22.923  0.00  0.00    +0.000 N 
ATOM     12  C   UNL     1       6.035  -3.251  21.555  0.00  0.00    +0.000 C 
ATOM     13  C   UNL     1       6.669  -4.612  21.358  0.00  0.00    +0.000 C 
ENDBRANCH   1  11
BRANCH   4  14
ATOM     14  C   UNL     1       8.400  -0.372  25.726  0.00  0.00    +0.000 C 
ATOM     15  C   UNL     1       8.060   1.038  25.370  0.00  0.00    +0.000 C 
ATOM     16  C   UNL     1       8.621  -0.463  27.262  0.00  0.00    +0.000 C 
ATOM     17  C   UNL     1       9.613  -0.899  25.036  0.00  0.00    +0.000 C 
ENDBRANCH   4  14
BRANCH   2  18
ATOM     18  C   UNL     1       7.177  -4.874  25.711  0.00  0.00    +0.000 C 
BRANCH  18  19
ATOM     19  C   UNL     1       8.656  -4.601  25.733  0.00  0.00    +0.000 C 
ATOM     20  O   UNL     1       9.258  -4.266  26.729  0.00  0.00    +0.000 OA
ATOM     21  N   UNL     1       9.263  -4.610  24.528  0.00  0.00    +0.000 NA
ENDBRANCH  18  19
ENDBRANCH   2  18
BRANCH   5  22
ATOM     22  O   UNL     1       8.025  -1.303  23.196  0.00  0.00    +0.000 OA
BRANCH  22  23
ATOM     23  C   UNL     1       7.874  -0.308  22.259  0.00  0.00    +0.000 C 
ATOM     24  F   UNL     1       6.576  -0.057  21.936  0.00  0.00    +0.000 F 
ATOM     25  C   UNL     1       8.713  -0.593  21.037  0.00  0.00    +0.000 C 
ENDBRANCH  22  23
ENDBRANCH   5  22
TORSDOF 6
ENDMDL
