MODEL 1
REMARK VINA RESULT:      -7.8      0.000      0.000
REMARK  Name = 
REMARK  8 active torsions:
REMARK  status: ('A' for Active; 'I' for Inactive)
REMARK    1  A    between atoms: N_7  and  C_10
REMARK    2  A    between atoms: C_10  and  C_11
REMARK    3  A    between atoms: C_11  and  C_12
REMARK    4  A    between atoms: N_14  and  C_15
REMARK    5  A    between atoms: N_14  and  C_25
REMARK    6  A    between atoms: C_20  and  C_21
REMARK    7  A    between atoms: C_25  and  C_26
REMARK    8  A    between atoms: C_31  and  C_32
REMARK                            x       y       z     vdW  Elec       q    Type
REMARK                         _______ _______ _______ _____ _____    ______ ____
ROOT
ATOM      1  C   UNL     1       7.179  -2.996  22.220  0.00  0.00    +0.000 C 
ATOM      2  O   UNL     1       7.764  -3.957  22.761  0.00  0.00    +0.000 OA
ATOM      3  N   UNL     1       7.808  -1.761  22.455  0.00  0.00    +0.000 N 
ENDROOT
BRANCH   3   4
ATOM      4  C   UNL     1       7.540  -1.619  23.785  0.00  0.00    +0.000 A 
ATOM      5  C   UNL     1       6.335  -0.485  23.890  0.00  0.00    +0.000 A 
ATOM      6  C   UNL     1       6.734   0.528  24.928  0.00  0.00    +0.000 A 
ATOM      7  C   UNL     1       8.011   0.888  25.646  0.00  0.00    +0.000 A 
ATOM      8  C   UNL     1       9.124  -0.163  25.487  0.00  0.00    +0.000 A 
ATOM      9  C   UNL     1       8.588  -1.391  24.793  0.00  0.00    +0.000 A 
ATOM     10  C   UNL     1      10.480   0.304  25.164  0.00  0.00    +0.000 C 
BRANCH   9  11
ATOM     11  C   UNL     1       8.725  -2.454  25.821  0.00  0.00    +0.000 C 
ATOM     12  O   UNL     1       9.214  -3.505  25.535  0.00  0.00    +0.000 OA
ATOM     13  N   UNL     1       7.722  -2.287  26.683  0.00  0.00    +0.000 NA
ENDBRANCH   9  11
ENDBRANCH   3   4
BRANCH   1  14
ATOM     14  C   UNL     1       5.672  -2.903  22.446  0.00  0.00    +0.000 C 
BRANCH  14  15
ATOM     15  C   UNL     1       5.094  -4.284  22.391  0.00  0.00    +0.000 C 
BRANCH  15  22
ATOM     16  C   UNL     1       5.477  -4.928  28.488  0.00  0.00    +0.000 C 
ATOM     17  C   UNL     1       5.057  -5.974  27.471  0.00  0.00    +0.000 C 
ATOM     18  O   UNL     1       5.477  -7.111  27.556  0.00  0.00    +0.000 OA
ATOM     19  N   UNL     1       4.529  -5.488  26.319  0.00  0.00    +0.000 N 
ATOM     20  C   UNL     1       4.829  -4.113  25.951  0.00  0.00    +0.000 C 
ATOM     21  C   UNL     1       4.389  -3.761  24.578  0.00  0.00    +0.000 C 
ATOM     22  N   UNL     1       4.478  -4.705  23.583  0.00  0.00    +0.000 NA
ATOM     23  C   UNL     1       5.036  -5.948  24.009  0.00  0.00    +0.000 C 
ATOM     24  C   UNL     1       4.262  -6.442  25.234  0.00  0.00    +0.000 C 
ENDBRANCH  15  22
ENDBRANCH  14  15
ENDBRANCH   1  14
BRANCH   3  25
ATOM     25  C   UNL     1       8.958  -1.458  21.728  0.00  0.00    +0.000 C 
BRANCH  25  26
ATOM     26  C   UNL     1       8.719  -0.183  20.902  0.00  0.00    +0.000 A 
ATOM     27  C   UNL     1       9.712   0.952  21.663  0.00  0.00    +0.000 A 
ATOM     28  N   UNL     1       8.851   1.917  22.085  0.00  0.00    +0.000 NA
ATOM     29  C   UNL     1       7.686   2.438  21.879  0.00  0.00    +0.000 A 
ATOM     30  C   UNL     1       6.590   1.449  21.287  0.00  0.00    +0.000 A 
ATOM     31  C   UNL     1       7.427   0.378  20.558  0.00  0.00    +0.000 A 
BRANCH  31  32
ATOM     32  C   UNL     1       7.101   0.495  19.145  0.00  0.00    +0.000 C 
ATOM     33  O   UNL     1       7.743  -0.050  18.251  0.00  0.00    +0.000 OA
ATOM     34  O   UNL     1       5.747   0.440  19.018  0.00  0.00    +0.000 OA
ENDBRANCH  31  32
ENDBRANCH  25  26
ENDBRANCH   3  25
TORSDOF 8
ENDMDL
MODEL 2
REMARK VINA RESULT:      -7.6      1.824      4.445
REMARK  Name = 
REMARK  8 active torsions:
REMARK  status: ('A' for Active; 'I' for Inactive)
REMARK    1  A    between atoms: N_7  and  C_10
REMARK    2  A    between atoms: C_10  and  C_11
REMARK    3  A    between atoms: C_11  and  C_12
REMARK    4  A    between atoms: N_14  and  C_15
REMARK    5  A    between atoms: N_14  and  C_25
REMARK    6  A    between atoms: C_20  and  C_21
REMARK    7  A    between atoms: C_25  and  C_26
REMARK    8  A    between atoms: C_31  and  C_32
REMARK                            x       y       z     vdW  Elec       q    Type
REMARK                         _______ _______ _______ _____ _____    ______ ____
ROOT
ATOM      1  C   UNL     1       6.339  -3.098  22.440  0.00  0.00    +0.000 C 
ATOM      2  O   UNL     1       5.523  -2.951  21.507  0.00  0.00    +0.000 OA
ATOM      3  N   UNL     1       6.856  -1.883  22.920  0.00  0.00    +0.000 N 
ENDROOT
BRANCH   3   4
ATOM      4  C   UNL     1       7.624  -1.524  21.850  0.00  0.00    +0.000 A 
ATOM      5  C   UNL     1       9.196  -1.775  22.312  0.00  0.00    +0.000 A 
ATOM      6  C   UNL     1       9.987  -0.543  21.966  0.00  0.00    +0.000 A 
ATOM      7  C   UNL     1       9.656   0.878  21.584  0.00  0.00    +0.000 A 
ATOM      8  C   UNL     1       8.177   1.085  21.210  0.00  0.00    +0.000 A 
ATOM      9  C   UNL     1       7.464  -0.242  21.145  0.00  0.00    +0.000 A 
ATOM     10  C   UNL     1       7.473   2.246  21.774  0.00  0.00    +0.000 C 
BRANCH   9  11
ATOM     11  C   UNL     1       7.061  -0.347  19.718  0.00  0.00    +0.000 C 
ATOM     12  O   UNL     1       7.819  -0.019  18.856  0.00  0.00    +0.000 OA
ATOM     13  N   UNL     1       5.740  -0.181  19.678  0.00  0.00    +0.000 NA
ENDBRANCH   9  11
ENDBRANCH   3   4
BRANCH   1  14
ATOM     14  C   UNL     1       7.447  -4.125  22.220  0.00  0.00    +0.000 C 
BRANCH  14  15
ATOM     15  C   UNL     1       7.255  -5.251  23.189  0.00  0.00    +0.000 C 
BRANCH  15  22
ATOM     16  C   UNL     1       6.262  -6.482  29.125  0.00  0.00    +0.000 C 
ATOM     17  C   UNL     1       5.227  -6.171  28.058  0.00  0.00    +0.000 C 
ATOM     18  O   UNL     1       4.206  -6.825  27.990  0.00  0.00    +0.000 OA
ATOM     19  N   UNL     1       5.671  -5.420  27.018  0.00  0.00    +0.000 N 
ATOM     20  C   UNL     1       7.101  -5.382  26.758  0.00  0.00    +0.000 C 
ATOM     21  C   UNL     1       7.449  -4.718  25.477  0.00  0.00    +0.000 C 
ATOM     22  N   UNL     1       6.623  -4.883  24.391  0.00  0.00    +0.000 NA
ATOM     23  C   UNL     1       5.503  -5.733  24.635  0.00  0.00    +0.000 C 
ATOM     24  C   UNL     1       4.764  -5.230  25.878  0.00  0.00    +0.000 C 
ENDBRANCH  15  22
ENDBRANCH  14  15
ENDBRANCH   1  14
BRANCH   3  25
ATOM     25  C   UNL     1       6.054  -1.108  23.756  0.00  0.00    +0.000 C 
BRANCH  25  26
ATOM     26  C   UNL     1       6.840  -0.747  25.028  0.00  0.00    +0.000 A 
ATOM     27  C   UNL     1       5.622  -0.321  26.117  0.00  0.00    +0.000 A 
ATOM     28  N   UNL     1       5.898   0.973  26.435  0.00  0.00    +0.000 NA
ATOM     29  C   UNL     1       6.839   1.858  26.478  0.00  0.00    +0.000 A 
ATOM     30  C   UNL     1       8.003   1.670  25.411  0.00  0.00    +0.000 A 
ATOM     31  C   UNL     1       7.969   0.159  25.102  0.00  0.00    +0.000 A 
BRANCH  31  32
ATOM     32  C   UNL     1       9.236  -0.383  25.569  0.00  0.00    +0.000 C 
ATOM     33  O   UNL     1      10.324   0.142  25.347  0.00  0.00    +0.000 OA
ATOM     34  O   UNL     1       9.055  -0.854  26.832  0.00  0.00    +0.000 OA
ENDBRANCH  31  32
ENDBRANCH  25  26
ENDBRANCH   3  25
TORSDOF 8
ENDMDL
MODEL 3
REMARK VINA RESULT:      -7.5      2.002      7.825
REMARK  Name = 
REMARK  8 active torsions:
REMARK  status: ('A' for Active; 'I' for Inactive)
REMARK    1  A    between atoms: N_7  and  C_10
REMARK    2  A    between atoms: C_10  and  C_11
REMARK    3  A    between atoms: C_11  and  C_12
REMARK    4  A    between atoms: N_14  and  C_15
REMARK    5  A    between atoms: N_14  and  C_25
REMARK    6  A    between atoms: C_20  and  C_21
REMARK    7  A    between atoms: C_25  and  C_26
REMARK    8  A    between atoms: C_31  and  C_32
REMARK                            x       y       z     vdW  Elec       q    Type
REMARK                         _______ _______ _______ _____ _____    ______ ____
ROOT
ATOM      1  C   UNL     1       8.535  -3.803  25.323  0.00  0.00    +0.000 C 
ATOM      2  O   UNL     1       9.163  -4.462  24.469  0.00  0.00    +0.000 OA
ATOM      3  N   UNL     1       7.300  -4.379  25.668  0.00  0.00    +0.000 N 
ENDROOT
BRANCH   3   4
ATOM      4  C   UNL     1       6.618  -4.168  24.505  0.00  0.00    +0.000 A 
ATOM      5  C   UNL     1       5.552  -2.937  24.817  0.00  0.00    +0.000 A 
ATOM      6  C   UNL     1       4.196  -3.353  24.318  0.00  0.00    +0.000 A 
ATOM      7  C   UNL     1       3.559  -4.650  23.885  0.00  0.00    +0.000 A 
ATOM      8  C   UNL     1       4.573  -5.786  23.652  0.00  0.00    +0.000 A 
ATOM      9  C   UNL     1       5.982  -5.255  23.742  0.00  0.00    +0.000 A 
ATOM     10  C   UNL     1       4.273  -7.111  24.213  0.00  0.00    +0.000 C 
BRANCH   9  11
ATOM     11  C   UNL     1       6.519  -5.469  22.373  0.00  0.00    +0.000 C 
ATOM     12  O   UNL     1       6.948  -6.538  22.059  0.00  0.00    +0.000 OA
ATOM     13  N   UNL     1       7.008  -4.299  21.965  0.00  0.00    +0.000 NA
ENDBRANCH   9  11
ENDBRANCH   3   4
BRANCH   1  14
ATOM     14  C   UNL     1       8.395  -2.306  25.059  0.00  0.00    +0.000 C 
BRANCH  14  15
ATOM     15  C   UNL     1       9.380  -1.912  24.002  0.00  0.00    +0.000 C 
BRANCH  15  22
ATOM     16  C   UNL     1       5.748  -0.314  19.314  0.00  0.00    +0.000 C 
ATOM     17  C   UNL     1       7.229  -0.026  19.476  0.00  0.00    +0.000 C 
ATOM     18  O   UNL     1       7.986  -0.173  18.538  0.00  0.00    +0.000 OA
ATOM     19  N   UNL     1       7.674   0.027  20.757  0.00  0.00    +0.000 N 
ATOM     20  C   UNL     1       6.885  -0.629  21.788  0.00  0.00    +0.000 C 
ATOM     21  C   UNL     1       7.573  -0.697  23.102  0.00  0.00    +0.000 C 
ATOM     22  N   UNL     1       8.931  -0.898  23.137  0.00  0.00    +0.000 NA
ATOM     23  C   UNL     1       9.531  -1.051  21.851  0.00  0.00    +0.000 C 
ATOM     24  C   UNL     1       9.124   0.135  20.973  0.00  0.00    +0.000 C 
ENDBRANCH  15  22
ENDBRANCH  14  15
ENDBRANCH   1  14
BRANCH   3  25
ATOM     25  C   UNL     1       7.300  -5.476  26.528  0.00  0.00    +0.000 C 
BRANCH  25  26
ATOM     26  C   UNL     1       6.322  -5.217  27.686  0.00  0.00    +0.000 A 
ATOM     27  C   UNL     1       6.667  -6.474  28.761  0.00  0.00    +0.000 A 
ATOM     28  N   UNL     1       5.493  -7.157  28.861  0.00  0.00    +0.000 NA
ATOM     29  C   UNL     1       4.213  -7.055  28.718  0.00  0.00    +0.000 A 
ATOM     30  C   UNL     1       3.728  -5.999  27.633  0.00  0.00    +0.000 A 
ATOM     31  C   UNL     1       4.896  -4.993  27.561  0.00  0.00    +0.000 A 
BRANCH  31  32
ATOM     32  C   UNL     1       4.371  -3.722  28.038  0.00  0.00    +0.000 C 
ATOM     33  O   UNL     1       5.014  -2.676  28.036  0.00  0.00    +0.000 OA
ATOM     34  O   UNL     1       3.076  -3.620  27.631  0.00  0.00    +0.000 OA
ENDBRANCH  31  32
ENDBRANCH  25  26
ENDBRANCH   3  25
TORSDOF 8
ENDMDL
MODEL 4
REMARK VINA RESULT:      -7.4      2.431      6.597
REMARK  Name = 
REMARK  8 active torsions:
REMARK  status: ('A' for Active; 'I' for Inactive)
REMARK    1  A    between atoms: N_7  and  C_10
REMARK    2  A    between atoms: C_10  and  C_11
REMARK    3  A    between atoms: C_11  and  C_12
REMARK    4  A    between atoms: N_14  and  C_15
REMARK    5  A    between atoms: N_14  and  C_25
REMARK    6  A    between atoms: C_20  and  C_21
REMARK    7  A    between atoms: C_25  and  C_26
REMARK    8  A    between atoms: C_31  and  C_32
REMARK                            x       y       z     vdW  Elec       q    Type
REMARK                         _______ _______ _______ _____ _____    ______ ____
ROOT
ATOM      1  C   UNL     1       6.307  -3.580  21.784  0.00  0.00    +0.000 C 
ATOM      2  O   UNL     1       5.632  -4.409  21.140  0.00  0.00    +0.000 OA
ATOM      3  N   UNL     1       6.464  -3.925  23.138  0.00  0.00    +0.000 N 
ENDROOT
BRANCH   3   4
ATOM      4  C   UNL     1       5.185  -3.733  23.571  0.00  0.00    +0.000 A 
ATOM      5  C   UNL     1       5.238  -2.423  24.586  0.00  0.00    +0.000 A 
ATOM      6  C   UNL     1       4.504  -2.779  25.850  0.00  0.00    +0.000 A 
ATOM      7  C   UNL     1       4.009  -4.055  26.484  0.00  0.00    +0.000 A 
ATOM      8  C   UNL     1       4.020  -5.262  25.528  0.00  0.00    +0.000 A 
ATOM      9  C   UNL     1       4.357  -4.816  24.128  0.00  0.00    +0.000 A 
ATOM     10  C   UNL     1       4.564  -6.535  26.023  0.00  0.00    +0.000 C 
BRANCH   9  11
ATOM     11  C   UNL     1       3.126  -5.136  23.359  0.00  0.00    +0.000 C 
ATOM     12  O   UNL     1       2.057  -4.810  23.777  0.00  0.00    +0.000 OA
ATOM     13  N   UNL     1       3.375  -6.259  22.687  0.00  0.00    +0.000 NA
ENDBRANCH   9  11
ENDBRANCH   3   4
BRANCH   1  14
ATOM     14  C   UNL     1       5.913  -2.114  21.628  0.00  0.00    +0.000 C 
BRANCH  14  15
ATOM     15  C   UNL     1       7.007  -1.400  20.894  0.00  0.00    +0.000 C 
BRANCH  15  22
ATOM     16  C   UNL     1      10.730   2.726  23.510  0.00  0.00    +0.000 C 
ATOM     17  C   UNL     1       9.270   2.463  23.831  0.00  0.00    +0.000 C 
ATOM     18  O   UNL     1       8.899   2.407  24.986  0.00  0.00    +0.000 OA
ATOM     19  N   UNL     1       8.536   1.943  22.815  0.00  0.00    +0.000 N 
ATOM     20  C   UNL     1       9.236   1.263  21.737  0.00  0.00    +0.000 C 
ATOM     21  C   UNL     1       8.330   0.548  20.804  0.00  0.00    +0.000 C 
ATOM     22  N   UNL     1       7.208  -0.069  21.301  0.00  0.00    +0.000 NA
ATOM     23  C   UNL     1       7.065   0.036  22.718  0.00  0.00    +0.000 C 
ATOM     24  C   UNL     1       7.163   1.512  23.115  0.00  0.00    +0.000 C 
ENDBRANCH  15  22
ENDBRANCH  14  15
ENDBRANCH   1  14
BRANCH   3  25
ATOM     25  C   UNL     1       7.389  -4.916  23.463  0.00  0.00    +0.000 C 
BRANCH  25  26
ATOM     26  C   UNL     1       8.606  -4.274  24.149  0.00  0.00    +0.000 A 
ATOM     27  C   UNL     1       8.737  -5.151  25.586  0.00  0.00    +0.000 A 
ATOM     28  N   UNL     1       8.587  -4.214  26.562  0.00  0.00    +0.000 NA
ATOM     29  C   UNL     1       8.689  -2.952  26.820  0.00  0.00    +0.000 A 
ATOM     30  C   UNL     1       8.454  -1.980  25.584  0.00  0.00    +0.000 A 
ATOM     31  C   UNL     1       8.811  -2.855  24.364  0.00  0.00    +0.000 A 
BRANCH  31  32
ATOM     32  C   UNL     1       9.980  -2.244  23.750  0.00  0.00    +0.000 C 
ATOM     33  O   UNL     1      10.254  -2.347  22.557  0.00  0.00    +0.000 OA
ATOM     34  O   UNL     1      10.141  -1.005  24.287  0.00  0.00    +0.000 OA
ENDBRANCH  31  32
ENDBRANCH  25  26
ENDBRANCH   3  25
TORSDOF 8
ENDMDL
MODEL 5
REMARK VINA RESULT:      -7.0      2.082      2.752
REMARK  Name = 
REMARK  8 active torsions:
REMARK  status: ('A' for Active; 'I' for Inactive)
REMARK    1  A    between atoms: N_7  and  C_10
REMARK    2  A    between atoms: C_10  and  C_11
REMARK    3  A    between atoms: C_11  and  C_12
REMARK    4  A    between atoms: N_14  and  C_15
REMARK    5  A    between atoms: N_14  and  C_25
REMARK    6  A    between atoms: C_20  and  C_21
REMARK    7  A    between atoms: C_25  and  C_26
REMARK    8  A    between atoms: C_31  and  C_32
REMARK                            x       y       z     vdW  Elec       q    Type
REMARK                         _______ _______ _______ _____ _____    ______ ____
ROOT
ATOM      1  C   UNL     1       4.909  -4.266  22.740  0.00  0.00    +0.000 C 
ATOM      2  O   UNL     1       5.449  -5.392  22.718  0.00  0.00    +0.000 OA
ATOM      3  N   UNL     1       5.834  -3.208  22.710  0.00  0.00    +0.000 N 
ENDROOT
BRANCH   3   4
ATOM      4  C   UNL     1       6.379  -3.348  23.953  0.00  0.00    +0.000 A 
ATOM      5  C   UNL     1       5.764  -2.106  24.864  0.00  0.00    +0.000 A 
ATOM      6  C   UNL     1       6.908  -1.440  25.579  0.00  0.00    +0.000 A 
ATOM      7  C   UNL     1       8.411  -1.452  25.452  0.00  0.00    +0.000 A 
ATOM      8  C   UNL     1       8.944  -2.588  24.559  0.00  0.00    +0.000 A 
ATOM      9  C   UNL     1       7.823  -3.522  24.179  0.00  0.00    +0.000 A 
ATOM     10  C   UNL     1       9.972  -2.262  23.560  0.00  0.00    +0.000 C 
BRANCH   9  11
ATOM     11  C   UNL     1       8.218  -4.809  24.810  0.00  0.00    +0.000 C 
ATOM     12  O   UNL     1       8.928  -5.570  24.226  0.00  0.00    +0.000 OA
ATOM     13  N   UNL     1       7.219  -5.162  25.618  0.00  0.00    +0.000 NA
ENDBRANCH   9  11
ENDBRANCH   3   4
BRANCH   1  14
ATOM     14  C   UNL     1       3.844  -4.043  23.810  0.00  0.00    +0.000 C 
BRANCH  14  15
ATOM     15  C   UNL     1       3.066  -5.312  23.983  0.00  0.00    +0.000 C 
BRANCH  15  22
ATOM     16  C   UNL     1       5.520  -5.361  29.614  0.00  0.00    +0.000 C 
ATOM     17  C   UNL     1       5.071  -6.555  28.790  0.00  0.00    +0.000 C 
ATOM     18  O   UNL     1       5.763  -7.551  28.731  0.00  0.00    +0.000 OA
ATOM     19  N   UNL     1       4.100  -6.298  27.877  0.00  0.00    +0.000 N 
ATOM     20  C   UNL     1       3.917  -4.925  27.433  0.00  0.00    +0.000 C 
ATOM     21  C   UNL     1       2.990  -4.797  26.281  0.00  0.00    +0.000 C 
ATOM     22  N   UNL     1       2.988  -5.769  25.311  0.00  0.00    +0.000 NA
ATOM     23  C   UNL     1       3.941  -6.809  25.527  0.00  0.00    +0.000 C 
ATOM     24  C   UNL     1       3.746  -7.372  26.938  0.00  0.00    +0.000 C 
ENDBRANCH  15  22
ENDBRANCH  14  15
ENDBRANCH   1  14
BRANCH   3  25
ATOM     25  C   UNL     1       6.432  -2.888  21.493  0.00  0.00    +0.000 C 
BRANCH  25  26
ATOM     26  C   UNL     1       6.410  -1.362  21.299  0.00  0.00    +0.000 A 
ATOM     27  C   UNL     1       5.683  -1.183  19.785  0.00  0.00    +0.000 A 
ATOM     28  N   UNL     1       6.627  -0.552  19.035  0.00  0.00    +0.000 NA
ATOM     29  C   UNL     1       7.676   0.201  19.098  0.00  0.00    +0.000 A 
ATOM     30  C   UNL     1       8.550   0.046  20.417  0.00  0.00    +0.000 A 
ATOM     31  C   UNL     1       7.539  -0.468  21.462  0.00  0.00    +0.000 A 
BRANCH  31  32
ATOM     32  C   UNL     1       7.430   0.574  22.474  0.00  0.00    +0.000 C 
ATOM     33  O   UNL     1       8.397   1.070  23.045  0.00  0.00    +0.000 OA
ATOM     34  O   UNL     1       6.464   1.447  22.079  0.00  0.00    +0.000 OA
ENDBRANCH  31  32
ENDBRANCH  25  26
ENDBRANCH   3  25
TORSDOF 8
ENDMDL
MODEL 6
REMARK VINA RESULT:      -7.0      2.381      6.768
REMARK  Name = 
REMARK  8 active torsions:
REMARK  status: ('A' for Active; 'I' for Inactive)
REMARK    1  A    between atoms: N_7  and  C_10
REMARK    2  A    between atoms: C_10  and  C_11
REMARK    3  A    between atoms: C_11  and  C_12
REMARK    4  A    between atoms: N_14  and  C_15
REMARK    5  A    between atoms: N_14  and  C_25
REMARK    6  A    between atoms: C_20  and  C_21
REMARK    7  A    between atoms: C_25  and  C_26
REMARK    8  A    between atoms: C_31  and  C_32
REMARK                            x       y       z     vdW  Elec       q    Type
REMARK                         _______ _______ _______ _____ _____    ______ ____
ROOT
ATOM      1  C   UNL     1       5.616  -1.215  25.778  0.00  0.00    +0.000 C 
ATOM      2  O   UNL     1       4.455  -0.875  26.087  0.00  0.00    +0.000 OA
ATOM      3  N   UNL     1       5.691  -2.518  25.256  0.00  0.00    +0.000 N 
ENDROOT
BRANCH   3   4
ATOM      4  C   UNL     1       5.416  -3.231  26.386  0.00  0.00    +0.000 A 
ATOM      5  C   UNL     1       6.847  -3.933  26.843  0.00  0.00    +0.000 A 
ATOM      6  C   UNL     1       6.588  -5.390  27.115  0.00  0.00    +0.000 A 
ATOM      7  C   UNL     1       5.471  -6.359  26.818  0.00  0.00    +0.000 A 
ATOM      8  C   UNL     1       4.173  -5.676  26.350  0.00  0.00    +0.000 A 
ATOM      9  C   UNL     1       4.293  -4.179  26.481  0.00  0.00    +0.000 A 
ATOM     10  C   UNL     1       3.475  -6.236  25.183  0.00  0.00    +0.000 C 
BRANCH   9  11
ATOM     11  C   UNL     1       3.256  -3.837  27.489  0.00  0.00    +0.000 C 
ATOM     12  O   UNL     1       2.159  -3.523  27.137  0.00  0.00    +0.000 OA
ATOM     13  N   UNL     1       3.896  -3.328  28.541  0.00  0.00    +0.000 NA
ENDBRANCH   9  11
ENDBRANCH   3   4
BRANCH   1  14
ATOM     14  C   UNL     1       6.697  -0.974  26.828  0.00  0.00    +0.000 C 
BRANCH  14  15
ATOM     15  C   UNL     1       7.163   0.445  26.718  0.00  0.00    +0.000 C 
BRANCH  15  22
ATOM     16  C   UNL     1       8.948  -0.470  20.912  0.00  0.00    +0.000 C 
ATOM     17  C   UNL     1       9.762  -0.684  22.175  0.00  0.00    +0.000 C 
ATOM     18  O   UNL     1      10.446  -1.680  22.299  0.00  0.00    +0.000 OA
ATOM     19  N   UNL     1       9.392   0.071  23.241  0.00  0.00    +0.000 N 
ATOM     20  C   UNL     1       8.047   0.623  23.259  0.00  0.00    +0.000 C 
ATOM     21  C   UNL     1       7.680   1.238  24.560  0.00  0.00    +0.000 C 
ATOM     22  N   UNL     1       8.133   0.664  25.723  0.00  0.00    +0.000 NA
ATOM     23  C   UNL     1       8.907  -0.519  25.526  0.00  0.00    +0.000 C 
ATOM     24  C   UNL     1      10.032  -0.213  24.533  0.00  0.00    +0.000 C 
ENDBRANCH  15  22
ENDBRANCH  14  15
ENDBRANCH   1  14
BRANCH   3  25
ATOM     25  C   UNL     1       5.290  -2.725  23.937  0.00  0.00    +0.000 C 
BRANCH  25  26
ATOM     26  C   UNL     1       6.401  -3.467  23.176  0.00  0.00    +0.000 A 
ATOM     27  C   UNL     1       6.074  -3.085  21.563  0.00  0.00    +0.000 A 
ATOM     28  N   UNL     1       5.846  -4.291  20.976  0.00  0.00    +0.000 NA
ATOM     29  C   UNL     1       6.071  -5.559  21.078  0.00  0.00    +0.000 A 
ATOM     30  C   UNL     1       6.265  -6.102  22.560  0.00  0.00    +0.000 A 
ATOM     31  C   UNL     1       6.756  -4.863  23.336  0.00  0.00    +0.000 A 
BRANCH  31  32
ATOM     32  C   UNL     1       8.111  -5.165  23.776  0.00  0.00    +0.000 C 
ATOM     33  O   UNL     1       8.745  -6.147  23.400  0.00  0.00    +0.000 OA
ATOM     34  O   UNL     1       8.807  -3.998  23.831  0.00  0.00    +0.000 OA
ENDBRANCH  31  32
ENDBRANCH  25  26
ENDBRANCH   3  25
TORSDOF 8
ENDMDL
MODEL 7
REMARK VINA RESULT:      -6.9      2.395      4.466
REMARK  Name = 
REMARK  8 active torsions:
REMARK  status: ('A' for Active; 'I' for Inactive)
REMARK    1  A    between atoms: N_7  and  C_10
REMARK    2  A    between atoms: C_10  and  C_11
REMARK    3  A    between atoms: C_11  and  C_12
REMARK    4  A    between atoms: N_14  and  C_15
REMARK    5  A    between atoms: N_14  and  C_25
REMARK    6  A    between atoms: C_20  and  C_21
REMARK    7  A    between atoms: C_25  and  C_26
REMARK    8  A    between atoms: C_31  and  C_32
REMARK                            x       y       z     vdW  Elec       q    Type
REMARK                         _______ _______ _______ _____ _____    ______ ____
ROOT
ATOM      1  C   UNL     1       6.904   0.139  26.279  0.00  0.00    +0.000 C 
ATOM      2  O   UNL     1       7.026   1.020  27.155  0.00  0.00    +0.000 OA
ATOM      3  N   UNL     1       7.858   0.241  25.253  0.00  0.00    +0.000 N 
ENDROOT
BRANCH   3   4
ATOM      4  C   UNL     1       7.421   1.384  24.649  0.00  0.00    +0.000 A 
ATOM      5  C   UNL     1       6.743   0.911  23.212  0.00  0.00    +0.000 A 
ATOM      6  C   UNL     1       7.296   1.788  22.122  0.00  0.00    +0.000 A 
ATOM      7  C   UNL     1       8.455   2.744  21.994  0.00  0.00    +0.000 A 
ATOM      8  C   UNL     1       9.092   3.124  23.344  0.00  0.00    +0.000 A 
ATOM      9  C   UNL     1       8.269   2.576  24.482  0.00  0.00    +0.000 A 
ATOM     10  C   UNL     1      10.558   3.105  23.450  0.00  0.00    +0.000 C 
BRANCH   9  11
ATOM     11  C   UNL     1       7.795   3.797  25.184  0.00  0.00    +0.000 C 
ATOM     12  O   UNL     1       8.299   4.131  26.212  0.00  0.00    +0.000 OA
ATOM     13  N   UNL     1       6.503   3.934  24.886  0.00  0.00    +0.000 NA
ENDBRANCH   9  11
ENDBRANCH   3   4
BRANCH   1  14
ATOM     14  C   UNL     1       5.501  -0.069  25.715  0.00  0.00    +0.000 C 
BRANCH  14  15
ATOM     15  C   UNL     1       4.877  -1.244  26.403  0.00  0.00    +0.000 C 
BRANCH  15  22
ATOM     16  C   UNL     1       4.127  -7.238  25.288  0.00  0.00    +0.000 C 
ATOM     17  C   UNL     1       5.102  -6.592  26.256  0.00  0.00    +0.000 C 
ATOM     18  O   UNL     1       5.253  -7.053  27.369  0.00  0.00    +0.000 OA
ATOM     19  N   UNL     1       5.472  -5.323  25.947  0.00  0.00    +0.000 N 
ATOM     20  C   UNL     1       4.612  -4.548  25.067  0.00  0.00    +0.000 C 
ATOM     21  C   UNL     1       4.995  -3.117  24.978  0.00  0.00    +0.000 C 
ATOM     22  N   UNL     1       5.473  -2.481  26.098  0.00  0.00    +0.000 NA
ATOM     23  C   UNL     1       5.514  -3.305  27.263  0.00  0.00    +0.000 C 
ATOM     24  C   UNL     1       6.279  -4.589  26.933  0.00  0.00    +0.000 C 
ENDBRANCH  15  22
ENDBRANCH  14  15
ENDBRANCH   1  14
BRANCH   3  25
ATOM     25  C   UNL     1       9.154  -0.206  25.509  0.00  0.00    +0.000 C 
BRANCH  25  26
ATOM     26  C   UNL     1       9.489  -1.369  24.559  0.00  0.00    +0.000 A 
ATOM     27  C   UNL     1      10.465  -0.634  23.392  0.00  0.00    +0.000 A 
ATOM     28  N   UNL     1       9.785  -0.816  22.228  0.00  0.00    +0.000 NA
ATOM     29  C   UNL     1       8.898  -1.551  21.642  0.00  0.00    +0.000 A 
ATOM     30  C   UNL     1       7.814  -2.209  22.602  0.00  0.00    +0.000 A 
ATOM     31  C   UNL     1       8.535  -2.283  23.964  0.00  0.00    +0.000 A 
BRANCH  31  32
ATOM     32  C   UNL     1       8.676  -3.698  24.276  0.00  0.00    +0.000 C 
ATOM     33  O   UNL     1       8.059  -4.587  23.697  0.00  0.00    +0.000 OA
ATOM     34  O   UNL     1       9.992  -3.950  24.513  0.00  0.00    +0.000 OA
ENDBRANCH  31  32
ENDBRANCH  25  26
ENDBRANCH   3  25
TORSDOF 8
ENDMDL
MODEL 8
REMARK VINA RESULT:      -6.8      2.951      4.666
REMARK  Name = 
REMARK  8 active torsions:
REMARK  status: ('A' for Active; 'I' for Inactive)
REMARK    1  A    between atoms: N_7  and  C_10
REMARK    2  A    between atoms: C_10  and  C_11
REMARK    3  A    between atoms: C_11  and  C_12
REMARK    4  A    between atoms: N_14  and  C_15
REMARK    5  A    between atoms: N_14  and  C_25
REMARK    6  A    between atoms: C_20  and  C_21
REMARK    7  A    between atoms: C_25  and  C_26
REMARK    8  A    between atoms: C_31  and  C_32
REMARK                            x       y       z     vdW  Elec       q    Type
REMARK                         _______ _______ _______ _____ _____    ______ ____
ROOT
ATOM      1  C   UNL     1       7.281   1.123  25.714  0.00  0.00    +0.000 C 
ATOM      2  O   UNL     1       7.442   1.677  26.821  0.00  0.00    +0.000 OA
ATOM      3  N   UNL     1       8.023   1.721  24.682  0.00  0.00    +0.000 N 
ENDROOT
BRANCH   3   4
ATOM      4  C   UNL     1       7.348   2.902  24.572  0.00  0.00    +0.000 A 
ATOM      5  C   UNL     1       6.588   2.859  23.099  0.00  0.00    +0.000 A 
ATOM      6  C   UNL     1       6.870   4.155  22.389  0.00  0.00    +0.000 A 
ATOM      7  C   UNL     1       7.845   5.291  22.568  0.00  0.00    +0.000 A 
ATOM      8  C   UNL     1       8.569   5.272  23.927  0.00  0.00    +0.000 A 
ATOM      9  C   UNL     1       7.978   4.209  24.819  0.00  0.00    +0.000 A 
ATOM     10  C   UNL     1      10.023   5.489  23.943  0.00  0.00    +0.000 C 
BRANCH   9  11
ATOM     11  C   UNL     1       7.407   4.987  25.949  0.00  0.00    +0.000 C 
ATOM     12  O   UNL     1       8.065   5.205  26.921  0.00  0.00    +0.000 OA
ATOM     13  N   UNL     1       6.095   4.752  25.953  0.00  0.00    +0.000 NA
ENDBRANCH   9  11
ENDBRANCH   3   4
BRANCH   1  14
ATOM     14  C   UNL     1       5.839   0.866  25.286  0.00  0.00    +0.000 C 
BRANCH  14  15
ATOM     15  C   UNL     1       5.355  -0.384  25.954  0.00  0.00    +0.000 C 
BRANCH  15  22
ATOM     16  C   UNL     1       5.041  -6.405  24.779  0.00  0.00    +0.000 C 
ATOM     17  C   UNL     1       6.056  -5.684  25.647  0.00  0.00    +0.000 C 
ATOM     18  O   UNL     1       6.377  -6.145  26.724  0.00  0.00    +0.000 OA
ATOM     19  N   UNL     1       6.270  -4.381  25.331  0.00  0.00    +0.000 N 
ATOM     20  C   UNL     1       5.247  -3.679  24.573  0.00  0.00    +0.000 C 
ATOM     21  C   UNL     1       5.483  -2.217  24.478  0.00  0.00    +0.000 C 
ATOM     22  N   UNL     1       6.025  -1.554  25.553  0.00  0.00    +0.000 NA
ATOM     23  C   UNL     1       6.275  -2.388  26.685  0.00  0.00    +0.000 C 
ATOM     24  C   UNL     1       7.113  -3.589  26.237  0.00  0.00    +0.000 C 
ENDBRANCH  15  22
ENDBRANCH  14  15
ENDBRANCH   1  14
BRANCH   3  25
ATOM     25  C   UNL     1       9.388   1.451  24.607  0.00  0.00    +0.000 C 
BRANCH  25  26
ATOM     26  C   UNL     1       9.656   0.492  23.435  0.00  0.00    +0.000 A 
ATOM     27  C   UNL     1      10.023   1.543  22.164  0.00  0.00    +0.000 A 
ATOM     28  N   UNL     1       9.068   1.282  21.231  0.00  0.00    +0.000 NA
ATOM     29  C   UNL     1       8.229   0.390  20.819  0.00  0.00    +0.000 A 
ATOM     30  C   UNL     1       7.680  -0.600  21.937  0.00  0.00    +0.000 A 
ATOM     31  C   UNL     1       8.793  -0.589  23.006  0.00  0.00    +0.000 A 
BRANCH  31  32
ATOM     32  C   UNL     1       9.336  -1.939  23.044  0.00  0.00    +0.000 C 
ATOM     33  O   UNL     1       8.647  -2.953  22.976  0.00  0.00    +0.000 OA
ATOM     34  O   UNL     1      10.482  -1.953  22.310  0.00  0.00    +0.000 OA
ENDBRANCH  31  32
ENDBRANCH  25  26
ENDBRANCH   3  25
TORSDOF 8
ENDMDL
MODEL 9
REMARK VINA RESULT:      -6.7      2.535      4.231
REMARK  Name = 
REMARK  8 active torsions:
REMARK  status: ('A' for Active; 'I' for Inactive)
REMARK    1  A    between atoms: N_7  and  C_10
REMARK    2  A    between atoms: C_10  and  C_11
REMARK    3  A    between atoms: C_11  and  C_12
REMARK    4  A    between atoms: N_14  and  C_15
REMARK    5  A    between atoms: N_14  and  C_25
REMARK    6  A    between atoms: C_20  and  C_21
REMARK    7  A    between atoms: C_25  and  C_26
REMARK    8  A    between atoms: C_31  and  C_32
REMARK                            x       y       z     vdW  Elec       q    Type
REMARK                         _______ _______ _______ _____ _____    ______ ____
ROOT
ATOM      1  C   UNL     1       8.583  -0.901  26.286  0.00  0.00    +0.000 C 
ATOM      2  O   UNL     1       8.921  -0.609  27.451  0.00  0.00    +0.000 OA
ATOM      3  N   UNL     1       8.254   0.222  25.506  0.00  0.00    +0.000 N 
ENDROOT
BRANCH   3   4
ATOM      4  C   UNL     1       7.090   0.588  26.117  0.00  0.00    +0.000 A 
ATOM      5  C   UNL     1       5.915   0.502  24.950  0.00  0.00    +0.000 A 
ATOM      6  C   UNL     1       5.120   1.778  24.991  0.00  0.00    +0.000 A 
ATOM      7  C   UNL     1       5.304   3.142  25.608  0.00  0.00    +0.000 A 
ATOM      8  C   UNL     1       6.436   3.198  26.651  0.00  0.00    +0.000 A 
ATOM      9  C   UNL     1       6.962   1.812  26.925  0.00  0.00    +0.000 A 
ATOM     10  C   UNL     1       7.382   4.322  26.589  0.00  0.00    +0.000 C 
BRANCH   9  11
ATOM     11  C   UNL     1       6.631   1.596  28.358  0.00  0.00    +0.000 C 
ATOM     12  O   UNL     1       7.414   1.901  29.206  0.00  0.00    +0.000 OA
ATOM     13  N   UNL     1       5.821   0.539  28.410  0.00  0.00    +0.000 NA
ENDBRANCH   9  11
ENDBRANCH   3   4
BRANCH   1  14
ATOM     14  C   UNL     1       7.540  -2.005  26.137  0.00  0.00    +0.000 C 
BRANCH  14  15
ATOM     15  C   UNL     1       8.195  -3.323  26.416  0.00  0.00    +0.000 C 
BRANCH  15  22
ATOM     16  C   UNL     1       6.229  -5.708  21.107  0.00  0.00    +0.000 C 
ATOM     17  C   UNL     1       5.486  -5.657  22.430  0.00  0.00    +0.000 C 
ATOM     18  O   UNL     1       4.312  -5.347  22.460  0.00  0.00    +0.000 OA
ATOM     19  N   UNL     1       6.271  -5.605  23.536  0.00  0.00    +0.000 N 
ATOM     20  C   UNL     1       7.641  -5.139  23.388  0.00  0.00    +0.000 C 
ATOM     21  C   UNL     1       8.330  -4.914  24.683  0.00  0.00    +0.000 C 
ATOM     22  N   UNL     1       7.616  -4.415  25.744  0.00  0.00    +0.000 NA
ATOM     23  C   UNL     1       6.248  -4.135  25.446  0.00  0.00    +0.000 C 
ATOM     24  C   UNL     1       5.612  -5.385  24.831  0.00  0.00    +0.000 C 
ENDBRANCH  15  22
ENDBRANCH  14  15
ENDBRANCH   1  14
BRANCH   3  25
ATOM     25  C   UNL     1       9.292   1.001  24.999  0.00  0.00    +0.000 C 
BRANCH  25  26
ATOM     26  C   UNL     1       9.604   0.562  23.559  0.00  0.00    +0.000 A 
ATOM     27  C   UNL     1       9.623   2.024  22.713  0.00  0.00    +0.000 A 
ATOM     28  N   UNL     1       8.636   1.886  21.787  0.00  0.00    +0.000 NA
ATOM     29  C   UNL     1       7.940   1.020  21.128  0.00  0.00    +0.000 A 
ATOM     30  C   UNL     1       7.714  -0.375  21.858  0.00  0.00    +0.000 A 
ATOM     31  C   UNL     1       8.916  -0.478  22.818  0.00  0.00    +0.000 A 
BRANCH  31  32
ATOM     32  C   UNL     1       9.705  -1.615  22.367  0.00  0.00    +0.000 C 
ATOM     33  O   UNL     1      10.530  -1.554  21.460  0.00  0.00    +0.000 OA
ATOM     34  O   UNL     1      10.083  -2.328  23.463  0.00  0.00    +0.000 OA
ENDBRANCH  31  32
ENDBRANCH  25  26
ENDBRANCH   3  25
TORSDOF 8
ENDMDL
