MODEL 1
REMARK VINA RESULT:      -6.1      0.000      0.000
REMARK  Name = 
REMARK  2 active torsions:
REMARK  status: ('A' for Active; 'I' for Inactive)
REMARK    1  A    between atoms: C_2  and  C_3
REMARK    2  A    between atoms: C_11  and  C_15
REMARK                            x       y       z     vdW  Elec       q    Type
REMARK                         _______ _______ _______ _____ _____    ______ ____
ROOT
ATOM      1  C   UNL     1       8.511  -0.067  24.488  0.00  0.00    +0.000 C 
ATOM      2  C   UNL     1       6.992   0.168  24.778  0.00  0.00    +0.000 C 
ATOM      3  C   UNL     1       9.212   1.254  24.543  0.00  0.00    +0.000 C 
ATOM      4  C   UNL     1      10.610   0.519  24.008  0.00  0.00    +0.000 C 
ATOM      5  O   UNL     1       9.888   2.415  24.472  0.00  0.00    +0.000 OA
ATOM      6  C   UNL     1      10.378   2.593  23.169  0.00  0.00    +0.000 C 
ATOM      7  C   UNL     1      10.062   1.571  22.018  0.00  0.00    +0.000 C 
ATOM      8  C   UNL     1       8.935   0.830  22.222  0.00  0.00    +0.000 C 
ATOM      9  C   UNL     1       8.613  -0.467  23.016  0.00  0.00    +0.000 C 
ATOM     10  C   UNL     1       7.147  -0.471  22.315  0.00  0.00    +0.000 C 
ATOM     11  C   UNL     1       7.710   0.683  21.228  0.00  0.00    +0.000 C 
ATOM     12  C   UNL     1       8.173  -0.146  20.054  0.00  0.00    +0.000 C 
ATOM     13  C   UNL     1       8.193   1.836  23.337  0.00  0.00    +0.000 C 
ENDROOT
BRANCH   9  14
ATOM     14  C   UNL     1       9.266  -1.683  22.704  0.00  0.00    +0.000 C 
ATOM     15  O   UNL     1      10.077  -1.501  21.786  0.00  0.00    +0.000 OA
ATOM     16  N   UNL     1       8.279  -2.607  22.406  0.00  0.00    +0.000 NA
ENDBRANCH   9  14
BRANCH   1  18
ATOM     17  O   UNL     1       8.912  -0.888  26.765  0.00  0.00    +0.000 OA
ATOM     18  C   UNL     1       8.997  -1.064  25.445  0.00  0.00    +0.000 C 
ENDBRANCH   1  18
TORSDOF 2
ENDMDL
MODEL 2
REMARK VINA RESULT:      -5.8      1.783      3.695
REMARK  Name = 
REMARK  2 active torsions:
REMARK  status: ('A' for Active; 'I' for Inactive)
REMARK    1  A    between atoms: C_2  and  C_3
REMARK    2  A    between atoms: C_11  and  C_15
REMARK                            x       y       z     vdW  Elec       q    Type
REMARK                         _______ _______ _______ _____ _____    ______ ____
ROOT
ATOM      1  C   UNL     1       9.070  -1.367  22.844  0.00  0.00    +0.000 C 
ATOM      2  C   UNL     1      10.581  -1.543  22.482  0.00  0.00    +0.000 C 
ATOM      3  C   UNL     1       8.324  -1.013  21.597  0.00  0.00    +0.000 C 
ATOM      4  C   UNL     1       6.949  -0.759  22.507  0.00  0.00    +0.000 C 
ATOM      5  O   UNL     1       7.606  -0.589  20.541  0.00  0.00    +0.000 OA
ATOM      6  C   UNL     1       7.105   0.696  20.799  0.00  0.00    +0.000 C 
ATOM      7  C   UNL     1       7.450   1.470  22.122  0.00  0.00    +0.000 C 
ATOM      8  C   UNL     1       8.604   1.060  22.725  0.00  0.00    +0.000 C 
ATOM      9  C   UNL     1       8.975  -0.099  23.693  0.00  0.00    +0.000 C 
ATOM     10  C   UNL     1      10.437   0.588  23.872  0.00  0.00    +0.000 C 
ATOM     11  C   UNL     1       9.828   1.975  23.139  0.00  0.00    +0.000 C 
ATOM     12  C   UNL     1       9.389   2.820  24.312  0.00  0.00    +0.000 C 
ATOM     13  C   UNL     1       9.316   0.331  21.395  0.00  0.00    +0.000 C 
ENDROOT
BRANCH   9  14
ATOM     14  C   UNL     1       8.363  -0.198  24.965  0.00  0.00    +0.000 C 
ATOM     15  O   UNL     1       7.610   0.769  25.145  0.00  0.00    +0.000 OA
ATOM     16  N   UNL     1       9.382  -0.297  25.897  0.00  0.00    +0.000 NA
ENDBRANCH   9  14
BRANCH   1  18
ATOM     17  O   UNL     1       9.480  -3.509  23.968  0.00  0.00    +0.000 OA
ATOM     18  C   UNL     1       8.624  -2.598  23.502  0.00  0.00    +0.000 C 
ENDBRANCH   1  18
TORSDOF 2
ENDMDL
MODEL 3
REMARK VINA RESULT:      -5.8      1.681      3.748
REMARK  Name = 
REMARK  2 active torsions:
REMARK  status: ('A' for Active; 'I' for Inactive)
REMARK    1  A    between atoms: C_2  and  C_3
REMARK    2  A    between atoms: C_11  and  C_15
REMARK                            x       y       z     vdW  Elec       q    Type
REMARK                         _______ _______ _______ _____ _____    ______ ____
ROOT
ATOM      1  C   UNL     1       8.747  -0.085  21.969  0.00  0.00    +0.000 C 
ATOM      2  C   UNL     1       9.579  -1.401  21.826  0.00  0.00    +0.000 C 
ATOM      3  C   UNL     1       9.692   1.075  21.961  0.00  0.00    +0.000 C 
ATOM      4  C   UNL     1       8.423   2.095  22.319  0.00  0.00    +0.000 C 
ATOM      5  O   UNL     1      10.487   2.155  22.067  0.00  0.00    +0.000 OA
ATOM      6  C   UNL     1      10.325   2.734  23.336  0.00  0.00    +0.000 C 
ATOM      7  C   UNL     1       9.390   2.094  24.424  0.00  0.00    +0.000 C 
ATOM      8  C   UNL     1       9.167   0.758  24.257  0.00  0.00    +0.000 C 
ATOM      9  C   UNL     1       8.186  -0.082  23.392  0.00  0.00    +0.000 C 
ATOM     10  C   UNL     1       8.676  -1.398  24.209  0.00  0.00    +0.000 C 
ATOM     11  C   UNL     1       9.403  -0.379  25.333  0.00  0.00    +0.000 C 
ATOM     12  C   UNL     1       8.341  -0.226  26.396  0.00  0.00    +0.000 C 
ATOM     13  C   UNL     1      10.493   0.421  23.289  0.00  0.00    +0.000 C 
ENDROOT
BRANCH   9  14
ATOM     14  C   UNL     1       6.787   0.055  23.552  0.00  0.00    +0.000 C 
ATOM     15  O   UNL     1       6.545   0.904  24.420  0.00  0.00    +0.000 OA
ATOM     16  N   UNL     1       6.289  -1.203  23.843  0.00  0.00    +0.000 NA
ENDBRANCH   9  14
BRANCH   1  18
ATOM     17  O   UNL     1       8.080  -0.045  19.608  0.00  0.00    +0.000 OA
ATOM     18  C   UNL     1       7.746  -0.073  20.900  0.00  0.00    +0.000 C 
ENDBRANCH   1  18
TORSDOF 2
ENDMDL
MODEL 4
REMARK VINA RESULT:      -5.8      1.711      3.291
REMARK  Name = 
REMARK  2 active torsions:
REMARK  status: ('A' for Active; 'I' for Inactive)
REMARK    1  A    between atoms: C_2  and  C_3
REMARK    2  A    between atoms: C_11  and  C_15
REMARK                            x       y       z     vdW  Elec       q    Type
REMARK                         _______ _______ _______ _____ _____    ______ ____
ROOT
ATOM      1  C   UNL     1       7.876   1.038  22.124  0.00  0.00    +0.000 C 
ATOM      2  C   UNL     1       8.028   0.618  20.626  0.00  0.00    +0.000 C 
ATOM      3  C   UNL     1       9.008   1.950  22.476  0.00  0.00    +0.000 C 
ATOM      4  C   UNL     1       8.520   1.921  24.070  0.00  0.00    +0.000 C 
ATOM      5  O   UNL     1      10.053   2.689  22.892  0.00  0.00    +0.000 OA
ATOM      6  C   UNL     1      10.760   1.986  23.881  0.00  0.00    +0.000 C 
ATOM      7  C   UNL     1      10.357   0.530  24.310  0.00  0.00    +0.000 C 
ATOM      8  C   UNL     1       9.651  -0.157  23.366  0.00  0.00    +0.000 C 
ATOM      9  C   UNL     1       8.153  -0.216  22.954  0.00  0.00    +0.000 C 
ATOM     10  C   UNL     1       8.520  -1.475  21.995  0.00  0.00    +0.000 C 
ATOM     11  C   UNL     1      10.006  -1.583  22.775  0.00  0.00    +0.000 C 
ATOM     12  C   UNL     1       9.752  -2.602  23.861  0.00  0.00    +0.000 C 
ATOM     13  C   UNL     1      10.102   0.751  22.032  0.00  0.00    +0.000 C 
ENDROOT
BRANCH   9  14
ATOM     14  C   UNL     1       7.167  -0.627  23.882  0.00  0.00    +0.000 C 
ATOM     15  O   UNL     1       7.700  -0.910  24.964  0.00  0.00    +0.000 OA
ATOM     16  N   UNL     1       6.481  -1.681  23.303  0.00  0.00    +0.000 NA
ENDBRANCH   9  14
BRANCH   1  18
ATOM     17  O   UNL     1       5.995   2.426  21.379  0.00  0.00    +0.000 OA
ATOM     18  C   UNL     1       6.541   1.618  22.290  0.00  0.00    +0.000 C 
ENDBRANCH   1  18
TORSDOF 2
ENDMDL
MODEL 5
REMARK VINA RESULT:      -5.8      1.530      2.561
REMARK  Name = 
REMARK  2 active torsions:
REMARK  status: ('A' for Active; 'I' for Inactive)
REMARK    1  A    between atoms: C_2  and  C_3
REMARK    2  A    between atoms: C_11  and  C_15
REMARK                            x       y       z     vdW  Elec       q    Type
REMARK                         _______ _______ _______ _____ _____    ______ ____
ROOT
ATOM      1  C   UNL     1       9.121   0.566  23.801  0.00  0.00    +0.000 C 
ATOM      2  C   UNL     1       8.451   0.606  25.213  0.00  0.00    +0.000 C 
ATOM      3  C   UNL     1       8.367   1.485  22.894  0.00  0.00    +0.000 C 
ATOM      4  C   UNL     1       9.282   0.946  21.608  0.00  0.00    +0.000 C 
ATOM      5  O   UNL     1       7.675   2.209  21.995  0.00  0.00    +0.000 OA
ATOM      6  C   UNL     1       7.154   1.358  21.008  0.00  0.00    +0.000 C 
ATOM      7  C   UNL     1       7.340  -0.201  21.075  0.00  0.00    +0.000 C 
ATOM      8  C   UNL     1       7.573  -0.683  22.331  0.00  0.00    +0.000 C 
ATOM      9  C   UNL     1       8.835  -0.822  23.227  0.00  0.00    +0.000 C 
ATOM     10  C   UNL     1       7.940  -1.702  24.260  0.00  0.00    +0.000 C 
ATOM     11  C   UNL     1       6.761  -1.826  23.067  0.00  0.00    +0.000 C 
ATOM     12  C   UNL     1       7.095  -3.132  22.387  0.00  0.00    +0.000 C 
ATOM     13  C   UNL     1       6.959   0.614  23.196  0.00  0.00    +0.000 C 
ENDROOT
BRANCH   9  14
ATOM     14  C   UNL     1       9.936  -1.604  22.804  0.00  0.00    +0.000 C 
ATOM     15  O   UNL     1       9.749  -2.001  21.647  0.00  0.00    +0.000 OA
ATOM     16  N   UNL     1      10.088  -2.622  23.729  0.00  0.00    +0.000 NA
ENDBRANCH   9  14
BRANCH   1  18
ATOM     17  O   UNL     1      11.223   0.555  25.067  0.00  0.00    +0.000 OA
ATOM     18  C   UNL     1      10.539   0.894  23.973  0.00  0.00    +0.000 C 
ENDBRANCH   1  18
TORSDOF 2
ENDMDL
MODEL 6
REMARK VINA RESULT:      -5.7      1.618      2.076
REMARK  Name = 
REMARK  2 active torsions:
REMARK  status: ('A' for Active; 'I' for Inactive)
REMARK    1  A    between atoms: C_2  and  C_3
REMARK    2  A    between atoms: C_11  and  C_15
REMARK                            x       y       z     vdW  Elec       q    Type
REMARK                         _______ _______ _______ _____ _____    ______ ____
ROOT
ATOM      1  C   UNL     1       8.821  -1.348  24.016  0.00  0.00    +0.000 C 
ATOM      2  C   UNL     1       7.784  -1.583  25.162  0.00  0.00    +0.000 C 
ATOM      3  C   UNL     1       9.916  -0.475  24.541  0.00  0.00    +0.000 C 
ATOM      4  C   UNL     1      10.562  -0.382  23.006  0.00  0.00    +0.000 C 
ATOM      5  O   UNL     1      10.877   0.391  24.912  0.00  0.00    +0.000 OA
ATOM      6  C   UNL     1      10.789   1.553  24.130  0.00  0.00    +0.000 C 
ATOM      7  C   UNL     1       9.654   1.748  23.061  0.00  0.00    +0.000 C 
ATOM      8  C   UNL     1       8.536   1.000  23.289  0.00  0.00    +0.000 C 
ATOM      9  C   UNL     1       8.125  -0.467  22.978  0.00  0.00    +0.000 C 
ATOM     10  C   UNL     1       6.618  -0.091  23.456  0.00  0.00    +0.000 C 
ATOM     11  C   UNL     1       7.049   1.534  23.395  0.00  0.00    +0.000 C 
ATOM     12  C   UNL     1       6.616   1.954  22.010  0.00  0.00    +0.000 C 
ATOM     13  C   UNL     1       8.780   0.708  24.921  0.00  0.00    +0.000 C 
ENDROOT
BRANCH   9  14
ATOM     14  C   UNL     1       8.073  -0.932  21.642  0.00  0.00    +0.000 C 
ATOM     15  O   UNL     1       8.414  -0.027  20.869  0.00  0.00    +0.000 OA
ATOM     16  N   UNL     1       6.788  -1.399  21.427  0.00  0.00    +0.000 NA
ENDBRANCH   9  14
BRANCH   1  18
ATOM     17  O   UNL     1       9.924  -3.520  24.306  0.00  0.00    +0.000 OA
ATOM     18  C   UNL     1       9.256  -2.661  23.534  0.00  0.00    +0.000 C 
ENDBRANCH   1  18
TORSDOF 2
ENDMDL
MODEL 7
REMARK VINA RESULT:      -5.6      3.457      5.465
REMARK  Name = 
REMARK  2 active torsions:
REMARK  status: ('A' for Active; 'I' for Inactive)
REMARK    1  A    between atoms: C_2  and  C_3
REMARK    2  A    between atoms: C_11  and  C_15
REMARK                            x       y       z     vdW  Elec       q    Type
REMARK                         _______ _______ _______ _____ _____    ______ ____
ROOT
ATOM      1  C   UNL     1       8.463  -2.643  24.881  0.00  0.00    +0.000 C 
ATOM      2  C   UNL     1       9.724  -2.767  23.965  0.00  0.00    +0.000 C 
ATOM      3  C   UNL     1       8.618  -3.589  26.029  0.00  0.00    +0.000 C 
ATOM      4  C   UNL     1       7.063  -3.235  26.515  0.00  0.00    +0.000 C 
ATOM      5  O   UNL     1       8.640  -4.491  27.027  0.00  0.00    +0.000 OA
ATOM      6  C   UNL     1       7.579  -5.395  26.866  0.00  0.00    +0.000 C 
ATOM      7  C   UNL     1       6.613  -5.327  25.629  0.00  0.00    +0.000 C 
ATOM      8  C   UNL     1       7.146  -4.708  24.536  0.00  0.00    +0.000 C 
ATOM      9  C   UNL     1       7.294  -3.227  24.088  0.00  0.00    +0.000 C 
ATOM     10  C   UNL     1       7.792  -3.770  22.639  0.00  0.00    +0.000 C 
ATOM     11  C   UNL     1       7.243  -5.301  23.071  0.00  0.00    +0.000 C 
ATOM     12  C   UNL     1       5.844  -5.338  22.501  0.00  0.00    +0.000 C 
ATOM     13  C   UNL     1       8.763  -4.868  24.944  0.00  0.00    +0.000 C 
ENDROOT
BRANCH   9  14
ATOM     14  C   UNL     1       6.151  -2.415  23.897  0.00  0.00    +0.000 C 
ATOM     15  O   UNL     1       5.127  -3.071  24.129  0.00  0.00    +0.000 OA
ATOM     16  N   UNL     1       6.219  -1.918  22.607  0.00  0.00    +0.000 NA
ENDBRANCH   9  14
BRANCH   1  18
ATOM     17  O   UNL     1       8.891  -0.248  24.559  0.00  0.00    +0.000 OA
ATOM     18  C   UNL     1       8.324  -1.234  25.257  0.00  0.00    +0.000 C 
ENDBRANCH   1  18
TORSDOF 2
ENDMDL
MODEL 8
REMARK VINA RESULT:      -5.5      1.851      3.074
REMARK  Name = 
REMARK  2 active torsions:
REMARK  status: ('A' for Active; 'I' for Inactive)
REMARK    1  A    between atoms: C_2  and  C_3
REMARK    2  A    between atoms: C_11  and  C_15
REMARK                            x       y       z     vdW  Elec       q    Type
REMARK                         _______ _______ _______ _____ _____    ______ ____
ROOT
ATOM      1  C   UNL     1       7.379  -1.477  22.945  0.00  0.00    +0.000 C 
ATOM      2  C   UNL     1       6.819  -1.586  21.489  0.00  0.00    +0.000 C 
ATOM      3  C   UNL     1       6.447  -0.625  23.747  0.00  0.00    +0.000 C 
ATOM      4  C   UNL     1       7.524  -0.665  25.019  0.00  0.00    +0.000 C 
ATOM      5  O   UNL     1       5.713   0.216  24.499  0.00  0.00    +0.000 OA
ATOM      6  C   UNL     1       6.493   1.327  24.857  0.00  0.00    +0.000 C 
ATOM      7  C   UNL     1       7.966   1.505  24.341  0.00  0.00    +0.000 C 
ATOM      8  C   UNL     1       8.242   0.828  23.189  0.00  0.00    +0.000 C 
ATOM      9  C   UNL     1       8.651  -0.634  22.856  0.00  0.00    +0.000 C 
ATOM     10  C   UNL     1       8.922  -0.155  21.327  0.00  0.00    +0.000 C 
ATOM     11  C   UNL     1       8.841   1.440  21.856  0.00  0.00    +0.000 C 
ATOM     12  C   UNL     1      10.286   1.787  22.125  0.00  0.00    +0.000 C 
ATOM     13  C   UNL     1       6.667   0.633  22.651  0.00  0.00    +0.000 C 
ENDROOT
BRANCH   9  14
ATOM     14  C   UNL     1       9.847  -1.183  23.376  0.00  0.00    +0.000 C 
ATOM     15  O   UNL     1      10.454  -0.324  24.029  0.00  0.00    +0.000 OA
ATOM     16  N   UNL     1      10.563  -1.683  22.302  0.00  0.00    +0.000 NA
ENDBRANCH   9  14
BRANCH   1  18
ATOM     17  O   UNL     1       7.667  -3.895  22.645  0.00  0.00    +0.000 OA
ATOM     18  C   UNL     1       7.562  -2.839  23.453  0.00  0.00    +0.000 C 
ENDBRANCH   1  18
TORSDOF 2
ENDMDL
MODEL 9
REMARK VINA RESULT:      -5.5      1.802      3.680
REMARK  Name = 
REMARK  2 active torsions:
REMARK  status: ('A' for Active; 'I' for Inactive)
REMARK    1  A    between atoms: C_2  and  C_3
REMARK    2  A    between atoms: C_11  and  C_15
REMARK                            x       y       z     vdW  Elec       q    Type
REMARK                         _______ _______ _______ _____ _____    ______ ____
ROOT
ATOM      1  C   UNL     1       8.961   1.680  22.654  0.00  0.00    +0.000 C 
ATOM      2  C   UNL     1       8.217   2.834  23.404  0.00  0.00    +0.000 C 
ATOM      3  C   UNL     1       8.181   1.335  21.426  0.00  0.00    +0.000 C 
ATOM      4  C   UNL     1       9.203   0.046  21.154  0.00  0.00    +0.000 C 
ATOM      5  O   UNL     1       7.478   0.900  20.364  0.00  0.00    +0.000 OA
ATOM      6  C   UNL     1       7.082  -0.430  20.577  0.00  0.00    +0.000 C 
ATOM      7  C   UNL     1       7.394  -1.182  21.920  0.00  0.00    +0.000 C 
ATOM      8  C   UNL     1       7.601  -0.359  22.988  0.00  0.00    +0.000 C 
ATOM      9  C   UNL     1       8.822   0.436  23.531  0.00  0.00    +0.000 C 
ATOM     10  C   UNL     1       7.951   0.761  24.864  0.00  0.00    +0.000 C 
ATOM     11  C   UNL     1       6.850  -0.415  24.381  0.00  0.00    +0.000 C 
ATOM     12  C   UNL     1       7.327  -1.652  25.106  0.00  0.00    +0.000 C 
ATOM     13  C   UNL     1       6.837   1.004  22.383  0.00  0.00    +0.000 C 
ENDROOT
BRANCH   9  14
ATOM     14  C   UNL     1      10.005  -0.238  23.917  0.00  0.00    +0.000 C 
ATOM     15  O   UNL     1       9.855  -1.460  23.784  0.00  0.00    +0.000 OA
ATOM     16  N   UNL     1      10.289   0.155  25.214  0.00  0.00    +0.000 NA
ENDBRANCH   9  14
BRANCH   1  18
ATOM     17  O   UNL     1      10.923   3.071  23.143  0.00  0.00    +0.000 OA
ATOM     18  C   UNL     1      10.335   2.125  22.408  0.00  0.00    +0.000 C 
ENDBRANCH   1  18
TORSDOF 2
ENDMDL
