MODEL 1
REMARK VINA RESULT:      -7.0      0.000      0.000
REMARK  Name = 
REMARK  7 active torsions:
REMARK  status: ('A' for Active; 'I' for Inactive)
REMARK    1  A    between atoms: C_2  and  N_3
REMARK    2  A    between atoms: N_3  and  C_4
REMARK    3  A    between atoms: C_9  and  C_10
REMARK    4  A    between atoms: C_10  and  N_11
REMARK    5  A    between atoms: C_16  and  S_17
REMARK    6  A    between atoms: C_21  and  C_23
REMARK    7  A    between atoms: C_23  and  S_24
REMARK                            x       y       z     vdW  Elec       q    Type
REMARK                         _______ _______ _______ _____ _____    ______ ____
ROOT
ATOM      1  N   UNL     1       7.381  -2.641  22.492  0.00  0.00    +0.000 NA
ATOM      2  C   UNL     1       6.154  -2.815  21.882  0.00  0.00    +0.000 C 
ATOM      3  C   UNL     1       5.084  -3.437  22.736  0.00  0.00    +0.000 C 
ATOM      4  N   UNL     1       5.667  -4.295  23.751  0.00  0.00    +0.000 N 
ATOM      5  C   UNL     1       7.002  -4.808  23.588  0.00  0.00    +0.000 C 
ATOM      6  C   UNL     1       7.954  -3.791  23.037  0.00  0.00    +0.000 C 
ATOM      7  C   UNL     1       4.854  -4.820  24.708  0.00  0.00    +0.000 C 
ATOM      8  O   UNL     1       4.127  -5.759  24.424  0.00  0.00    +0.000 OA
ENDROOT
BRANCH   6   9
ATOM      9  S   UNL     1       9.179  -3.360  24.270  0.00  0.00    +0.000 S 
ATOM     10  O   UNL     1      10.206  -2.615  23.596  0.00  0.00    +0.000 OA
ATOM     11  O   UNL     1       8.490  -2.669  25.323  0.00  0.00    +0.000 OA
ATOM     12  N   UNL     1       9.831  -4.742  24.872  0.00  0.00    +0.000 NA
ENDBRANCH   6   9
BRANCH   1  13
ATOM     13  C   UNL     1       7.395  -1.560  23.426  0.00  0.00    +0.000 C 
BRANCH  13  19
ATOM     14  C   UNL     1       8.635  -0.332  21.543  0.00  0.00    +0.000 A 
ATOM     15  C   UNL     1       9.718   0.935  21.730  0.00  0.00    +0.000 A 
ATOM     16  C   UNL     1       9.057   1.981  22.557  0.00  0.00    +0.000 A 
ATOM     17  C   UNL     1       7.915   2.092  23.433  0.00  0.00    +0.000 A 
ATOM     18  C   UNL     1       7.001   0.895  23.452  0.00  0.00    +0.000 A 
ATOM     19  C   UNL     1       7.601  -0.257  22.566  0.00  0.00    +0.000 A 
ATOM     20  F   UNL     1       8.221   2.540  24.604  0.00  0.00    +0.000 F 
BRANCH  14  21
ATOM     21  N   UNL     1       8.274  -0.106  20.170  0.00  0.00    +0.000 NA
BRANCH  21  23
ATOM     22  C   UNL     1       6.191  -0.468  18.963  0.00  0.00    +0.000 C 
ATOM     23  C   UNL     1       6.928   0.400  19.969  0.00  0.00    +0.000 C 
ENDBRANCH  21  23
ENDBRANCH  14  21
ENDBRANCH  13  19
ENDBRANCH   1  13
BRANCH   7  24
ATOM     24  C   UNL     1       5.308  -4.606  26.136  0.00  0.00    +0.000 C 
BRANCH  24  25
ATOM     25  S   UNL     1       6.156  -6.061  26.751  0.00  0.00    +0.000 S 
ATOM     26  O   UNL     1       5.286  -6.920  27.495  0.00  0.00    +0.000 OA
ATOM     27  N   UNL     1       7.471  -5.645  27.622  0.00  0.00    +0.000 NA
ENDBRANCH  24  25
ENDBRANCH   7  24
TORSDOF 7
ENDMDL
MODEL 2
REMARK VINA RESULT:      -6.7      2.878      4.285
REMARK  Name = 
REMARK  7 active torsions:
REMARK  status: ('A' for Active; 'I' for Inactive)
REMARK    1  A    between atoms: C_2  and  N_3
REMARK    2  A    between atoms: N_3  and  C_4
REMARK    3  A    between atoms: C_9  and  C_10
REMARK    4  A    between atoms: C_10  and  N_11
REMARK    5  A    between atoms: C_16  and  S_17
REMARK    6  A    between atoms: C_21  and  C_23
REMARK    7  A    between atoms: C_23  and  S_24
REMARK                            x       y       z     vdW  Elec       q    Type
REMARK                         _______ _______ _______ _____ _____    ______ ____
ROOT
ATOM      1  N   UNL     1       7.738  -0.818  24.061  0.00  0.00    +0.000 NA
ATOM      2  C   UNL     1       8.963  -1.234  23.577  0.00  0.00    +0.000 C 
ATOM      3  C   UNL     1       9.113  -2.715  23.366  0.00  0.00    +0.000 C 
ATOM      4  N   UNL     1       8.252  -3.454  24.270  0.00  0.00    +0.000 N 
ATOM      5  C   UNL     1       7.752  -2.832  25.469  0.00  0.00    +0.000 C 
ATOM      6  C   UNL     1       7.325  -1.413  25.254  0.00  0.00    +0.000 C 
ATOM      7  C   UNL     1       8.146  -4.802  24.114  0.00  0.00    +0.000 C 
ATOM      8  O   UNL     1       9.056  -5.520  24.497  0.00  0.00    +0.000 OA
ENDROOT
BRANCH   6   9
ATOM      9  S   UNL     1       5.552  -1.265  25.450  0.00  0.00    +0.000 S 
ATOM     10  O   UNL     1       5.213   0.102  25.166  0.00  0.00    +0.000 OA
ATOM     11  O   UNL     1       4.951  -2.251  24.599  0.00  0.00    +0.000 OA
ATOM     12  N   UNL     1       5.164  -1.596  27.012  0.00  0.00    +0.000 NA
ENDBRANCH   6   9
BRANCH   1  13
ATOM     13  C   UNL     1       6.704  -0.856  23.076  0.00  0.00    +0.000 C 
BRANCH  13  19
ATOM     14  C   UNL     1       6.895   1.621  22.432  0.00  0.00    +0.000 A 
ATOM     15  C   UNL     1       5.944   2.432  21.314  0.00  0.00    +0.000 A 
ATOM     16  C   UNL     1       5.975   1.659  20.043  0.00  0.00    +0.000 A 
ATOM     17  C   UNL     1       6.343   0.334  19.603  0.00  0.00    +0.000 A 
ATOM     18  C   UNL     1       7.036  -0.517  20.635  0.00  0.00    +0.000 A 
ATOM     19  C   UNL     1       7.088   0.240  22.013  0.00  0.00    +0.000 A 
ATOM     20  F   UNL     1       5.391  -0.271  18.976  0.00  0.00    +0.000 F 
BRANCH  14  21
ATOM     21  N   UNL     1       8.024   2.511  22.439  0.00  0.00    +0.000 NA
BRANCH  21  23
ATOM     22  C   UNL     1      10.375   2.225  23.004  0.00  0.00    +0.000 C 
ATOM     23  C   UNL     1       9.273   1.913  22.004  0.00  0.00    +0.000 C 
ENDBRANCH  21  23
ENDBRANCH  14  21
ENDBRANCH  13  19
ENDBRANCH   1  13
BRANCH   7  24
ATOM     24  C   UNL     1       6.732  -5.337  24.023  0.00  0.00    +0.000 C 
BRANCH  24  25
ATOM     25  S   UNL     1       6.223  -5.475  22.309  0.00  0.00    +0.000 S 
ATOM     26  O   UNL     1       7.306  -5.847  21.451  0.00  0.00    +0.000 OA
ATOM     27  N   UNL     1       5.506  -4.100  21.802  0.00  0.00    +0.000 NA
ENDBRANCH  24  25
ENDBRANCH   7  24
TORSDOF 7
ENDMDL
MODEL 3
REMARK VINA RESULT:      -6.5      3.738      7.018
REMARK  Name = 
REMARK  7 active torsions:
REMARK  status: ('A' for Active; 'I' for Inactive)
REMARK    1  A    between atoms: C_2  and  N_3
REMARK    2  A    between atoms: N_3  and  C_4
REMARK    3  A    between atoms: C_9  and  C_10
REMARK    4  A    between atoms: C_10  and  N_11
REMARK    5  A    between atoms: C_16  and  S_17
REMARK    6  A    between atoms: C_21  and  C_23
REMARK    7  A    between atoms: C_23  and  S_24
REMARK                            x       y       z     vdW  Elec       q    Type
REMARK                         _______ _______ _______ _____ _____    ______ ____
ROOT
ATOM      1  N   UNL     1       9.053  -1.278  22.836  0.00  0.00    +0.000 NA
ATOM      2  C   UNL     1      10.122  -1.142  23.701  0.00  0.00    +0.000 C 
ATOM      3  C   UNL     1      10.410   0.258  24.167  0.00  0.00    +0.000 C 
ATOM      4  N   UNL     1       9.977   1.229  23.180  0.00  0.00    +0.000 N 
ATOM      5  C   UNL     1       9.780   0.834  21.810  0.00  0.00    +0.000 C 
ATOM      6  C   UNL     1       9.110  -0.499  21.679  0.00  0.00    +0.000 C 
ATOM      7  C   UNL     1      10.023   2.551  23.501  0.00  0.00    +0.000 C 
ATOM      8  O   UNL     1      11.099   3.128  23.503  0.00  0.00    +0.000 OA
ENDROOT
BRANCH   6   9
ATOM      9  S   UNL     1       7.477  -0.303  20.971  0.00  0.00    +0.000 S 
ATOM     10  O   UNL     1       6.813  -1.572  21.096  0.00  0.00    +0.000 OA
ATOM     11  O   UNL     1       6.856   0.800  21.648  0.00  0.00    +0.000 OA
ATOM     12  N   UNL     1       7.633   0.063  19.378  0.00  0.00    +0.000 NA
ENDBRANCH   6   9
BRANCH   1  13
ATOM     13  C   UNL     1       7.787  -1.154  23.484  0.00  0.00    +0.000 C 
BRANCH  13  19
ATOM     14  C   UNL     1       8.252  -3.678  23.531  0.00  0.00    +0.000 A 
ATOM     15  C   UNL     1       7.229  -4.887  22.980  0.00  0.00    +0.000 A 
ATOM     16  C   UNL     1       5.900  -4.687  23.623  0.00  0.00    +0.000 A 
ATOM     17  C   UNL     1       5.198  -3.643  24.331  0.00  0.00    +0.000 A 
ATOM     18  C   UNL     1       6.028  -2.437  24.686  0.00  0.00    +0.000 A 
ATOM     19  C   UNL     1       7.473  -2.577  24.080  0.00  0.00    +0.000 A 
ATOM     20  F   UNL     1       4.056  -3.358  23.803  0.00  0.00    +0.000 F 
BRANCH  14  21
ATOM     21  N   UNL     1       9.060  -4.469  24.419  0.00  0.00    +0.000 NA
BRANCH  21  23
ATOM     22  C   UNL     1       8.224  -5.134  26.606  0.00  0.00    +0.000 C 
ATOM     23  C   UNL     1       8.987  -4.084  25.816  0.00  0.00    +0.000 C 
ENDBRANCH  21  23
ENDBRANCH  14  21
ENDBRANCH  13  19
ENDBRANCH   1  13
BRANCH   7  24
ATOM     24  C   UNL     1       8.739   3.321  23.271  0.00  0.00    +0.000 C 
BRANCH  24  25
ATOM     25  S   UNL     1       7.951   3.709  24.834  0.00  0.00    +0.000 S 
ATOM     26  O   UNL     1       8.598   4.790  25.514  0.00  0.00    +0.000 OA
ATOM     27  N   UNL     1       7.853   2.384  25.782  0.00  0.00    +0.000 NA
ENDBRANCH  24  25
ENDBRANCH   7  24
TORSDOF 7
ENDMDL
MODEL 4
REMARK VINA RESULT:      -6.5      2.518      3.536
REMARK  Name = 
REMARK  7 active torsions:
REMARK  status: ('A' for Active; 'I' for Inactive)
REMARK    1  A    between atoms: C_2  and  N_3
REMARK    2  A    between atoms: N_3  and  C_4
REMARK    3  A    between atoms: C_9  and  C_10
REMARK    4  A    between atoms: C_10  and  N_11
REMARK    5  A    between atoms: C_16  and  S_17
REMARK    6  A    between atoms: C_21  and  C_23
REMARK    7  A    between atoms: C_23  and  S_24
REMARK                            x       y       z     vdW  Elec       q    Type
REMARK                         _______ _______ _______ _____ _____    ______ ____
ROOT
ATOM      1  N   UNL     1       7.687  -0.852  24.643  0.00  0.00    +0.000 NA
ATOM      2  C   UNL     1       8.904  -1.206  24.093  0.00  0.00    +0.000 C 
ATOM      3  C   UNL     1       9.019  -2.630  23.625  0.00  0.00    +0.000 C 
ATOM      4  N   UNL     1       8.138  -3.496  24.386  0.00  0.00    +0.000 N 
ATOM      5  C   UNL     1       7.649  -3.082  25.675  0.00  0.00    +0.000 C 
ATOM      6  C   UNL     1       7.257  -1.637  25.714  0.00  0.00    +0.000 C 
ATOM      7  C   UNL     1       8.000  -4.792  23.995  0.00  0.00    +0.000 C 
ATOM      8  O   UNL     1       8.892  -5.588  24.245  0.00  0.00    +0.000 OA
ENDROOT
BRANCH   6   9
ATOM      9  S   UNL     1       5.486  -1.483  25.935  0.00  0.00    +0.000 S 
ATOM     10  O   UNL     1       5.203  -0.081  26.072  0.00  0.00    +0.000 OA
ATOM     11  O   UNL     1       4.865  -2.143  24.822  0.00  0.00    +0.000 OA
ATOM     12  N   UNL     1       5.059  -2.252  27.322  0.00  0.00    +0.000 NA
ENDBRANCH   6   9
BRANCH   1  13
ATOM     13  C   UNL     1       6.656  -0.692  23.668  0.00  0.00    +0.000 C 
BRANCH  13  19
ATOM     14  C   UNL     1       7.526   0.377  21.503  0.00  0.00    +0.000 A 
ATOM     15  C   UNL     1       9.007   1.135  21.295  0.00  0.00    +0.000 A 
ATOM     16  C   UNL     1       9.147   2.163  22.362  0.00  0.00    +0.000 A 
ATOM     17  C   UNL     1       8.528   2.487  23.626  0.00  0.00    +0.000 A 
ATOM     18  C   UNL     1       7.290   1.696  23.957  0.00  0.00    +0.000 A 
ATOM     19  C   UNL     1       7.037   0.602  22.856  0.00  0.00    +0.000 A 
ATOM     20  F   UNL     1       9.376   2.567  24.595  0.00  0.00    +0.000 F 
BRANCH  14  21
ATOM     21  N   UNL     1       6.823   0.974  20.400  0.00  0.00    +0.000 NA
BRANCH  21  23
ATOM     22  C   UNL     1       5.985   0.747  18.125  0.00  0.00    +0.000 C 
ATOM     23  C   UNL     1       7.074   0.355  19.111  0.00  0.00    +0.000 C 
ENDBRANCH  21  23
ENDBRANCH  14  21
ENDBRANCH  13  19
ENDBRANCH   1  13
BRANCH   7  24
ATOM     24  C   UNL     1       6.575  -5.269  23.812  0.00  0.00    +0.000 C 
BRANCH  24  25
ATOM     25  S   UNL     1       6.128  -5.262  22.076  0.00  0.00    +0.000 S 
ATOM     26  O   UNL     1       7.182  -5.756  21.244  0.00  0.00    +0.000 OA
ATOM     27  N   UNL     1       5.645  -3.776  21.605  0.00  0.00    +0.000 NA
ENDBRANCH  24  25
ENDBRANCH   7  24
TORSDOF 7
ENDMDL
MODEL 5
REMARK VINA RESULT:      -6.3      3.618      6.896
REMARK  Name = 
REMARK  7 active torsions:
REMARK  status: ('A' for Active; 'I' for Inactive)
REMARK    1  A    between atoms: C_2  and  N_3
REMARK    2  A    between atoms: N_3  and  C_4
REMARK    3  A    between atoms: C_9  and  C_10
REMARK    4  A    between atoms: C_10  and  N_11
REMARK    5  A    between atoms: C_16  and  S_17
REMARK    6  A    between atoms: C_21  and  C_23
REMARK    7  A    between atoms: C_23  and  S_24
REMARK                            x       y       z     vdW  Elec       q    Type
REMARK                         _______ _______ _______ _____ _____    ______ ____
ROOT
ATOM      1  N   UNL     1       7.605  -1.931  23.186  0.00  0.00    +0.000 NA
ATOM      2  C   UNL     1       8.593  -2.053  22.228  0.00  0.00    +0.000 C 
ATOM      3  C   UNL     1       9.623  -0.958  22.208  0.00  0.00    +0.000 C 
ATOM      4  N   UNL     1       9.064   0.284  22.711  0.00  0.00    +0.000 N 
ATOM      5  C   UNL     1       7.639   0.484  22.729  0.00  0.00    +0.000 C 
ATOM      6  C   UNL     1       6.885  -0.736  23.161  0.00  0.00    +0.000 C 
ATOM      7  C   UNL     1       9.897   1.342  22.907  0.00  0.00    +0.000 C 
ATOM      8  O   UNL     1      10.286   1.982  21.942  0.00  0.00    +0.000 OA
ENDROOT
BRANCH   6   9
ATOM      9  S   UNL     1       6.094  -0.446  24.742  0.00  0.00    +0.000 S 
ATOM     10  O   UNL     1       5.172  -1.528  24.952  0.00  0.00    +0.000 OA
ATOM     11  O   UNL     1       7.139  -0.313  25.716  0.00  0.00    +0.000 OA
ATOM     12  N   UNL     1       5.253   0.963  24.660  0.00  0.00    +0.000 NA
ENDBRANCH   6   9
BRANCH   1  13
ATOM     13  C   UNL     1       8.061  -2.236  24.504  0.00  0.00    +0.000 C 
BRANCH  13  19
ATOM     14  C   UNL     1       6.974  -4.423  23.715  0.00  0.00    +0.000 A 
ATOM     15  C   UNL     1       5.793  -5.295  24.527  0.00  0.00    +0.000 A 
ATOM     16  C   UNL     1       6.279  -5.537  25.914  0.00  0.00    +0.000 A 
ATOM     17  C   UNL     1       7.299  -5.024  26.797  0.00  0.00    +0.000 A 
ATOM     18  C   UNL     1       8.283  -4.077  26.162  0.00  0.00    +0.000 A 
ATOM     19  C   UNL     1       7.872  -3.790  24.671  0.00  0.00    +0.000 A 
ATOM     20  F   UNL     1       6.826  -4.613  27.925  0.00  0.00    +0.000 F 
BRANCH  14  21
ATOM     21  N   UNL     1       7.479  -5.477  22.877  0.00  0.00    +0.000 NA
BRANCH  21  23
ATOM     22  C   UNL     1       6.215  -5.720  20.811  0.00  0.00    +0.000 C 
ATOM     23  C   UNL     1       6.460  -6.265  22.208  0.00  0.00    +0.000 C 
ENDBRANCH  21  23
ENDBRANCH  14  21
ENDBRANCH  13  19
ENDBRANCH   1  13
BRANCH   7  24
ATOM     24  C   UNL     1       9.820   1.987  24.274  0.00  0.00    +0.000 C 
BRANCH  24  25
ATOM     25  S   UNL     1       9.035   3.595  24.168  0.00  0.00    +0.000 S 
ATOM     26  O   UNL     1       9.984   4.650  23.984  0.00  0.00    +0.000 OA
ATOM     27  N   UNL     1       8.086   3.867  25.467  0.00  0.00    +0.000 NA
ENDBRANCH  24  25
ENDBRANCH   7  24
TORSDOF 7
ENDMDL
MODEL 6
REMARK VINA RESULT:      -6.2      3.720      7.034
REMARK  Name = 
REMARK  7 active torsions:
REMARK  status: ('A' for Active; 'I' for Inactive)
REMARK    1  A    between atoms: C_2  and  N_3
REMARK    2  A    between atoms: N_3  and  C_4
REMARK    3  A    between atoms: C_9  and  C_10
REMARK    4  A    between atoms: C_10  and  N_11
REMARK    5  A    between atoms: C_16  and  S_17
REMARK    6  A    between atoms: C_21  and  C_23
REMARK    7  A    between atoms: C_23  and  S_24
REMARK                            x       y       z     vdW  Elec       q    Type
REMARK                         _______ _______ _______ _____ _____    ______ ____
ROOT
ATOM      1  N   UNL     1       8.913  -1.498  22.459  0.00  0.00    +0.000 NA
ATOM      2  C   UNL     1      10.009  -1.519  23.301  0.00  0.00    +0.000 C 
ATOM      3  C   UNL     1      10.372  -0.203  23.931  0.00  0.00    +0.000 C 
ATOM      4  N   UNL     1       9.957   0.904  23.090  0.00  0.00    +0.000 N 
ATOM      5  C   UNL     1       9.707   0.696  21.687  0.00  0.00    +0.000 C 
ATOM      6  C   UNL     1       8.975  -0.580  21.409  0.00  0.00    +0.000 C 
ATOM      7  C   UNL     1      10.070   2.171  23.575  0.00  0.00    +0.000 C 
ATOM      8  O   UNL     1      11.170   2.698  23.616  0.00  0.00    +0.000 OA
ENDROOT
BRANCH   6   9
ATOM      9  S   UNL     1       7.334  -0.229  20.785  0.00  0.00    +0.000 S 
ATOM     10  O   UNL     1       6.607  -1.468  20.800  0.00  0.00    +0.000 OA
ATOM     11  O   UNL     1       6.794   0.827  21.594  0.00  0.00    +0.000 OA
ATOM     12  N   UNL     1       7.461   0.295  19.233  0.00  0.00    +0.000 NA
ENDBRANCH   6   9
BRANCH   1  13
ATOM     13  C   UNL     1       7.671  -1.407  23.158  0.00  0.00    +0.000 C 
BRANCH  13  19
ATOM     14  C   UNL     1       6.868  -3.839  23.336  0.00  0.00    +0.000 A 
ATOM     15  C   UNL     1       5.626  -4.405  24.310  0.00  0.00    +0.000 A 
ATOM     16  C   UNL     1       5.889  -3.941  25.700  0.00  0.00    +0.000 A 
ATOM     17  C   UNL     1       6.715  -2.961  26.364  0.00  0.00    +0.000 A 
ATOM     18  C   UNL     1       7.729  -2.274  25.488  0.00  0.00    +0.000 A 
ATOM     19  C   UNL     1       7.554  -2.736  23.994  0.00  0.00    +0.000 A 
ATOM     20  F   UNL     1       6.037  -2.158  27.113  0.00  0.00    +0.000 F 
BRANCH  14  21
ATOM     21  N   UNL     1       7.570  -5.078  23.141  0.00  0.00    +0.000 NA
BRANCH  21  23
ATOM     22  C   UNL     1       6.344  -5.407  21.063  0.00  0.00    +0.000 C 
ATOM     23  C   UNL     1       6.864  -6.057  22.335  0.00  0.00    +0.000 C 
ENDBRANCH  21  23
ENDBRANCH  14  21
ENDBRANCH  13  19
ENDBRANCH   1  13
BRANCH   7  24
ATOM     24  C   UNL     1       8.816   3.016  23.486  0.00  0.00    +0.000 C 
BRANCH  24  25
ATOM     25  S   UNL     1       9.086   4.621  24.238  0.00  0.00    +0.000 S 
ATOM     26  O   UNL     1       8.537   4.699  25.557  0.00  0.00    +0.000 OA
ATOM     27  N   UNL     1       8.515   5.815  23.284  0.00  0.00    +0.000 NA
ENDBRANCH  24  25
ENDBRANCH   7  24
TORSDOF 7
ENDMDL
MODEL 7
REMARK VINA RESULT:      -6.2      2.158      2.883
REMARK  Name = 
REMARK  7 active torsions:
REMARK  status: ('A' for Active; 'I' for Inactive)
REMARK    1  A    between atoms: C_2  and  N_3
REMARK    2  A    between atoms: N_3  and  C_4
REMARK    3  A    between atoms: C_9  and  C_10
REMARK    4  A    between atoms: C_10  and  N_11
REMARK    5  A    between atoms: C_16  and  S_17
REMARK    6  A    between atoms: C_21  and  C_23
REMARK    7  A    between atoms: C_23  and  S_24
REMARK                            x       y       z     vdW  Elec       q    Type
REMARK                         _______ _______ _______ _____ _____    ______ ____
ROOT
ATOM      1  N   UNL     1       5.735  -1.921  23.761  0.00  0.00    +0.000 NA
ATOM      2  C   UNL     1       5.503  -1.374  25.008  0.00  0.00    +0.000 C 
ATOM      3  C   UNL     1       5.814  -2.265  26.179  0.00  0.00    +0.000 C 
ATOM      4  N   UNL     1       5.674  -3.663  25.815  0.00  0.00    +0.000 N 
ATOM      5  C   UNL     1       4.885  -4.039  24.671  0.00  0.00    +0.000 C 
ATOM      6  C   UNL     1       5.085  -3.128  23.500  0.00  0.00    +0.000 C 
ATOM      7  C   UNL     1       6.064  -4.612  26.709  0.00  0.00    +0.000 C 
ATOM      8  O   UNL     1       5.350  -4.856  27.669  0.00  0.00    +0.000 OA
ENDROOT
BRANCH   6   9
ATOM      9  S   UNL     1       5.899  -4.004  22.167  0.00  0.00    +0.000 S 
ATOM     10  O   UNL     1       5.657  -3.255  20.965  0.00  0.00    +0.000 OA
ATOM     11  O   UNL     1       7.275  -4.160  22.544  0.00  0.00    +0.000 OA
ATOM     12  N   UNL     1       5.213  -5.489  22.016  0.00  0.00    +0.000 NA
ENDBRANCH   6   9
BRANCH   1  13
ATOM     13  C   UNL     1       7.122  -1.994  23.429  0.00  0.00    +0.000 C 
BRANCH  13  19
ATOM     14  C   UNL     1       7.537  -0.608  21.310  0.00  0.00    +0.000 A 
ATOM     15  C   UNL     1       9.011   0.010  20.800  0.00  0.00    +0.000 A 
ATOM     16  C   UNL     1       9.600   0.777  21.932  0.00  0.00    +0.000 A 
ATOM     17  C   UNL     1       9.407   0.902  23.358  0.00  0.00    +0.000 A 
ATOM     18  C   UNL     1       8.192   0.200  23.905  0.00  0.00    +0.000 A 
ATOM     19  C   UNL     1       7.475  -0.612  22.764  0.00  0.00    +0.000 A 
ATOM     20  F   UNL     1      10.486   0.689  24.032  0.00  0.00    +0.000 F 
BRANCH  14  21
ATOM     21  N   UNL     1       6.671   0.275  20.578  0.00  0.00    +0.000 NA
BRANCH  21  23
ATOM     22  C   UNL     1       5.731   1.037  18.465  0.00  0.00    +0.000 C 
ATOM     23  C   UNL     1       6.825   0.222  19.135  0.00  0.00    +0.000 C 
ENDBRANCH  21  23
ENDBRANCH  14  21
ENDBRANCH  13  19
ENDBRANCH   1  13
BRANCH   7  24
ATOM     24  C   UNL     1       7.012  -5.662  26.171  0.00  0.00    +0.000 C 
BRANCH  24  25
ATOM     25  S   UNL     1       8.526  -4.900  25.585  0.00  0.00    +0.000 S 
ATOM     26  O   UNL     1       9.351  -5.820  24.863  0.00  0.00    +0.000 OA
ATOM     27  N   UNL     1       9.343  -4.206  26.816  0.00  0.00    +0.000 NA
ENDBRANCH  24  25
ENDBRANCH   7  24
TORSDOF 7
ENDMDL
MODEL 8
REMARK VINA RESULT:      -6.2      4.123      6.716
REMARK  Name = 
REMARK  7 active torsions:
REMARK  status: ('A' for Active; 'I' for Inactive)
REMARK    1  A    between atoms: C_2  and  N_3
REMARK    2  A    between atoms: N_3  and  C_4
REMARK    3  A    between atoms: C_9  and  C_10
REMARK    4  A    between atoms: C_10  and  N_11
REMARK    5  A    between atoms: C_16  and  S_17
REMARK    6  A    between atoms: C_21  and  C_23
REMARK    7  A    between atoms: C_23  and  S_24
REMARK                            x       y       z     vdW  Elec       q    Type
REMARK                         _______ _______ _______ _____ _____    ______ ____
ROOT
ATOM      1  N   UNL     1       8.059  -1.752  21.899  0.00  0.00    +0.000 NA
ATOM      2  C   UNL     1       8.972  -2.010  22.903  0.00  0.00    +0.000 C 
ATOM      3  C   UNL     1       9.441  -0.812  23.682  0.00  0.00    +0.000 C 
ATOM      4  N   UNL     1       9.376   0.389  22.870  0.00  0.00    +0.000 N 
ATOM      5  C   UNL     1       9.340   0.293  21.434  0.00  0.00    +0.000 C 
ATOM      6  C   UNL     1       8.459  -0.815  20.945  0.00  0.00    +0.000 C 
ATOM      7  C   UNL     1       9.619   1.590  23.461  0.00  0.00    +0.000 C 
ATOM      8  O   UNL     1      10.769   1.905  23.721  0.00  0.00    +0.000 OA
ENDROOT
BRANCH   6   9
ATOM      9  S   UNL     1       7.037  -0.142  20.090  0.00  0.00    +0.000 S 
ATOM     10  O   UNL     1       6.079  -1.206  19.972  0.00  0.00    +0.000 OA
ATOM     11  O   UNL     1       6.608   1.011  20.831  0.00  0.00    +0.000 OA
ATOM     12  N   UNL     1       7.499   0.329  18.586  0.00  0.00    +0.000 NA
ENDBRANCH   6   9
BRANCH   1  13
ATOM     13  C   UNL     1       6.749  -1.467  22.391  0.00  0.00    +0.000 C 
BRANCH  13  19
ATOM     14  C   UNL     1       6.431  -3.006  24.421  0.00  0.00    +0.000 A 
ATOM     15  C   UNL     1       7.222  -4.458  24.699  0.00  0.00    +0.000 A 
ATOM     16  C   UNL     1       7.052  -5.309  23.489  0.00  0.00    +0.000 A 
ATOM     17  C   UNL     1       6.659  -5.145  22.110  0.00  0.00    +0.000 A 
ATOM     18  C   UNL     1       6.114  -3.786  21.754  0.00  0.00    +0.000 A 
ATOM     19  C   UNL     1       6.216  -2.821  22.992  0.00  0.00    +0.000 A 
ATOM     20  F   UNL     1       7.539  -5.593  21.280  0.00  0.00    +0.000 F 
BRANCH  14  21
ATOM     21  N   UNL     1       5.294  -3.214  25.275  0.00  0.00    +0.000 NA
BRANCH  21  23
ATOM     22  C   UNL     1       5.771  -1.197  26.552  0.00  0.00    +0.000 C 
ATOM     23  C   UNL     1       4.710  -2.001  25.818  0.00  0.00    +0.000 C 
ENDBRANCH  21  23
ENDBRANCH  14  21
ENDBRANCH  13  19
ENDBRANCH   1  13
BRANCH   7  24
ATOM     24  C   UNL     1       8.565   2.653  23.233  0.00  0.00    +0.000 C 
BRANCH  24  25
ATOM     25  S   UNL     1       7.326   2.596  24.528  0.00  0.00    +0.000 S 
ATOM     26  O   UNL     1       7.867   2.153  25.777  0.00  0.00    +0.000 OA
ATOM     27  N   UNL     1       6.050   1.685  24.075  0.00  0.00    +0.000 NA
ENDBRANCH  24  25
ENDBRANCH   7  24
TORSDOF 7
ENDMDL
MODEL 9
REMARK VINA RESULT:      -6.2      3.540      6.689
REMARK  Name = 
REMARK  7 active torsions:
REMARK  status: ('A' for Active; 'I' for Inactive)
REMARK    1  A    between atoms: C_2  and  N_3
REMARK    2  A    between atoms: N_3  and  C_4
REMARK    3  A    between atoms: C_9  and  C_10
REMARK    4  A    between atoms: C_10  and  N_11
REMARK    5  A    between atoms: C_16  and  S_17
REMARK    6  A    between atoms: C_21  and  C_23
REMARK    7  A    between atoms: C_23  and  S_24
REMARK                            x       y       z     vdW  Elec       q    Type
REMARK                         _______ _______ _______ _____ _____    ______ ____
ROOT
ATOM      1  N   UNL     1       7.639  -1.802  24.281  0.00  0.00    +0.000 NA
ATOM      2  C   UNL     1       6.445  -1.327  24.788  0.00  0.00    +0.000 C 
ATOM      3  C   UNL     1       5.949  -0.040  24.190  0.00  0.00    +0.000 C 
ATOM      4  N   UNL     1       7.054   0.764  23.704  0.00  0.00    +0.000 N 
ATOM      5  C   UNL     1       8.388   0.538  24.197  0.00  0.00    +0.000 C 
ATOM      6  C   UNL     1       8.716  -0.916  24.341  0.00  0.00    +0.000 C 
ATOM      7  C   UNL     1       6.779   1.893  22.996  0.00  0.00    +0.000 C 
ATOM      8  O   UNL     1       6.398   2.891  23.588  0.00  0.00    +0.000 OA
ENDROOT
BRANCH   6   9
ATOM      9  S   UNL     1       9.982  -1.384  23.164  0.00  0.00    +0.000 S 
ATOM     10  O   UNL     1      10.975  -0.346  23.184  0.00  0.00    +0.000 OA
ATOM     11  O   UNL     1      10.435  -2.695  23.533  0.00  0.00    +0.000 OA
ATOM     12  N   UNL     1       9.310  -1.451  21.666  0.00  0.00    +0.000 NA
ENDBRANCH   6   9
BRANCH   1  13
ATOM     13  C   UNL     1       7.508  -2.372  22.978  0.00  0.00    +0.000 C 
BRANCH  13  19
ATOM     14  C   UNL     1       7.741  -4.731  23.964  0.00  0.00    +0.000 A 
ATOM     15  C   UNL     1       7.966  -6.150  23.099  0.00  0.00    +0.000 A 
ATOM     16  C   UNL     1       6.901  -6.226  22.061  0.00  0.00    +0.000 A 
ATOM     17  C   UNL     1       5.948  -5.339  21.437  0.00  0.00    +0.000 A 
ATOM     18  C   UNL     1       5.840  -3.972  22.058  0.00  0.00    +0.000 A 
ATOM     19  C   UNL     1       6.908  -3.811  23.202  0.00  0.00    +0.000 A 
ATOM     20  F   UNL     1       6.041  -5.327  20.150  0.00  0.00    +0.000 F 
BRANCH  14  21
ATOM     21  N   UNL     1       7.220  -5.299  25.177  0.00  0.00    +0.000 NA
BRANCH  21  23
ATOM     22  C   UNL     1       5.023  -6.287  25.530  0.00  0.00    +0.000 C 
ATOM     23  C   UNL     1       5.825  -4.999  25.441  0.00  0.00    +0.000 C 
ENDBRANCH  21  23
ENDBRANCH  14  21
ENDBRANCH  13  19
ENDBRANCH   1  13
BRANCH   7  24
ATOM     24  C   UNL     1       7.489   2.016  21.664  0.00  0.00    +0.000 C 
BRANCH  24  25
ATOM     25  S   UNL     1       6.741   0.928  20.451  0.00  0.00    +0.000 S 
ATOM     26  O   UNL     1       7.687   0.465  19.483  0.00  0.00    +0.000 OA
ATOM     27  N   UNL     1       5.460   1.645  19.738  0.00  0.00    +0.000 NA
ENDBRANCH  24  25
ENDBRANCH   7  24
TORSDOF 7
ENDMDL
