MODEL 1
REMARK VINA RESULT:      -6.6      0.000      0.000
REMARK  Name = 
REMARK  2 active torsions:
REMARK  status: ('A' for Active; 'I' for Inactive)
REMARK    1  A    between atoms: N_7  and  C_10
REMARK    2  A    between atoms: C_10  and  N_11
REMARK                            x       y       z     vdW  Elec       q    Type
REMARK                         _______ _______ _______ _____ _____    ______ ____
ROOT
ATOM      1  C   UNL     1       7.188  -1.234  22.703  0.00  0.00    +0.000 C 
ENDROOT
BRANCH   1   8
ATOM      2  C   UNL     1       5.747   0.269  17.869  0.00  0.00    +0.000 C 
ATOM      3  C   UNL     1       5.591   1.052  19.153  0.00  0.00    +0.000 C 
ATOM      4  O   UNL     1       4.592   1.689  19.397  0.00  0.00    +0.000 OA
ATOM      5  N   UNL     1       6.628   1.006  20.010  0.00  0.00    +0.000 N 
ATOM      6  C   UNL     1       6.666   1.898  21.151  0.00  0.00    +0.000 C 
ATOM      7  C   UNL     1       7.027   1.115  22.405  0.00  0.00    +0.000 C 
ATOM      8  N   UNL     1       7.633  -0.081  22.162  0.00  0.00    +0.000 NA
ATOM      9  C   UNL     1       8.477  -0.161  21.062  0.00  0.00    +0.000 C 
ATOM     10  C   UNL     1       7.734   0.101  19.758  0.00  0.00    +0.000 C 
ENDBRANCH   1   8
BRANCH   1  11
ATOM     11  N   UNL     1       7.354  -1.560  24.040  0.00  0.00    +0.000 NA
ATOM     12  C   UNL     1       6.630  -2.736  24.389  0.00  0.00    +0.000 C 
ATOM     13  C   UNL     1       7.270  -3.935  23.676  0.00  0.00    +0.000 C 
ATOM     14  N   UNL     1       8.659  -4.013  24.142  0.00  0.00    +0.000 N 
ATOM     15  C   UNL     1       9.457  -2.816  24.188  0.00  0.00    +0.000 C 
ATOM     16  C   UNL     1       8.662  -1.588  24.508  0.00  0.00    +0.000 C 
ATOM     17  C   UNL     1       8.983  -5.065  24.938  0.00  0.00    +0.000 C 
ATOM     18  O   UNL     1       8.240  -5.404  25.833  0.00  0.00    +0.000 OA
ATOM     19  O   UNL     1      10.312  -5.110  25.071  0.00  0.00    +0.000 OA
ENDBRANCH   1  11
TORSDOF 2
ENDMDL
MODEL 2
REMARK VINA RESULT:      -6.5      1.889      2.790
REMARK  Name = 
REMARK  2 active torsions:
REMARK  status: ('A' for Active; 'I' for Inactive)
REMARK    1  A    between atoms: N_7  and  C_10
REMARK    2  A    between atoms: C_10  and  N_11
REMARK                            x       y       z     vdW  Elec       q    Type
REMARK                         _______ _______ _______ _____ _____    ______ ____
ROOT
ATOM      1  C   UNL     1       8.134  -2.405  23.839  0.00  0.00    +0.000 C 
ENDROOT
BRANCH   1   8
ATOM      2  C   UNL     1       7.605   0.152  19.269  0.00  0.00    +0.000 C 
ATOM      3  C   UNL     1       7.448   0.725  20.659  0.00  0.00    +0.000 C 
ATOM      4  O   UNL     1       6.569   1.509  20.934  0.00  0.00    +0.000 OA
ATOM      5  N   UNL     1       8.346   0.319  21.577  0.00  0.00    +0.000 N 
ATOM      6  C   UNL     1       8.416   0.980  22.865  0.00  0.00    +0.000 C 
ATOM      7  C   UNL     1       8.465  -0.059  23.975  0.00  0.00    +0.000 C 
ATOM      8  N   UNL     1       8.855  -1.298  23.563  0.00  0.00    +0.000 NA
ATOM      9  C   UNL     1       9.794  -1.371  22.543  0.00  0.00    +0.000 C 
ATOM     10  C   UNL     1       9.279  -0.743  21.254  0.00  0.00    +0.000 C 
ENDBRANCH   1   8
BRANCH   1  11
ATOM     11  N   UNL     1       8.683  -3.553  24.388  0.00  0.00    +0.000 NA
ATOM     12  C   UNL     1       8.803  -3.455  25.804  0.00  0.00    +0.000 C 
ATOM     13  C   UNL     1       7.395  -3.438  26.415  0.00  0.00    +0.000 C 
ATOM     14  N   UNL     1       6.751  -4.698  26.027  0.00  0.00    +0.000 N 
ATOM     15  C   UNL     1       6.832  -5.141  24.659  0.00  0.00    +0.000 C 
ATOM     16  C   UNL     1       8.114  -4.757  23.990  0.00  0.00    +0.000 C 
ATOM     17  C   UNL     1       6.528  -5.605  27.013  0.00  0.00    +0.000 C 
ATOM     18  O   UNL     1       7.386  -5.831  27.838  0.00  0.00    +0.000 OA
ATOM     19  O   UNL     1       5.735  -6.571  26.538  0.00  0.00    +0.000 OA
ENDBRANCH   1  11
TORSDOF 2
ENDMDL
MODEL 3
REMARK VINA RESULT:      -6.2      2.395      3.290
REMARK  Name = 
REMARK  2 active torsions:
REMARK  status: ('A' for Active; 'I' for Inactive)
REMARK    1  A    between atoms: N_7  and  C_10
REMARK    2  A    between atoms: C_10  and  N_11
REMARK                            x       y       z     vdW  Elec       q    Type
REMARK                         _______ _______ _______ _____ _____    ______ ____
ROOT
ATOM      1  C   UNL     1       8.906  -2.633  24.245  0.00  0.00    +0.000 C 
ENDROOT
BRANCH   1   8
ATOM      2  C   UNL     1       7.786   0.281  20.007  0.00  0.00    +0.000 C 
ATOM      3  C   UNL     1       7.934   0.762  21.433  0.00  0.00    +0.000 C 
ATOM      4  O   UNL     1       7.191   1.589  21.910  0.00  0.00    +0.000 OA
ATOM      5  N   UNL     1       8.943   0.224  22.142  0.00  0.00    +0.000 N 
ATOM      6  C   UNL     1       9.303   0.783  23.430  0.00  0.00    +0.000 C 
ATOM      7  C   UNL     1       9.460  -0.334  24.451  0.00  0.00    +0.000 C 
ATOM      8  N   UNL     1       9.659  -1.566  23.904  0.00  0.00    +0.000 NA
ATOM      9  C   UNL     1      10.388  -1.636  22.724  0.00  0.00    +0.000 C 
ATOM     10  C   UNL     1       9.706  -0.880  21.591  0.00  0.00    +0.000 C 
ENDBRANCH   1   8
BRANCH   1  11
ATOM     11  N   UNL     1       7.527  -2.580  24.373  0.00  0.00    +0.000 NA
ATOM     12  C   UNL     1       6.879  -2.596  23.104  0.00  0.00    +0.000 C 
ATOM     13  C   UNL     1       7.099  -3.971  22.459  0.00  0.00    +0.000 C 
ATOM     14  N   UNL     1       6.507  -4.962  23.365  0.00  0.00    +0.000 N 
ATOM     15  C   UNL     1       6.783  -4.883  24.776  0.00  0.00    +0.000 C 
ATOM     16  C   UNL     1       6.958  -3.480  25.266  0.00  0.00    +0.000 C 
ATOM     17  C   UNL     1       5.384  -5.595  22.937  0.00  0.00    +0.000 C 
ATOM     18  O   UNL     1       4.500  -4.967  22.395  0.00  0.00    +0.000 OA
ATOM     19  O   UNL     1       5.122  -6.613  23.763  0.00  0.00    +0.000 OA
ENDBRANCH   1  11
TORSDOF 2
ENDMDL
MODEL 4
REMARK VINA RESULT:      -6.2      2.923      4.073
REMARK  Name = 
REMARK  2 active torsions:
REMARK  status: ('A' for Active; 'I' for Inactive)
REMARK    1  A    between atoms: N_7  and  C_10
REMARK    2  A    between atoms: C_10  and  N_11
REMARK                            x       y       z     vdW  Elec       q    Type
REMARK                         _______ _______ _______ _____ _____    ______ ____
ROOT
ATOM      1  C   UNL     1       7.545  -2.481  23.229  0.00  0.00    +0.000 C 
ENDROOT
BRANCH   1   8
ATOM      2  C   UNL     1       8.842   2.414  24.665  0.00  0.00    +0.000 C 
ATOM      3  C   UNL     1       9.747   1.375  24.041  0.00  0.00    +0.000 C 
ATOM      4  O   UNL     1      10.887   1.212  24.412  0.00  0.00    +0.000 OA
ATOM      5  N   UNL     1       9.216   0.642  23.044  0.00  0.00    +0.000 N 
ATOM      6  C   UNL     1      10.067  -0.211  22.239  0.00  0.00    +0.000 C 
ATOM      7  C   UNL     1       9.431  -1.587  22.099  0.00  0.00    +0.000 C 
ATOM      8  N   UNL     1       8.092  -1.612  22.354  0.00  0.00    +0.000 NA
ATOM      9  C   UNL     1       7.349  -0.496  21.994  0.00  0.00    +0.000 C 
ATOM     10  C   UNL     1       7.802   0.752  22.742  0.00  0.00    +0.000 C 
ENDBRANCH   1   8
BRANCH   1  11
ATOM     11  N   UNL     1       8.216  -3.589  23.720  0.00  0.00    +0.000 NA
ATOM     12  C   UNL     1       8.609  -3.408  25.078  0.00  0.00    +0.000 C 
ATOM     13  C   UNL     1       7.348  -3.372  25.952  0.00  0.00    +0.000 C 
ATOM     14  N   UNL     1       6.669  -4.659  25.768  0.00  0.00    +0.000 N 
ATOM     15  C   UNL     1       6.490  -5.180  24.437  0.00  0.00    +0.000 C 
ATOM     16  C   UNL     1       7.608  -4.820  23.508  0.00  0.00    +0.000 C 
ATOM     17  C   UNL     1       6.664  -5.510  26.826  0.00  0.00    +0.000 C 
ATOM     18  O   UNL     1       7.672  -5.678  27.477  0.00  0.00    +0.000 OA
ATOM     19  O   UNL     1       5.816  -6.511  26.570  0.00  0.00    +0.000 OA
ENDBRANCH   1  11
TORSDOF 2
ENDMDL
MODEL 5
REMARK VINA RESULT:      -6.0      3.435      6.046
REMARK  Name = 
REMARK  2 active torsions:
REMARK  status: ('A' for Active; 'I' for Inactive)
REMARK    1  A    between atoms: N_7  and  C_10
REMARK    2  A    between atoms: C_10  and  N_11
REMARK                            x       y       z     vdW  Elec       q    Type
REMARK                         _______ _______ _______ _____ _____    ______ ____
ROOT
ATOM      1  C   UNL     1       7.872  -2.816  22.997  0.00  0.00    +0.000 C 
ENDROOT
BRANCH   1   8
ATOM      2  C   UNL     1       3.479  -4.710  25.194  0.00  0.00    +0.000 C 
ATOM      3  C   UNL     1       4.017  -5.018  23.814  0.00  0.00    +0.000 C 
ATOM      4  O   UNL     1       3.293  -5.102  22.848  0.00  0.00    +0.000 OA
ATOM      5  N   UNL     1       5.347  -5.201  23.720  0.00  0.00    +0.000 N 
ATOM      6  C   UNL     1       5.922  -5.721  22.495  0.00  0.00    +0.000 C 
ATOM      7  C   UNL     1       7.125  -4.879  22.094  0.00  0.00    +0.000 C 
ATOM      8  N   UNL     1       7.656  -4.143  23.110  0.00  0.00    +0.000 NA
ATOM      9  C   UNL     1       7.623  -4.691  24.386  0.00  0.00    +0.000 C 
ATOM     10  C   UNL     1       6.197  -4.930  24.863  0.00  0.00    +0.000 C 
ENDBRANCH   1   8
BRANCH   1  11
ATOM     11  N   UNL     1       8.961  -2.276  22.331  0.00  0.00    +0.000 NA
ATOM     12  C   UNL     1       8.589  -1.151  21.539  0.00  0.00    +0.000 C 
ATOM     13  C   UNL     1       8.177  -0.008  22.476  0.00  0.00    +0.000 C 
ATOM     14  N   UNL     1       9.344   0.298  23.311  0.00  0.00    +0.000 N 
ATOM     15  C   UNL     1      10.073  -0.781  23.927  0.00  0.00    +0.000 C 
ATOM     16  C   UNL     1      10.091  -2.029  23.101  0.00  0.00    +0.000 C 
ATOM     17  C   UNL     1       9.963   1.487  23.093  0.00  0.00    +0.000 C 
ATOM     18  O   UNL     1      10.168   1.869  21.962  0.00  0.00    +0.000 OA
ATOM     19  O   UNL     1      10.838   1.703  24.080  0.00  0.00    +0.000 OA
ENDBRANCH   1  11
TORSDOF 2
ENDMDL
MODEL 6
REMARK VINA RESULT:      -6.0      3.593      4.580
REMARK  Name = 
REMARK  2 active torsions:
REMARK  status: ('A' for Active; 'I' for Inactive)
REMARK    1  A    between atoms: N_7  and  C_10
REMARK    2  A    between atoms: C_10  and  N_11
REMARK                            x       y       z     vdW  Elec       q    Type
REMARK                         _______ _______ _______ _____ _____    ______ ____
ROOT
ATOM      1  C   UNL     1       7.767  -2.826  23.847  0.00  0.00    +0.000 C 
ENDROOT
BRANCH   1   8
ATOM      2  C   UNL     1       9.919   1.596  21.971  0.00  0.00    +0.000 C 
ATOM      3  C   UNL     1       9.483   1.325  23.393  0.00  0.00    +0.000 C 
ATOM      4  O   UNL     1       8.914   2.159  24.059  0.00  0.00    +0.000 OA
ATOM      5  N   UNL     1       9.768   0.103  23.882  0.00  0.00    +0.000 N 
ATOM      6  C   UNL     1       9.596  -0.171  25.294  0.00  0.00    +0.000 C 
ATOM      7  C   UNL     1       8.853  -1.486  25.477  0.00  0.00    +0.000 C 
ATOM      8  N   UNL     1       8.888  -2.303  24.387  0.00  0.00    +0.000 NA
ATOM      9  C   UNL     1      10.040  -2.292  23.612  0.00  0.00    +0.000 C 
ATOM     10  C   UNL     1      10.300  -0.921  23.002  0.00  0.00    +0.000 C 
ENDBRANCH   1   8
BRANCH   1  11
ATOM     11  N   UNL     1       7.692  -4.119  23.355  0.00  0.00    +0.000 NA
ATOM     12  C   UNL     1       7.391  -5.058  24.385  0.00  0.00    +0.000 C 
ATOM     13  C   UNL     1       5.958  -4.807  24.872  0.00  0.00    +0.000 C 
ATOM     14  N   UNL     1       5.077  -4.995  23.714  0.00  0.00    +0.000 N 
ATOM     15  C   UNL     1       5.423  -4.384  22.457  0.00  0.00    +0.000 C 
ATOM     16  C   UNL     1       6.900  -4.303  22.228  0.00  0.00    +0.000 C 
ATOM     17  C   UNL     1       4.264  -6.082  23.730  0.00  0.00    +0.000 C 
ATOM     18  O   UNL     1       4.691  -7.158  24.087  0.00  0.00    +0.000 OA
ATOM     19  O   UNL     1       3.378  -5.971  22.734  0.00  0.00    +0.000 OA
ENDBRANCH   1  11
TORSDOF 2
ENDMDL
MODEL 7
REMARK VINA RESULT:      -6.0      2.289      3.125
REMARK  Name = 
REMARK  2 active torsions:
REMARK  status: ('A' for Active; 'I' for Inactive)
REMARK    1  A    between atoms: N_7  and  C_10
REMARK    2  A    between atoms: C_10  and  N_11
REMARK                            x       y       z     vdW  Elec       q    Type
REMARK                         _______ _______ _______ _____ _____    ______ ____
ROOT
ATOM      1  C   UNL     1       8.354  -1.649  22.885  0.00  0.00    +0.000 C 
ENDROOT
BRANCH   1   8
ATOM      2  C   UNL     1       6.671   3.269  22.056  0.00  0.00    +0.000 C 
ATOM      3  C   UNL     1       8.060   2.837  22.470  0.00  0.00    +0.000 C 
ATOM      4  O   UNL     1       8.700   3.442  23.299  0.00  0.00    +0.000 OA
ATOM      5  N   UNL     1       8.550   1.741  21.859  0.00  0.00    +0.000 N 
ATOM      6  C   UNL     1       9.946   1.386  22.020  0.00  0.00    +0.000 C 
ATOM      7  C   UNL     1      10.066  -0.097  22.343  0.00  0.00    +0.000 C 
ATOM      8  N   UNL     1       8.970  -0.832  22.004  0.00  0.00    +0.000 NA
ATOM      9  C   UNL     1       8.268  -0.454  20.867  0.00  0.00    +0.000 C 
ATOM     10  C   UNL     1       7.693   0.950  20.997  0.00  0.00    +0.000 C 
ENDBRANCH   1   8
BRANCH   1  11
ATOM     11  N   UNL     1       8.644  -2.999  23.001  0.00  0.00    +0.000 NA
ATOM     12  C   UNL     1       9.270  -3.299  24.246  0.00  0.00    +0.000 C 
ATOM     13  C   UNL     1       8.248  -3.083  25.371  0.00  0.00    +0.000 C 
ATOM     14  N   UNL     1       7.131  -3.997  25.110  0.00  0.00    +0.000 N 
ATOM     15  C   UNL     1       6.584  -4.082  23.780  0.00  0.00    +0.000 C 
ATOM     16  C   UNL     1       7.608  -3.877  22.707  0.00  0.00    +0.000 C 
ATOM     17  C   UNL     1       6.973  -5.038  25.966  0.00  0.00    +0.000 C 
ATOM     18  O   UNL     1       7.936  -5.677  26.333  0.00  0.00    +0.000 OA
ATOM     19  O   UNL     1       5.793  -5.618  25.727  0.00  0.00    +0.000 OA
ENDBRANCH   1  11
TORSDOF 2
ENDMDL
MODEL 8
REMARK VINA RESULT:      -5.9      2.929      5.876
REMARK  Name = 
REMARK  2 active torsions:
REMARK  status: ('A' for Active; 'I' for Inactive)
REMARK    1  A    between atoms: N_7  and  C_10
REMARK    2  A    between atoms: C_10  and  N_11
REMARK                            x       y       z     vdW  Elec       q    Type
REMARK                         _______ _______ _______ _____ _____    ______ ____
ROOT
ATOM      1  C   UNL     1       8.051  -2.149  22.439  0.00  0.00    +0.000 C 
ENDROOT
BRANCH   1   8
ATOM      2  C   UNL     1      10.464   2.424  23.423  0.00  0.00    +0.000 C 
ATOM      3  C   UNL     1       9.553   1.654  24.352  0.00  0.00    +0.000 C 
ATOM      4  O   UNL     1       8.728   2.206  25.044  0.00  0.00    +0.000 OA
ATOM      5  N   UNL     1       9.713   0.317  24.372  0.00  0.00    +0.000 N 
ATOM      6  C   UNL     1       9.051  -0.477  25.387  0.00  0.00    +0.000 C 
ATOM      7  C   UNL     1       8.376  -1.679  24.742  0.00  0.00    +0.000 C 
ATOM      8  N   UNL     1       8.860  -1.995  23.508  0.00  0.00    +0.000 NA
ATOM      9  C   UNL     1      10.213  -1.788  23.276  0.00  0.00    +0.000 C 
ATOM     10  C   UNL     1      10.593  -0.319  23.411  0.00  0.00    +0.000 C 
ENDBRANCH   1   8
BRANCH   1  11
ATOM     11  N   UNL     1       6.820  -1.525  22.320  0.00  0.00    +0.000 NA
ATOM     12  C   UNL     1       6.957  -0.114  22.169  0.00  0.00    +0.000 C 
ATOM     13  C   UNL     1       7.604   0.172  20.808  0.00  0.00    +0.000 C 
ATOM     14  N   UNL     1       6.707  -0.383  19.788  0.00  0.00    +0.000 N 
ATOM     15  C   UNL     1       6.177  -1.710  19.959  0.00  0.00    +0.000 C 
ATOM     16  C   UNL     1       5.941  -2.071  21.393  0.00  0.00    +0.000 C 
ATOM     17  C   UNL     1       6.047   0.505  19.000  0.00  0.00    +0.000 C 
ATOM     18  O   UNL     1       5.540   1.493  19.486  0.00  0.00    +0.000 OA
ATOM     19  O   UNL     1       5.472  -0.158  17.992  0.00  0.00    +0.000 OA
ENDBRANCH   1  11
TORSDOF 2
ENDMDL
MODEL 9
REMARK VINA RESULT:      -5.9      2.900      4.081
REMARK  Name = 
REMARK  2 active torsions:
REMARK  status: ('A' for Active; 'I' for Inactive)
REMARK    1  A    between atoms: N_7  and  C_10
REMARK    2  A    between atoms: C_10  and  N_11
REMARK                            x       y       z     vdW  Elec       q    Type
REMARK                         _______ _______ _______ _____ _____    ______ ____
ROOT
ATOM      1  C   UNL     1       7.675  -2.733  24.662  0.00  0.00    +0.000 C 
ENDROOT
BRANCH   1   8
ATOM      2  C   UNL     1       8.277   1.357  21.404  0.00  0.00    +0.000 C 
ATOM      3  C   UNL     1       9.364   0.616  22.150  0.00  0.00    +0.000 C 
ATOM      4  O   UNL     1      10.291   1.192  22.672  0.00  0.00    +0.000 OA
ATOM      5  N   UNL     1       9.248  -0.725  22.197  0.00  0.00    +0.000 N 
ATOM      6  C   UNL     1      10.348  -1.531  22.687  0.00  0.00    +0.000 C 
ATOM      7  C   UNL     1       9.829  -2.559  23.682  0.00  0.00    +0.000 C 
ATOM      8  N   UNL     1       8.492  -2.800  23.589  0.00  0.00    +0.000 NA
ATOM      9  C   UNL     1       7.915  -2.747  22.327  0.00  0.00    +0.000 C 
ATOM     10  C   UNL     1       8.042  -1.363  21.705  0.00  0.00    +0.000 C 
ENDBRANCH   1   8
BRANCH   1  11
ATOM     11  N   UNL     1       6.596  -3.582  24.850  0.00  0.00    +0.000 NA
ATOM     12  C   UNL     1       7.009  -4.940  24.977  0.00  0.00    +0.000 C 
ATOM     13  C   UNL     1       7.783  -5.095  26.292  0.00  0.00    +0.000 C 
ATOM     14  N   UNL     1       6.863  -4.721  27.372  0.00  0.00    +0.000 N 
ATOM     15  C   UNL     1       6.079  -3.520  27.248  0.00  0.00    +0.000 C 
ATOM     16  C   UNL     1       5.688  -3.213  25.836  0.00  0.00    +0.000 C 
ATOM     17  C   UNL     1       6.436  -5.718  28.190  0.00  0.00    +0.000 C 
ATOM     18  O   UNL     1       6.098  -6.785  27.726  0.00  0.00    +0.000 OA
ATOM     19  O   UNL     1       5.809  -5.175  29.239  0.00  0.00    +0.000 OA
ENDBRANCH   1  11
TORSDOF 2
ENDMDL
