MODEL 1
REMARK VINA RESULT:      -6.2      0.000      0.000
REMARK  Name = 
REMARK  3 active torsions:
REMARK  status: ('A' for Active; 'I' for Inactive)
REMARK    1  A    between atoms: N_5  and  C_8
REMARK    2  A    between atoms: C_8  and  C_9
REMARK    3  A    between atoms: N_11  and  C_12
REMARK                            x       y       z     vdW  Elec       q    Type
REMARK                         _______ _______ _______ _____ _____    ______ ____
ROOT
ATOM      1  C   UNL     1       9.224  -2.493  23.643  0.00  0.00    +0.000 C 
ATOM      2  O   UNL     1      10.031  -3.299  24.077  0.00  0.00    +0.000 OA
ATOM      3  N   UNL     1       9.098  -1.282  24.258  0.00  0.00    +0.000 NA
ENDROOT
BRANCH   3   4
ATOM      4  C   UNL     1      10.047  -0.467  23.605  0.00  0.00    +0.000 C 
ATOM      5  C   UNL     1       9.872  -0.090  22.296  0.00  0.00    +0.000 C 
ATOM      6  C   UNL     1       9.473   1.377  21.657  0.00  0.00    +0.000 C 
ATOM      7  C   UNL     1       9.690   2.125  23.099  0.00  0.00    +0.000 C 
ATOM      8  C   UNL     1      10.751   1.764  23.996  0.00  0.00    +0.000 C 
ATOM      9  C   UNL     1      10.739   0.390  24.797  0.00  0.00    +0.000 C 
ATOM     10  O   UNL     1       8.416   2.059  23.662  0.00  0.00    +0.000 OA
ENDBRANCH   3   4
BRANCH   1  11
ATOM     11  C   UNL     1       8.224  -2.863  22.605  0.00  0.00    +0.000 C 
BRANCH  11  16
ATOM     12  O   UNL     1       5.730  -5.612  24.678  0.00  0.00    +0.000 OA
ATOM     13  C   UNL     1       5.238  -5.562  23.367  0.00  0.00    +0.000 C 
ATOM     14  C   UNL     1       6.351  -6.015  22.430  0.00  0.00    +0.000 C 
ATOM     15  C   UNL     1       7.093  -4.784  21.912  0.00  0.00    +0.000 C 
ATOM     16  N   UNL     1       7.288  -3.857  22.984  0.00  0.00    +0.000 NA
ATOM     17  C   UNL     1       6.031  -3.199  23.247  0.00  0.00    +0.000 C 
ATOM     18  C   UNL     1       4.863  -4.128  23.052  0.00  0.00    +0.000 C 
ENDBRANCH  11  16
ENDBRANCH   1  11
TORSDOF 3
ENDMDL
MODEL 2
REMARK VINA RESULT:      -6.2      1.516      6.121
REMARK  Name = 
REMARK  3 active torsions:
REMARK  status: ('A' for Active; 'I' for Inactive)
REMARK    1  A    between atoms: N_5  and  C_8
REMARK    2  A    between atoms: C_8  and  C_9
REMARK    3  A    between atoms: N_11  and  C_12
REMARK                            x       y       z     vdW  Elec       q    Type
REMARK                         _______ _______ _______ _____ _____    ______ ____
ROOT
ATOM      1  C   UNL     1       9.275  -2.553  24.012  0.00  0.00    +0.000 C 
ATOM      2  O   UNL     1       9.267  -2.089  25.141  0.00  0.00    +0.000 OA
ATOM      3  N   UNL     1       8.912  -3.854  23.826  0.00  0.00    +0.000 NA
ENDROOT
BRANCH   3   4
ATOM      4  C   UNL     1       7.515  -3.796  23.638  0.00  0.00    +0.000 C 
ATOM      5  C   UNL     1       6.980  -3.494  22.409  0.00  0.00    +0.000 C 
ATOM      6  C   UNL     1       6.203  -4.461  21.322  0.00  0.00    +0.000 C 
ATOM      7  C   UNL     1       6.096  -5.686  22.406  0.00  0.00    +0.000 C 
ATOM      8  C   UNL     1       5.828  -5.455  23.798  0.00  0.00    +0.000 C 
ATOM      9  C   UNL     1       6.909  -4.799  24.761  0.00  0.00    +0.000 C 
ATOM     10  O   UNL     1       7.266  -6.403  22.160  0.00  0.00    +0.000 OA
ENDBRANCH   3   4
BRANCH   1  11
ATOM     11  C   UNL     1       9.870  -1.816  22.864  0.00  0.00    +0.000 C 
BRANCH  11  16
ATOM     12  O   UNL     1       7.738   1.861  22.884  0.00  0.00    +0.000 OA
ATOM     13  C   UNL     1       8.483   1.857  21.696  0.00  0.00    +0.000 C 
ATOM     14  C   UNL     1       8.036   0.658  20.867  0.00  0.00    +0.000 C 
ATOM     15  C   UNL     1       8.976  -0.514  21.146  0.00  0.00    +0.000 C 
ATOM     16  N   UNL     1       9.257  -0.580  22.547  0.00  0.00    +0.000 NA
ATOM     17  C   UNL     1      10.193   0.470  22.871  0.00  0.00    +0.000 C 
ATOM     18  C   UNL     1       9.948   1.709  22.051  0.00  0.00    +0.000 C 
ENDBRANCH  11  16
ENDBRANCH   1  11
TORSDOF 3
ENDMDL
MODEL 3
REMARK VINA RESULT:      -6.0      1.480      6.376
REMARK  Name = 
REMARK  3 active torsions:
REMARK  status: ('A' for Active; 'I' for Inactive)
REMARK    1  A    between atoms: N_5  and  C_8
REMARK    2  A    between atoms: C_8  and  C_9
REMARK    3  A    between atoms: N_11  and  C_12
REMARK                            x       y       z     vdW  Elec       q    Type
REMARK                         _______ _______ _______ _____ _____    ______ ____
ROOT
ATOM      1  C   UNL     1       9.132  -2.913  24.087  0.00  0.00    +0.000 C 
ATOM      2  O   UNL     1      10.137  -3.596  24.202  0.00  0.00    +0.000 OA
ATOM      3  N   UNL     1       8.223  -3.226  23.120  0.00  0.00    +0.000 NA
ENDROOT
BRANCH   3   4
ATOM      4  C   UNL     1       7.354  -4.141  23.751  0.00  0.00    +0.000 C 
ATOM      5  C   UNL     1       6.261  -3.704  24.459  0.00  0.00    +0.000 C 
ATOM      6  C   UNL     1       4.655  -3.783  24.090  0.00  0.00    +0.000 C 
ATOM      7  C   UNL     1       4.940  -4.788  22.826  0.00  0.00    +0.000 C 
ATOM      8  C   UNL     1       5.929  -5.826  22.881  0.00  0.00    +0.000 C 
ATOM      9  C   UNL     1       7.485  -5.501  22.875  0.00  0.00    +0.000 C 
ATOM     10  O   UNL     1       5.106  -3.894  21.769  0.00  0.00    +0.000 OA
ENDBRANCH   3   4
BRANCH   1  11
ATOM     11  C   UNL     1       8.968  -1.628  24.818  0.00  0.00    +0.000 C 
BRANCH  11  16
ATOM     12  O   UNL     1      10.041   1.276  21.905  0.00  0.00    +0.000 OA
ATOM     13  C   UNL     1       9.939   1.971  23.118  0.00  0.00    +0.000 C 
ATOM     14  C   UNL     1      10.952   1.373  24.087  0.00  0.00    +0.000 C 
ATOM     15  C   UNL     1      10.255   0.316  24.943  0.00  0.00    +0.000 C 
ATOM     16  N   UNL     1       9.387  -0.469  24.120  0.00  0.00    +0.000 NA
ATOM     17  C   UNL     1       8.211   0.315  23.826  0.00  0.00    +0.000 C 
ATOM     18  C   UNL     1       8.540   1.775  23.664  0.00  0.00    +0.000 C 
ENDBRANCH  11  16
ENDBRANCH   1  11
TORSDOF 3
ENDMDL
MODEL 4
REMARK VINA RESULT:      -6.0      2.211      6.335
REMARK  Name = 
REMARK  3 active torsions:
REMARK  status: ('A' for Active; 'I' for Inactive)
REMARK    1  A    between atoms: N_5  and  C_8
REMARK    2  A    between atoms: C_8  and  C_9
REMARK    3  A    between atoms: N_11  and  C_12
REMARK                            x       y       z     vdW  Elec       q    Type
REMARK                         _______ _______ _______ _____ _____    ______ ____
ROOT
ATOM      1  C   UNL     1       7.452  -2.346  22.728  0.00  0.00    +0.000 C 
ATOM      2  O   UNL     1       6.552  -2.345  21.904  0.00  0.00    +0.000 OA
ATOM      3  N   UNL     1       7.158  -2.607  24.033  0.00  0.00    +0.000 NA
ENDROOT
BRANCH   3   4
ATOM      4  C   UNL     1       7.259  -4.011  24.133  0.00  0.00    +0.000 C 
ATOM      5  C   UNL     1       8.483  -4.626  24.234  0.00  0.00    +0.000 C 
ATOM      6  C   UNL     1       9.199  -5.362  25.524  0.00  0.00    +0.000 C 
ATOM      7  C   UNL     1       7.810  -5.311  26.393  0.00  0.00    +0.000 C 
ATOM      8  C   UNL     1       6.525  -5.535  25.795  0.00  0.00    +0.000 C 
ATOM      9  C   UNL     1       5.861  -4.475  24.815  0.00  0.00    +0.000 C 
ATOM     10  O   UNL     1       7.926  -4.094  27.064  0.00  0.00    +0.000 OA
ENDBRANCH   3   4
BRANCH   1  11
ATOM     11  C   UNL     1       8.821  -1.864  22.397  0.00  0.00    +0.000 C 
BRANCH  11  16
ATOM     12  O   UNL     1       8.962   1.911  24.348  0.00  0.00    +0.000 OA
ATOM     13  C   UNL     1      10.172   1.795  23.649  0.00  0.00    +0.000 C 
ATOM     14  C   UNL     1       9.846   1.654  22.167  0.00  0.00    +0.000 C 
ATOM     15  C   UNL     1       9.807   0.169  21.809  0.00  0.00    +0.000 C 
ATOM     16  N   UNL     1       9.131  -0.555  22.842  0.00  0.00    +0.000 NA
ATOM     17  C   UNL     1      10.025  -0.675  23.969  0.00  0.00    +0.000 C 
ATOM     18  C   UNL     1      10.885   0.549  24.132  0.00  0.00    +0.000 C 
ENDBRANCH  11  16
ENDBRANCH   1  11
TORSDOF 3
ENDMDL
MODEL 5
REMARK VINA RESULT:      -5.9      2.031      2.708
REMARK  Name = 
REMARK  3 active torsions:
REMARK  status: ('A' for Active; 'I' for Inactive)
REMARK    1  A    between atoms: N_5  and  C_8
REMARK    2  A    between atoms: C_8  and  C_9
REMARK    3  A    between atoms: N_11  and  C_12
REMARK                            x       y       z     vdW  Elec       q    Type
REMARK                         _______ _______ _______ _____ _____    ______ ____
ROOT
ATOM      1  C   UNL     1       7.465  -0.949  21.338  0.00  0.00    +0.000 C 
ATOM      2  O   UNL     1       7.226  -0.569  20.204  0.00  0.00    +0.000 OA
ATOM      3  N   UNL     1       8.698  -0.718  21.871  0.00  0.00    +0.000 NA
ENDROOT
BRANCH   3   4
ATOM      4  C   UNL     1       8.578   0.551  22.475  0.00  0.00    +0.000 C 
ATOM      5  C   UNL     1       8.085   0.682  23.751  0.00  0.00    +0.000 C 
ATOM      6  C   UNL     1       8.860   1.058  25.157  0.00  0.00    +0.000 C 
ATOM      7  C   UNL     1      10.229   1.471  24.355  0.00  0.00    +0.000 C 
ATOM      8  C   UNL     1      10.200   2.165  23.099  0.00  0.00    +0.000 C 
ATOM      9  C   UNL     1       9.721   1.455  21.760  0.00  0.00    +0.000 C 
ATOM     10  O   UNL     1      10.931   0.266  24.327  0.00  0.00    +0.000 OA
ENDBRANCH   3   4
BRANCH   1  11
ATOM     11  C   UNL     1       6.533  -1.842  22.080  0.00  0.00    +0.000 C 
BRANCH  11  16
ATOM     12  O   UNL     1       9.103  -4.490  24.190  0.00  0.00    +0.000 OA
ATOM     13  C   UNL     1       7.848  -5.115  24.162  0.00  0.00    +0.000 C 
ATOM     14  C   UNL     1       7.467  -5.337  22.704  0.00  0.00    +0.000 C 
ATOM     15  C   UNL     1       6.597  -4.170  22.237  0.00  0.00    +0.000 C 
ATOM     16  N   UNL     1       7.135  -2.942  22.738  0.00  0.00    +0.000 NA
ATOM     17  C   UNL     1       6.811  -2.846  24.141  0.00  0.00    +0.000 C 
ATOM     18  C   UNL     1       6.841  -4.191  24.815  0.00  0.00    +0.000 C 
ENDBRANCH  11  16
ENDBRANCH   1  11
TORSDOF 3
ENDMDL
MODEL 6
REMARK VINA RESULT:      -5.9      1.575      1.985
REMARK  Name = 
REMARK  3 active torsions:
REMARK  status: ('A' for Active; 'I' for Inactive)
REMARK    1  A    between atoms: N_5  and  C_8
REMARK    2  A    between atoms: C_8  and  C_9
REMARK    3  A    between atoms: N_11  and  C_12
REMARK                            x       y       z     vdW  Elec       q    Type
REMARK                         _______ _______ _______ _____ _____    ______ ____
ROOT
ATOM      1  C   UNL     1       8.523  -3.075  25.312  0.00  0.00    +0.000 C 
ATOM      2  O   UNL     1       8.754  -3.047  26.510  0.00  0.00    +0.000 OA
ATOM      3  N   UNL     1       8.184  -1.919  24.673  0.00  0.00    +0.000 NA
ENDROOT
BRANCH   3   4
ATOM      4  C   UNL     1       9.423  -1.373  24.276  0.00  0.00    +0.000 C 
ATOM      5  C   UNL     1       9.846  -1.457  22.971  0.00  0.00    +0.000 C 
ATOM      6  C   UNL     1       9.954  -0.289  21.812  0.00  0.00    +0.000 C 
ATOM      7  C   UNL     1       9.680   0.900  22.907  0.00  0.00    +0.000 C 
ATOM      8  C   UNL     1      10.227   0.859  24.234  0.00  0.00    +0.000 C 
ATOM      9  C   UNL     1       9.695  -0.166  25.327  0.00  0.00    +0.000 C 
ATOM     10  O   UNL     1       8.293   1.030  22.862  0.00  0.00    +0.000 OA
ENDBRANCH   3   4
BRANCH   1  11
ATOM     11  C   UNL     1       8.386  -4.356  24.568  0.00  0.00    +0.000 C 
BRANCH  11  16
ATOM     12  O   UNL     1       4.860  -4.137  22.204  0.00  0.00    +0.000 OA
ATOM     13  C   UNL     1       4.878  -5.430  22.746  0.00  0.00    +0.000 C 
ATOM     14  C   UNL     1       4.852  -5.302  24.265  0.00  0.00    +0.000 C 
ATOM     15  C   UNL     1       6.287  -5.353  24.789  0.00  0.00    +0.000 C 
ATOM     16  N   UNL     1       7.134  -4.570  23.942  0.00  0.00    +0.000 NA
ATOM     17  C   UNL     1       7.370  -5.313  22.728  0.00  0.00    +0.000 C 
ATOM     18  C   UNL     1       6.161  -6.110  22.316  0.00  0.00    +0.000 C 
ENDBRANCH  11  16
ENDBRANCH   1  11
TORSDOF 3
ENDMDL
MODEL 7
REMARK VINA RESULT:      -5.9      2.179      6.244
REMARK  Name = 
REMARK  3 active torsions:
REMARK  status: ('A' for Active; 'I' for Inactive)
REMARK    1  A    between atoms: N_5  and  C_8
REMARK    2  A    between atoms: C_8  and  C_9
REMARK    3  A    between atoms: N_11  and  C_12
REMARK                            x       y       z     vdW  Elec       q    Type
REMARK                         _______ _______ _______ _____ _____    ______ ____
ROOT
ATOM      1  C   UNL     1       7.168  -0.642  21.057  0.00  0.00    +0.000 C 
ATOM      2  O   UNL     1       6.392  -1.002  20.187  0.00  0.00    +0.000 OA
ATOM      3  N   UNL     1       7.039  -1.151  22.315  0.00  0.00    +0.000 NA
ENDROOT
BRANCH   3   4
ATOM      4  C   UNL     1       7.829  -2.320  22.294  0.00  0.00    +0.000 C 
ATOM      5  C   UNL     1       9.099  -2.324  22.820  0.00  0.00    +0.000 C 
ATOM      6  C   UNL     1       9.675  -3.015  24.202  0.00  0.00    +0.000 C 
ATOM      7  C   UNL     1       8.284  -3.853  24.427  0.00  0.00    +0.000 C 
ATOM      8  C   UNL     1       7.555  -4.434  23.335  0.00  0.00    +0.000 C 
ATOM      9  C   UNL     1       6.758  -3.539  22.290  0.00  0.00    +0.000 C 
ATOM     10  O   UNL     1       7.535  -2.978  25.214  0.00  0.00    +0.000 OA
ENDBRANCH   3   4
BRANCH   1  11
ATOM     11  C   UNL     1       8.112   0.490  20.849  0.00  0.00    +0.000 C 
BRANCH  11  16
ATOM     12  O   UNL     1       9.322   1.660  24.752  0.00  0.00    +0.000 OA
ATOM     13  C   UNL     1       9.461   2.802  23.950  0.00  0.00    +0.000 C 
ATOM     14  C   UNL     1       8.089   3.146  23.383  0.00  0.00    +0.000 C 
ATOM     15  C   UNL     1       7.954   2.516  21.997  0.00  0.00    +0.000 C 
ATOM     16  N   UNL     1       8.493   1.191  22.019  0.00  0.00    +0.000 NA
ATOM     17  C   UNL     1       9.933   1.288  22.023  0.00  0.00    +0.000 C 
ATOM     18  C   UNL     1      10.410   2.476  22.816  0.00  0.00    +0.000 C 
ENDBRANCH  11  16
ENDBRANCH   1  11
TORSDOF 3
ENDMDL
MODEL 8
REMARK VINA RESULT:      -5.8      2.394      5.802
REMARK  Name = 
REMARK  3 active torsions:
REMARK  status: ('A' for Active; 'I' for Inactive)
REMARK    1  A    between atoms: N_5  and  C_8
REMARK    2  A    between atoms: C_8  and  C_9
REMARK    3  A    between atoms: N_11  and  C_12
REMARK                            x       y       z     vdW  Elec       q    Type
REMARK                         _______ _______ _______ _____ _____    ______ ____
ROOT
ATOM      1  C   UNL     1       5.933  -3.347  22.769  0.00  0.00    +0.000 C 
ATOM      2  O   UNL     1       4.815  -3.782  22.546  0.00  0.00    +0.000 OA
ATOM      3  N   UNL     1       6.327  -3.157  24.060  0.00  0.00    +0.000 NA
ENDROOT
BRANCH   3   4
ATOM      4  C   UNL     1       6.890  -4.396  24.432  0.00  0.00    +0.000 C 
ATOM      5  C   UNL     1       8.203  -4.688  24.150  0.00  0.00    +0.000 C 
ATOM      6  C   UNL     1       9.508  -4.789  25.153  0.00  0.00    +0.000 C 
ATOM      7  C   UNL     1       8.557  -4.721  26.486  0.00  0.00    +0.000 C 
ATOM      8  C   UNL     1       7.284  -5.381  26.553  0.00  0.00    +0.000 C 
ATOM      9  C   UNL     1       6.029  -4.866  25.724  0.00  0.00    +0.000 C 
ATOM     10  O   UNL     1       8.506  -3.351  26.744  0.00  0.00    +0.000 OA
ENDBRANCH   3   4
BRANCH   1  11
ATOM     11  C   UNL     1       6.800  -2.816  21.682  0.00  0.00    +0.000 C 
BRANCH  11  16
ATOM     12  O   UNL     1       8.383   0.776  23.314  0.00  0.00    +0.000 OA
ATOM     13  C   UNL     1       8.598   0.856  21.931  0.00  0.00    +0.000 C 
ATOM     14  C   UNL     1       7.240   0.802  21.242  0.00  0.00    +0.000 C 
ATOM     15  C   UNL     1       6.947  -0.643  20.841  0.00  0.00    +0.000 C 
ATOM     16  N   UNL     1       7.333  -1.522  21.902  0.00  0.00    +0.000 NA
ATOM     17  C   UNL     1       8.771  -1.633  21.897  0.00  0.00    +0.000 C 
ATOM     18  C   UNL     1       9.430  -0.336  21.507  0.00  0.00    +0.000 C 
ENDBRANCH  11  16
ENDBRANCH   1  11
TORSDOF 3
ENDMDL
MODEL 9
REMARK VINA RESULT:      -5.7      2.519      2.992
REMARK  Name = 
REMARK  3 active torsions:
REMARK  status: ('A' for Active; 'I' for Inactive)
REMARK    1  A    between atoms: N_5  and  C_8
REMARK    2  A    between atoms: C_8  and  C_9
REMARK    3  A    between atoms: N_11  and  C_12
REMARK                            x       y       z     vdW  Elec       q    Type
REMARK                         _______ _______ _______ _____ _____    ______ ____
ROOT
ATOM      1  C   UNL     1       7.284  -1.735  22.861  0.00  0.00    +0.000 C 
ATOM      2  O   UNL     1       6.908  -2.059  21.747  0.00  0.00    +0.000 OA
ATOM      3  N   UNL     1       8.556  -1.273  23.026  0.00  0.00    +0.000 NA
ENDROOT
BRANCH   3   4
ATOM      4  C   UNL     1       8.446   0.117  22.815  0.00  0.00    +0.000 C 
ATOM      5  C   UNL     1       8.144   0.967  23.851  0.00  0.00    +0.000 C 
ATOM      6  C   UNL     1       9.098   2.051  24.648  0.00  0.00    +0.000 C 
ATOM      7  C   UNL     1      10.298   1.889  23.544  0.00  0.00    +0.000 C 
ATOM      8  C   UNL     1      10.033   1.746  22.140  0.00  0.00    +0.000 C 
ATOM      9  C   UNL     1       9.404   0.415  21.539  0.00  0.00    +0.000 C 
ATOM     10  O   UNL     1      11.066   0.861  24.090  0.00  0.00    +0.000 OA
ENDBRANCH   3   4
BRANCH   1  11
ATOM     11  C   UNL     1       6.477  -2.026  24.078  0.00  0.00    +0.000 C 
BRANCH  11  16
ATOM     12  O   UNL     1       8.839  -4.110  26.933  0.00  0.00    +0.000 OA
ATOM     13  C   UNL     1       7.664  -4.861  26.786  0.00  0.00    +0.000 C 
ATOM     14  C   UNL     1       7.567  -5.300  25.330  0.00  0.00    +0.000 C 
ATOM     15  C   UNL     1       6.702  -4.297  24.568  0.00  0.00    +0.000 C 
ATOM     16  N   UNL     1       7.041  -2.968  24.974  0.00  0.00    +0.000 NA
ATOM     17  C   UNL     1       6.466  -2.733  26.276  0.00  0.00    +0.000 C 
ATOM     18  C   UNL     1       6.485  -3.974  27.127  0.00  0.00    +0.000 C 
ENDBRANCH  11  16
ENDBRANCH   1  11
TORSDOF 3
ENDMDL
