MODEL 1
REMARK VINA RESULT:      -7.2      0.000      0.000
REMARK  Name = 
REMARK  6 active torsions:
REMARK  status: ('A' for Active; 'I' for Inactive)
REMARK    1  A    between atoms: C_2  and  N_3
REMARK    2  A    between atoms: N_3  and  C_4
REMARK    3  A    between atoms: C_9  and  C_10
REMARK    4  A    between atoms: C_10  and  N_11
REMARK    5  A    between atoms: N_17  and  C_20
REMARK    6  A    between atoms: C_20  and  N_21
REMARK                            x       y       z     vdW  Elec       q    Type
REMARK                         _______ _______ _______ _____ _____    ______ ____
ROOT
ATOM      1  N   UNL     1       8.722  -2.809  24.524  0.00  0.00    +0.000 NA
ATOM      2  C   UNL     1       9.839  -2.209  24.127  0.00  0.00    +0.000 C 
ATOM      3  O   UNL     1      10.535  -2.566  23.226  0.00  0.00    +0.000 OA
ATOM      4  N   UNL     1      10.035  -1.067  24.815  0.00  0.00    +0.000 N 
ATOM      5  C   UNL     1      10.479   0.118  24.073  0.00  0.00    +0.000 C 
ATOM      6  C   UNL     1       9.402   1.177  24.160  0.00  0.00    +0.000 C 
ATOM      7  N   UNL     1       8.145   0.692  24.456  0.00  0.00    +0.000 NA
ATOM      8  C   UNL     1       8.016  -0.011  25.651  0.00  0.00    +0.000 C 
ATOM      9  C   UNL     1       9.231  -0.834  26.014  0.00  0.00    +0.000 C 
ENDROOT
BRANCH   1  10
ATOM     10  C   UNL     1       7.431  -2.161  24.399  0.00  0.00    +0.000 C 
BRANCH  10  16
ATOM     11  C   UNL     1       6.766  -4.632  24.550  0.00  0.00    +0.000 C 
ATOM     12  C   UNL     1       6.060  -5.000  25.855  0.00  0.00    +0.000 C 
ATOM     13  C   UNL     1       4.584  -4.703  25.715  0.00  0.00    +0.000 C 
ATOM     14  C   UNL     1       4.093  -3.936  24.627  0.00  0.00    +0.000 C 
ATOM     15  C   UNL     1       4.995  -2.894  24.162  0.00  0.00    +0.000 C 
ATOM     16  C   UNL     1       6.381  -3.217  24.183  0.00  0.00    +0.000 C 
ATOM     17  F   UNL     1       2.932  -3.340  24.963  0.00  0.00    +0.000 F 
BRANCH  11  18
ATOM     18  N   UNL     1       6.293  -5.531  23.511  0.00  0.00    +0.000 NA
BRANCH  18  20
ATOM     19  C   UNL     1       6.462  -5.803  21.115  0.00  0.00    +0.000 C 
ATOM     20  C   UNL     1       7.187  -5.403  22.394  0.00  0.00    +0.000 C 
ENDBRANCH  18  20
ENDBRANCH  11  18
ENDBRANCH  10  16
ENDBRANCH   1  10
BRANCH   7  21
ATOM     21  C   UNL     1       7.447   0.121  23.387  0.00  0.00    +0.000 C 
BRANCH  21  22
ATOM     22  N   UNL     1       7.826   0.621  22.094  0.00  0.00    +0.000 NA
ATOM     23  C   UNL     1       8.345  -0.432  21.318  0.00  0.00    +0.000 C 
ATOM     24  C   UNL     1       8.310  -0.115  19.820  0.00  0.00    +0.000 C 
ATOM     25  N   UNL     1       6.901   0.006  19.448  0.00  0.00    +0.000 N 
ATOM     26  C   UNL     1       5.973   0.362  20.516  0.00  0.00    +0.000 C 
ATOM     27  C   UNL     1       6.713   1.257  21.499  0.00  0.00    +0.000 C 
ATOM     28  C   UNL     1       6.480  -0.252  18.216  0.00  0.00    +0.000 C 
ATOM     29  O   UNL     1       6.089  -1.346  17.867  0.00  0.00    +0.000 OA
ATOM     30  N   UNL     1       6.001   0.874  17.645  0.00  0.00    +0.000 NA
ATOM     31  C   UNL     1       5.027   1.678  18.358  0.00  0.00    +0.000 C 
ENDBRANCH  21  22
ENDBRANCH   7  21
TORSDOF 6
ENDMDL
MODEL 2
REMARK VINA RESULT:      -7.1      1.366      2.318
REMARK  Name = 
REMARK  6 active torsions:
REMARK  status: ('A' for Active; 'I' for Inactive)
REMARK    1  A    between atoms: C_2  and  N_3
REMARK    2  A    between atoms: N_3  and  C_4
REMARK    3  A    between atoms: C_9  and  C_10
REMARK    4  A    between atoms: C_10  and  N_11
REMARK    5  A    between atoms: N_17  and  C_20
REMARK    6  A    between atoms: C_20  and  N_21
REMARK                            x       y       z     vdW  Elec       q    Type
REMARK                         _______ _______ _______ _____ _____    ______ ____
ROOT
ATOM      1  N   UNL     1       8.970  -2.894  24.383  0.00  0.00    +0.000 NA
ATOM      2  C   UNL     1      10.010  -2.143  24.035  0.00  0.00    +0.000 C 
ATOM      3  O   UNL     1      10.752  -2.365  23.127  0.00  0.00    +0.000 OA
ATOM      4  N   UNL     1      10.060  -1.025  24.786  0.00  0.00    +0.000 N 
ATOM      5  C   UNL     1      10.365   0.243  24.115  0.00  0.00    +0.000 C 
ATOM      6  C   UNL     1       9.167   1.159  24.241  0.00  0.00    +0.000 C 
ATOM      7  N   UNL     1       7.975   0.511  24.492  0.00  0.00    +0.000 NA
ATOM      8  C   UNL     1       7.921  -0.266  25.645  0.00  0.00    +0.000 C 
ATOM      9  C   UNL     1       9.223  -0.956  25.983  0.00  0.00    +0.000 C 
ENDROOT
BRANCH   1  10
ATOM     10  C   UNL     1       7.611  -2.399  24.272  0.00  0.00    +0.000 C 
BRANCH  10  16
ATOM     11  C   UNL     1       5.508  -3.096  22.982  0.00  0.00    +0.000 C 
ATOM     12  C   UNL     1       5.763  -3.385  21.502  0.00  0.00    +0.000 C 
ATOM     13  C   UNL     1       6.221  -4.818  21.353  0.00  0.00    +0.000 C 
ATOM     14  C   UNL     1       6.605  -5.583  22.484  0.00  0.00    +0.000 C 
ATOM     15  C   UNL     1       7.245  -4.821  23.545  0.00  0.00    +0.000 C 
ATOM     16  C   UNL     1       6.733  -3.512  23.765  0.00  0.00    +0.000 C 
ATOM     17  F   UNL     1       7.461  -6.558  22.119  0.00  0.00    +0.000 F 
BRANCH  11  18
ATOM     18  N   UNL     1       4.381  -3.904  23.413  0.00  0.00    +0.000 NA
BRANCH  18  20
ATOM     19  C   UNL     1       4.024  -4.621  25.694  0.00  0.00    +0.000 C 
ATOM     20  C   UNL     1       4.002  -3.448  24.722  0.00  0.00    +0.000 C 
ENDBRANCH  18  20
ENDBRANCH  11  18
ENDBRANCH  10  16
ENDBRANCH   1  10
BRANCH   7  21
ATOM     21  C   UNL     1       7.361  -0.080  23.383  0.00  0.00    +0.000 C 
BRANCH  21  22
ATOM     22  N   UNL     1       7.756   0.474  22.117  0.00  0.00    +0.000 NA
ATOM     23  C   UNL     1       8.296  -0.543  21.308  0.00  0.00    +0.000 C 
ATOM     24  C   UNL     1       8.281  -0.166  19.824  0.00  0.00    +0.000 C 
ATOM     25  N   UNL     1       6.877  -0.040  19.435  0.00  0.00    +0.000 N 
ATOM     26  C   UNL     1       5.930   0.266  20.501  0.00  0.00    +0.000 C 
ATOM     27  C   UNL     1       6.648   1.126  21.531  0.00  0.00    +0.000 C 
ATOM     28  C   UNL     1       6.478  -0.251  18.187  0.00  0.00    +0.000 C 
ATOM     29  O   UNL     1       6.101  -1.333  17.788  0.00  0.00    +0.000 OA
ATOM     30  N   UNL     1       6.000   0.894  17.654  0.00  0.00    +0.000 NA
ATOM     31  C   UNL     1       5.008   1.661  18.383  0.00  0.00    +0.000 C 
ENDBRANCH  21  22
ENDBRANCH   7  21
TORSDOF 6
ENDMDL
MODEL 3
REMARK VINA RESULT:      -6.9      3.205      6.800
REMARK  Name = 
REMARK  6 active torsions:
REMARK  status: ('A' for Active; 'I' for Inactive)
REMARK    1  A    between atoms: C_2  and  N_3
REMARK    2  A    between atoms: N_3  and  C_4
REMARK    3  A    between atoms: C_9  and  C_10
REMARK    4  A    between atoms: C_10  and  N_11
REMARK    5  A    between atoms: N_17  and  C_20
REMARK    6  A    between atoms: C_20  and  N_21
REMARK                            x       y       z     vdW  Elec       q    Type
REMARK                         _______ _______ _______ _____ _____    ______ ____
ROOT
ATOM      1  N   UNL     1       8.753  -1.093  24.788  0.00  0.00    +0.000 NA
ATOM      2  C   UNL     1       8.702  -1.718  25.959  0.00  0.00    +0.000 C 
ATOM      3  O   UNL     1       8.392  -1.218  26.998  0.00  0.00    +0.000 OA
ATOM      4  N   UNL     1       8.947  -3.034  25.807  0.00  0.00    +0.000 N 
ATOM      5  C   UNL     1       8.108  -3.982  26.546  0.00  0.00    +0.000 C 
ATOM      6  C   UNL     1       7.328  -4.817  25.553  0.00  0.00    +0.000 C 
ATOM      7  N   UNL     1       7.194  -4.244  24.305  0.00  0.00    +0.000 NA
ATOM      8  C   UNL     1       8.373  -3.941  23.631  0.00  0.00    +0.000 C 
ATOM      9  C   UNL     1       9.499  -3.492  24.533  0.00  0.00    +0.000 C 
ENDROOT
BRANCH   1  10
ATOM     10  C   UNL     1       7.851  -1.441  23.707  0.00  0.00    +0.000 C 
BRANCH  10  16
ATOM     11  C   UNL     1       7.077  -0.120  21.650  0.00  0.00    +0.000 C 
ATOM     12  C   UNL     1       6.935   1.382  21.903  0.00  0.00    +0.000 C 
ATOM     13  C   UNL     1       8.281   2.042  21.710  0.00  0.00    +0.000 C 
ATOM     14  C   UNL     1       9.466   1.269  21.610  0.00  0.00    +0.000 C 
ATOM     15  C   UNL     1       9.467   0.051  22.407  0.00  0.00    +0.000 C 
ATOM     16  C   UNL     1       8.224  -0.636  22.491  0.00  0.00    +0.000 C 
ATOM     17  F   UNL     1      10.533   1.998  21.994  0.00  0.00    +0.000 F 
BRANCH  11  18
ATOM     18  N   UNL     1       7.401  -0.314  20.248  0.00  0.00    +0.000 NA
BRANCH  18  20
ATOM     19  C   UNL     1       6.020   0.556  18.464  0.00  0.00    +0.000 C 
ATOM     20  C   UNL     1       6.163  -0.508  19.545  0.00  0.00    +0.000 C 
ENDBRANCH  18  20
ENDBRANCH  11  18
ENDBRANCH  10  16
ENDBRANCH   1  10
BRANCH   7  21
ATOM     21  C   UNL     1       6.209  -3.257  24.194  0.00  0.00    +0.000 C 
BRANCH  21  22
ATOM     22  N   UNL     1       4.940  -3.733  23.715  0.00  0.00    +0.000 NA
ATOM     23  C   UNL     1       5.125  -4.946  23.024  0.00  0.00    +0.000 C 
ATOM     24  C   UNL     1       3.826  -5.750  22.918  0.00  0.00    +0.000 C 
ATOM     25  N   UNL     1       3.443  -6.115  24.281  0.00  0.00    +0.000 N 
ATOM     26  C   UNL     1       3.943  -5.258  25.350  0.00  0.00    +0.000 C 
ATOM     27  C   UNL     1       4.046  -3.841  24.803  0.00  0.00    +0.000 C 
ATOM     28  C   UNL     1       2.726  -7.202  24.537  0.00  0.00    +0.000 C 
ATOM     29  O   UNL     1       3.225  -8.277  24.792  0.00  0.00    +0.000 OA
ATOM     30  N   UNL     1       1.523  -6.854  25.042  0.00  0.00    +0.000 NA
ATOM     31  C   UNL     1       1.456  -5.926  26.155  0.00  0.00    +0.000 C 
ENDBRANCH  21  22
ENDBRANCH   7  21
TORSDOF 6
ENDMDL
MODEL 4
REMARK VINA RESULT:      -6.8      3.280      5.867
REMARK  Name = 
REMARK  6 active torsions:
REMARK  status: ('A' for Active; 'I' for Inactive)
REMARK    1  A    between atoms: C_2  and  N_3
REMARK    2  A    between atoms: N_3  and  C_4
REMARK    3  A    between atoms: C_9  and  C_10
REMARK    4  A    between atoms: C_10  and  N_11
REMARK    5  A    between atoms: N_17  and  C_20
REMARK    6  A    between atoms: C_20  and  N_21
REMARK                            x       y       z     vdW  Elec       q    Type
REMARK                         _______ _______ _______ _____ _____    ______ ____
ROOT
ATOM      1  N   UNL     1       8.326  -2.868  22.708  0.00  0.00    +0.000 NA
ATOM      2  C   UNL     1       8.853  -3.346  23.830  0.00  0.00    +0.000 C 
ATOM      3  O   UNL     1      10.016  -3.360  24.099  0.00  0.00    +0.000 OA
ATOM      4  N   UNL     1       7.883  -3.725  24.687  0.00  0.00    +0.000 N 
ATOM      5  C   UNL     1       8.038  -3.373  26.102  0.00  0.00    +0.000 C 
ATOM      6  C   UNL     1       6.922  -2.429  26.492  0.00  0.00    +0.000 C 
ATOM      7  N   UNL     1       6.341  -1.761  25.434  0.00  0.00    +0.000 NA
ATOM      8  C   UNL     1       5.775  -2.550  24.437  0.00  0.00    +0.000 C 
ATOM      9  C   UNL     1       6.517  -3.841  24.179  0.00  0.00    +0.000 C 
ENDROOT
BRANCH   1  10
ATOM     10  C   UNL     1       7.463  -1.703  22.716  0.00  0.00    +0.000 C 
BRANCH  10  16
ATOM     11  C   UNL     1       7.061   0.117  20.955  0.00  0.00    +0.000 C 
ATOM     12  C   UNL     1       6.942   1.524  21.542  0.00  0.00    +0.000 C 
ATOM     13  C   UNL     1       8.327   2.109  21.701  0.00  0.00    +0.000 C 
ATOM     14  C   UNL     1       9.482   1.295  21.580  0.00  0.00    +0.000 C 
ATOM     15  C   UNL     1       9.314  -0.072  22.049  0.00  0.00    +0.000 C 
ATOM     16  C   UNL     1       8.047  -0.665  21.794  0.00  0.00    +0.000 C 
ATOM     17  F   UNL     1      10.506   1.832  22.271  0.00  0.00    +0.000 F 
BRANCH  11  18
ATOM     18  N   UNL     1       7.584   0.233  19.605  0.00  0.00    +0.000 NA
BRANCH  18  20
ATOM     19  C   UNL     1       5.955   0.984  17.984  0.00  0.00    +0.000 C 
ATOM     20  C   UNL     1       6.556  -0.215  18.707  0.00  0.00    +0.000 C 
ENDBRANCH  18  20
ENDBRANCH  11  18
ENDBRANCH  10  16
ENDBRANCH   1  10
BRANCH   7  21
ATOM     21  C   UNL     1       7.053  -0.660  24.947  0.00  0.00    +0.000 C 
BRANCH  21  22
ATOM     22  N   UNL     1       6.898   0.540  25.723  0.00  0.00    +0.000 NA
ATOM     23  C   UNL     1       7.851   1.491  25.311  0.00  0.00    +0.000 C 
ATOM     24  C   UNL     1       7.454   2.914  25.714  0.00  0.00    +0.000 C 
ATOM     25  N   UNL     1       6.226   3.231  24.988  0.00  0.00    +0.000 N 
ATOM     26  C   UNL     1       5.405   2.100  24.570  0.00  0.00    +0.000 C 
ATOM     27  C   UNL     1       5.566   0.997  25.607  0.00  0.00    +0.000 C 
ATOM     28  C   UNL     1       5.904   4.480  24.675  0.00  0.00    +0.000 C 
ATOM     29  O   UNL     1       6.213   4.997  23.622  0.00  0.00    +0.000 OA
ATOM     30  N   UNL     1       4.780   4.846  25.327  0.00  0.00    +0.000 NA
ATOM     31  C   UNL     1       3.611   3.989  25.273  0.00  0.00    +0.000 C 
ENDBRANCH  21  22
ENDBRANCH   7  21
TORSDOF 6
ENDMDL
MODEL 5
REMARK VINA RESULT:      -6.8      3.093      6.550
REMARK  Name = 
REMARK  6 active torsions:
REMARK  status: ('A' for Active; 'I' for Inactive)
REMARK    1  A    between atoms: C_2  and  N_3
REMARK    2  A    between atoms: N_3  and  C_4
REMARK    3  A    between atoms: C_9  and  C_10
REMARK    4  A    between atoms: C_10  and  N_11
REMARK    5  A    between atoms: N_17  and  C_20
REMARK    6  A    between atoms: C_20  and  N_21
REMARK                            x       y       z     vdW  Elec       q    Type
REMARK                         _______ _______ _______ _____ _____    ______ ____
ROOT
ATOM      1  N   UNL     1       8.282  -3.326  22.584  0.00  0.00    +0.000 NA
ATOM      2  C   UNL     1       8.143  -4.288  23.491  0.00  0.00    +0.000 C 
ATOM      3  O   UNL     1       8.983  -4.641  24.261  0.00  0.00    +0.000 OA
ATOM      4  N   UNL     1       6.877  -4.751  23.500  0.00  0.00    +0.000 N 
ATOM      5  C   UNL     1       6.243  -4.996  24.799  0.00  0.00    +0.000 C 
ATOM      6  C   UNL     1       5.064  -4.059  24.948  0.00  0.00    +0.000 C 
ATOM      7  N   UNL     1       5.118  -2.939  24.144  0.00  0.00    +0.000 NA
ATOM      8  C   UNL     1       5.195  -3.161  22.773  0.00  0.00    +0.000 C 
ATOM      9  C   UNL     1       5.997  -4.384  22.392  0.00  0.00    +0.000 C 
ENDROOT
BRANCH   1  10
ATOM     10  C   UNL     1       7.516  -2.098  22.663  0.00  0.00    +0.000 C 
BRANCH  10  16
ATOM     11  C   UNL     1       7.332  -0.237  20.909  0.00  0.00    +0.000 C 
ATOM     12  C   UNL     1       7.149   1.157  21.509  0.00  0.00    +0.000 C 
ATOM     13  C   UNL     1       8.507   1.730  21.844  0.00  0.00    +0.000 C 
ATOM     14  C   UNL     1       9.666   0.911  21.842  0.00  0.00    +0.000 C 
ATOM     15  C   UNL     1       9.439  -0.465  22.258  0.00  0.00    +0.000 C 
ATOM     16  C   UNL     1       8.208  -1.044  21.840  0.00  0.00    +0.000 C 
ATOM     17  F   UNL     1      10.603   1.427  22.662  0.00  0.00    +0.000 F 
BRANCH  11  18
ATOM     18  N   UNL     1       8.012  -0.095  19.633  0.00  0.00    +0.000 NA
BRANCH  18  20
ATOM     19  C   UNL     1       5.985  -0.620  18.423  0.00  0.00    +0.000 C 
ATOM     20  C   UNL     1       7.058   0.428  18.694  0.00  0.00    +0.000 C 
ENDBRANCH  18  20
ENDBRANCH  11  18
ENDBRANCH  10  16
ENDBRANCH   1  10
BRANCH   7  21
ATOM     21  C   UNL     1       5.949  -1.908  24.597  0.00  0.00    +0.000 C 
BRANCH  21  22
ATOM     22  N   UNL     1       5.250  -0.775  25.138  0.00  0.00    +0.000 NA
ATOM     23  C   UNL     1       5.153  -0.907  26.536  0.00  0.00    +0.000 C 
ATOM     24  C   UNL     1       4.882   0.435  27.223  0.00  0.00    +0.000 C 
ATOM     25  N   UNL     1       6.050   1.279  26.975  0.00  0.00    +0.000 N 
ATOM     26  C   UNL     1       6.845   0.962  25.795  0.00  0.00    +0.000 C 
ATOM     27  C   UNL     1       5.905   0.409  24.732  0.00  0.00    +0.000 C 
ATOM     28  C   UNL     1       6.400   2.247  27.813  0.00  0.00    +0.000 C 
ATOM     29  O   UNL     1       7.184   2.081  28.724  0.00  0.00    +0.000 OA
ATOM     30  N   UNL     1       6.279   3.448  27.209  0.00  0.00    +0.000 NA
ATOM     31  C   UNL     1       6.884   3.658  25.906  0.00  0.00    +0.000 C 
ENDBRANCH  21  22
ENDBRANCH   7  21
TORSDOF 6
ENDMDL
MODEL 6
REMARK VINA RESULT:      -6.7      3.190      6.538
REMARK  Name = 
REMARK  6 active torsions:
REMARK  status: ('A' for Active; 'I' for Inactive)
REMARK    1  A    between atoms: C_2  and  N_3
REMARK    2  A    between atoms: N_3  and  C_4
REMARK    3  A    between atoms: C_9  and  C_10
REMARK    4  A    between atoms: C_10  and  N_11
REMARK    5  A    between atoms: N_17  and  C_20
REMARK    6  A    between atoms: C_20  and  N_21
REMARK                            x       y       z     vdW  Elec       q    Type
REMARK                         _______ _______ _______ _____ _____    ______ ____
ROOT
ATOM      1  N   UNL     1       5.654   2.186  23.263  0.00  0.00    +0.000 NA
ATOM      2  C   UNL     1       4.969   2.576  24.333  0.00  0.00    +0.000 C 
ATOM      3  O   UNL     1       3.799   2.417  24.503  0.00  0.00    +0.000 OA
ATOM      4  N   UNL     1       5.796   3.091  25.264  0.00  0.00    +0.000 N 
ATOM      5  C   UNL     1       5.577   2.715  26.665  0.00  0.00    +0.000 C 
ATOM      6  C   UNL     1       6.784   1.945  27.155  0.00  0.00    +0.000 C 
ATOM      7  N   UNL     1       7.544   1.375  26.155  0.00  0.00    +0.000 NA
ATOM      8  C   UNL     1       8.069   2.243  25.202  0.00  0.00    +0.000 C 
ATOM      9  C   UNL     1       7.168   3.410  24.872  0.00  0.00    +0.000 C 
ENDROOT
BRANCH   1  10
ATOM     10  C   UNL     1       6.675   1.161  23.353  0.00  0.00    +0.000 C 
BRANCH  10  16
ATOM     11  C   UNL     1       7.613  -0.615  21.759  0.00  0.00    +0.000 C 
ATOM     12  C   UNL     1       6.535  -1.395  21.006  0.00  0.00    +0.000 C 
ATOM     13  C   UNL     1       6.141  -0.621  19.769  0.00  0.00    +0.000 C 
ATOM     14  C   UNL     1       6.545   0.728  19.592  0.00  0.00    +0.000 C 
ATOM     15  C   UNL     1       6.637   1.501  20.821  0.00  0.00    +0.000 C 
ATOM     16  C   UNL     1       7.121   0.801  21.961  0.00  0.00    +0.000 C 
ATOM     17  F   UNL     1       5.684   1.370  18.779  0.00  0.00    +0.000 F 
BRANCH  11  18
ATOM     18  N   UNL     1       8.807  -0.582  20.933  0.00  0.00    +0.000 NA
BRANCH  18  20
ATOM     19  C   UNL     1      10.306  -1.502  22.593  0.00  0.00    +0.000 C 
ATOM     20  C   UNL     1       9.914  -0.266  21.792  0.00  0.00    +0.000 C 
ENDBRANCH  18  20
ENDBRANCH  11  18
ENDBRANCH  10  16
ENDBRANCH   1  10
BRANCH   7  21
ATOM     21  C   UNL     1       7.046   0.182  25.620  0.00  0.00    +0.000 C 
BRANCH  21  22
ATOM     22  N   UNL     1       7.179  -0.959  26.483  0.00  0.00    +0.000 NA
ATOM     23  C   UNL     1       5.972  -1.684  26.492  0.00  0.00    +0.000 C 
ATOM     24  C   UNL     1       6.171  -3.127  26.965  0.00  0.00    +0.000 C 
ATOM     25  N   UNL     1       7.028  -3.780  25.976  0.00  0.00    +0.000 N 
ATOM     26  C   UNL     1       7.897  -2.911  25.191  0.00  0.00    +0.000 C 
ATOM     27  C   UNL     1       8.289  -1.728  26.065  0.00  0.00    +0.000 C 
ATOM     28  C   UNL     1       6.976  -5.089  25.765  0.00  0.00    +0.000 C 
ATOM     29  O   UNL     1       6.262  -5.594  24.925  0.00  0.00    +0.000 OA
ATOM     30  N   UNL     1       8.145  -5.663  26.123  0.00  0.00    +0.000 NA
ATOM     31  C   UNL     1       9.392  -5.115  25.624  0.00  0.00    +0.000 C 
ENDBRANCH  21  22
ENDBRANCH   7  21
TORSDOF 6
ENDMDL
MODEL 7
REMARK VINA RESULT:      -6.7      3.137      4.080
REMARK  Name = 
REMARK  6 active torsions:
REMARK  status: ('A' for Active; 'I' for Inactive)
REMARK    1  A    between atoms: C_2  and  N_3
REMARK    2  A    between atoms: N_3  and  C_4
REMARK    3  A    between atoms: C_9  and  C_10
REMARK    4  A    between atoms: C_10  and  N_11
REMARK    5  A    between atoms: N_17  and  C_20
REMARK    6  A    between atoms: C_20  and  N_21
REMARK                            x       y       z     vdW  Elec       q    Type
REMARK                         _______ _______ _______ _____ _____    ______ ____
ROOT
ATOM      1  N   UNL     1       8.426  -1.455  22.093  0.00  0.00    +0.000 NA
ATOM      2  C   UNL     1       8.929  -0.465  21.363  0.00  0.00    +0.000 C 
ATOM      3  O   UNL     1       8.522  -0.113  20.298  0.00  0.00    +0.000 OA
ATOM      4  N   UNL     1       9.909   0.171  22.036  0.00  0.00    +0.000 N 
ATOM      5  C   UNL     1       9.941   1.636  21.988  0.00  0.00    +0.000 C 
ATOM      6  C   UNL     1       9.714   2.172  23.384  0.00  0.00    +0.000 C 
ATOM      7  N   UNL     1       9.089   1.291  24.242  0.00  0.00    +0.000 NA
ATOM      8  C   UNL     1       9.727   0.072  24.454  0.00  0.00    +0.000 C 
ATOM      9  C   UNL     1      10.448  -0.464  23.238  0.00  0.00    +0.000 C 
ENDROOT
BRANCH   1  10
ATOM     10  C   UNL     1       7.794  -1.203  23.373  0.00  0.00    +0.000 C 
BRANCH  10  16
ATOM     11  C   UNL     1       8.384  -3.681  23.665  0.00  0.00    +0.000 C 
ATOM     12  C   UNL     1       9.305  -3.957  24.854  0.00  0.00    +0.000 C 
ATOM     13  C   UNL     1       8.465  -4.102  26.102  0.00  0.00    +0.000 C 
ATOM     14  C   UNL     1       7.097  -3.728  26.110  0.00  0.00    +0.000 C 
ATOM     15  C   UNL     1       6.772  -2.595  25.256  0.00  0.00    +0.000 C 
ATOM     16  C   UNL     1       7.479  -2.524  24.024  0.00  0.00    +0.000 C 
ATOM     17  F   UNL     1       6.707  -3.411  27.360  0.00  0.00    +0.000 F 
BRANCH  11  18
ATOM     18  N   UNL     1       7.568  -4.861  23.441  0.00  0.00    +0.000 NA
BRANCH  18  20
ATOM     19  C   UNL     1       6.766  -5.948  21.436  0.00  0.00    +0.000 C 
ATOM     20  C   UNL     1       6.828  -4.648  22.228  0.00  0.00    +0.000 C 
ENDBRANCH  18  20
ENDBRANCH  11  18
ENDBRANCH  10  16
ENDBRANCH   1  10
BRANCH   7  21
ATOM     21  C   UNL     1       7.702   1.185  24.097  0.00  0.00    +0.000 C 
BRANCH  21  22
ATOM     22  N   UNL     1       7.041   2.418  23.767  0.00  0.00    +0.000 NA
ATOM     23  C   UNL     1       6.275   2.241  22.599  0.00  0.00    +0.000 C 
ATOM     24  C   UNL     1       5.186   3.309  22.460  0.00  0.00    +0.000 C 
ATOM     25  N   UNL     1       4.266   3.122  23.581  0.00  0.00    +0.000 N 
ATOM     26  C   UNL     1       4.808   2.469  24.767  0.00  0.00    +0.000 C 
ATOM     27  C   UNL     1       6.279   2.845  24.877  0.00  0.00    +0.000 C 
ATOM     28  C   UNL     1       2.989   3.475  23.502  0.00  0.00    +0.000 C 
ATOM     29  O   UNL     1       2.114   2.714  23.146  0.00  0.00    +0.000 OA
ATOM     30  N   UNL     1       2.731   4.477  24.369  0.00  0.00    +0.000 NA
ATOM     31  C   UNL     1       3.138   4.344  25.755  0.00  0.00    +0.000 C 
ENDBRANCH  21  22
ENDBRANCH   7  21
TORSDOF 6
ENDMDL
MODEL 8
REMARK VINA RESULT:      -6.7      3.175      6.315
REMARK  Name = 
REMARK  6 active torsions:
REMARK  status: ('A' for Active; 'I' for Inactive)
REMARK    1  A    between atoms: C_2  and  N_3
REMARK    2  A    between atoms: N_3  and  C_4
REMARK    3  A    between atoms: C_9  and  C_10
REMARK    4  A    between atoms: C_10  and  N_11
REMARK    5  A    between atoms: N_17  and  C_20
REMARK    6  A    between atoms: C_20  and  N_21
REMARK                            x       y       z     vdW  Elec       q    Type
REMARK                         _______ _______ _______ _____ _____    ______ ____
ROOT
ATOM      1  N   UNL     1       8.131  -3.445  23.358  0.00  0.00    +0.000 NA
ATOM      2  C   UNL     1       8.735  -4.201  24.268  0.00  0.00    +0.000 C 
ATOM      3  O   UNL     1       9.907  -4.213  24.492  0.00  0.00    +0.000 OA
ATOM      4  N   UNL     1       7.829  -4.888  24.991  0.00  0.00    +0.000 N 
ATOM      5  C   UNL     1       8.025  -4.971  26.442  0.00  0.00    +0.000 C 
ATOM      6  C   UNL     1       6.872  -4.270  27.128  0.00  0.00    +0.000 C 
ATOM      7  N   UNL     1       6.206  -3.357  26.338  0.00  0.00    +0.000 NA
ATOM      8  C   UNL     1       5.644  -3.845  25.161  0.00  0.00    +0.000 C 
ATOM      9  C   UNL     1       6.451  -4.942  24.505  0.00  0.00    +0.000 C 
ENDROOT
BRANCH   1  10
ATOM     10  C   UNL     1       7.201  -2.400  23.741  0.00  0.00    +0.000 C 
BRANCH  10  16
ATOM     11  C   UNL     1       8.692  -0.315  23.764  0.00  0.00    +0.000 C 
ATOM     12  C   UNL     1       9.995  -0.482  22.981  0.00  0.00    +0.000 C 
ATOM     13  C   UNL     1       9.736  -0.172  21.524  0.00  0.00    +0.000 C 
ATOM     14  C   UNL     1       8.413  -0.051  21.027  0.00  0.00    +0.000 C 
ATOM     15  C   UNL     1       7.440  -0.919  21.673  0.00  0.00    +0.000 C 
ATOM     16  C   UNL     1       7.615  -1.117  23.070  0.00  0.00    +0.000 C 
ATOM     17  F   UNL     1       8.383  -0.327  19.709  0.00  0.00    +0.000 F 
BRANCH  11  18
ATOM     18  N   UNL     1       8.324   1.090  23.732  0.00  0.00    +0.000 NA
BRANCH  18  20
ATOM     19  C   UNL     1       9.535   3.163  24.013  0.00  0.00    +0.000 C 
ATOM     20  C   UNL     1       9.229   1.791  24.600  0.00  0.00    +0.000 C 
ENDBRANCH  18  20
ENDBRANCH  11  18
ENDBRANCH  10  16
ENDBRANCH   1  10
BRANCH   7  21
ATOM     21  C   UNL     1       6.828  -2.113  26.192  0.00  0.00    +0.000 C 
BRANCH  21  22
ATOM     22  N   UNL     1       6.296  -1.079  27.038  0.00  0.00    +0.000 NA
ATOM     23  C   UNL     1       7.294  -0.116  27.285  0.00  0.00    +0.000 C 
ATOM     24  C   UNL     1       6.702   1.220  27.741  0.00  0.00    +0.000 C 
ATOM     25  N   UNL     1       5.913   1.734  26.623  0.00  0.00    +0.000 N 
ATOM     26  C   UNL     1       5.409   0.750  25.673  0.00  0.00    +0.000 C 
ATOM     27  C   UNL     1       5.138  -0.540  26.436  0.00  0.00    +0.000 C 
ATOM     28  C   UNL     1       5.713   3.035  26.451  0.00  0.00    +0.000 C 
ATOM     29  O   UNL     1       6.436   3.730  25.768  0.00  0.00    +0.000 OA
ATOM     30  N   UNL     1       4.402   3.326  26.595  0.00  0.00    +0.000 NA
ATOM     31  C   UNL     1       3.415   2.557  25.862  0.00  0.00    +0.000 C 
ENDBRANCH  21  22
ENDBRANCH   7  21
TORSDOF 6
ENDMDL
MODEL 9
REMARK VINA RESULT:      -6.7      3.066      6.313
REMARK  Name = 
REMARK  6 active torsions:
REMARK  status: ('A' for Active; 'I' for Inactive)
REMARK    1  A    between atoms: C_2  and  N_3
REMARK    2  A    between atoms: N_3  and  C_4
REMARK    3  A    between atoms: C_9  and  C_10
REMARK    4  A    between atoms: C_10  and  N_11
REMARK    5  A    between atoms: N_17  and  C_20
REMARK    6  A    between atoms: C_20  and  N_21
REMARK                            x       y       z     vdW  Elec       q    Type
REMARK                         _______ _______ _______ _____ _____    ______ ____
ROOT
ATOM      1  N   UNL     1       5.903   1.944  23.923  0.00  0.00    +0.000 NA
ATOM      2  C   UNL     1       5.079   2.021  24.962  0.00  0.00    +0.000 C 
ATOM      3  O   UNL     1       3.890   2.109  24.899  0.00  0.00    +0.000 OA
ATOM      4  N   UNL     1       5.757   1.882  26.118  0.00  0.00    +0.000 N 
ATOM      5  C   UNL     1       5.173   1.035  27.163  0.00  0.00    +0.000 C 
ATOM      6  C   UNL     1       6.089  -0.147  27.398  0.00  0.00    +0.000 C 
ATOM      7  N   UNL     1       6.940  -0.429  26.349  0.00  0.00    +0.000 NA
ATOM      8  C   UNL     1       7.805   0.589  25.959  0.00  0.00    +0.000 C 
ATOM      9  C   UNL     1       7.216   1.976  26.080  0.00  0.00    +0.000 C 
ENDROOT
BRANCH   1  10
ATOM     10  C   UNL     1       6.685   0.750  23.667  0.00  0.00    +0.000 C 
BRANCH  10  16
ATOM     11  C   UNL     1       8.894   0.376  22.421  0.00  0.00    +0.000 C 
ATOM     12  C   UNL     1       8.890  -0.861  21.521  0.00  0.00    +0.000 C 
ATOM     13  C   UNL     1       8.299  -0.490  20.180  0.00  0.00    +0.000 C 
ATOM     14  C   UNL     1       7.620   0.742  19.996  0.00  0.00    +0.000 C 
ATOM     15  C   UNL     1       6.888   1.212  21.162  0.00  0.00    +0.000 C 
ATOM     16  C   UNL     1       7.503   0.968  22.422  0.00  0.00    +0.000 C 
ATOM     17  F   UNL     1       6.737   0.641  18.983  0.00  0.00    +0.000 F 
BRANCH  11  18
ATOM     18  N   UNL     1       9.815   1.345  21.853  0.00  0.00    +0.000 NA
BRANCH  18  20
ATOM     19  C   UNL     1      10.791   1.558  24.054  0.00  0.00    +0.000 C 
ATOM     20  C   UNL     1      10.137   2.288  22.888  0.00  0.00    +0.000 C 
ENDBRANCH  18  20
ENDBRANCH  11  18
ENDBRANCH  10  16
ENDBRANCH   1  10
BRANCH   7  21
ATOM     21  C   UNL     1       6.372  -1.129  25.280  0.00  0.00    +0.000 C 
BRANCH  21  22
ATOM     22  N   UNL     1       6.611  -2.547  25.302  0.00  0.00    +0.000 NA
ATOM     23  C   UNL     1       5.412  -3.220  25.607  0.00  0.00    +0.000 C 
ATOM     24  C   UNL     1       5.452  -4.688  25.177  0.00  0.00    +0.000 C 
ATOM     25  N   UNL     1       5.561  -4.697  23.719  0.00  0.00    +0.000 N 
ATOM     26  C   UNL     1       6.144  -3.512  23.101  0.00  0.00    +0.000 C 
ATOM     27  C   UNL     1       7.173  -2.940  24.066  0.00  0.00    +0.000 C 
ATOM     28  C   UNL     1       5.100  -5.708  22.991  0.00  0.00    +0.000 C 
ATOM     29  O   UNL     1       3.978  -5.732  22.532  0.00  0.00    +0.000 OA
ATOM     30  N   UNL     1       6.121  -6.335  22.370  0.00  0.00    +0.000 NA
ATOM     31  C   UNL     1       7.082  -5.557  21.611  0.00  0.00    +0.000 C 
ENDBRANCH  21  22
ENDBRANCH   7  21
TORSDOF 6
ENDMDL
