MODEL 1
REMARK VINA RESULT:      -6.3      0.000      0.000
REMARK  Name = 
REMARK  3 active torsions:
REMARK  status: ('A' for Active; 'I' for Inactive)
REMARK    1  A    between atoms: C_5  and  N_8
REMARK    2  A    between atoms: N_8  and  C_9
REMARK    3  A    between atoms: C_13  and  C_16
REMARK                            x       y       z     vdW  Elec       q    Type
REMARK                         _______ _______ _______ _____ _____    ______ ____
ROOT
ATOM      1  C   UNL     1       7.746  -2.283  22.992  0.00  0.00    +0.000 C 
ATOM      2  C   UNL     1       7.185  -3.367  22.264  0.00  0.00    +0.000 C 
ATOM      3  C   UNL     1       5.745  -3.423  21.660  0.00  0.00    +0.000 C 
ATOM      4  C   UNL     1       7.293  -4.620  23.243  0.00  0.00    +0.000 C 
ATOM      5  C   UNL     1       7.844  -4.199  24.456  0.00  0.00    +0.000 C 
ATOM      6  C   UNL     1       8.397  -2.682  24.395  0.00  0.00    +0.000 C 
ATOM      7  C   UNL     1       9.884  -2.855  24.104  0.00  0.00    +0.000 C 
ATOM      8  O   UNL     1       7.507  -5.753  22.419  0.00  0.00    +0.000 OA
ENDROOT
BRANCH   5   9
ATOM      9  C   UNL     1       7.220  -4.423  25.871  0.00  0.00    +0.000 C 
ATOM     10  C   UNL     1       6.051  -5.380  25.666  0.00  0.00    +0.000 C 
ATOM     11  C   UNL     1       6.782  -3.151  26.494  0.00  0.00    +0.000 C 
ATOM     12  C   UNL     1       8.293  -5.112  26.708  0.00  0.00    +0.000 C 
ENDBRANCH   5   9
BRANCH   1  13
ATOM     13  N   UNL     1       8.601  -1.279  22.464  0.00  0.00    +0.000 NA
BRANCH  13  18
ATOM     14  O   UNL     1      11.019   1.561  24.149  0.00  0.00    +0.000 OA
ATOM     15  C   UNL     1       9.985   0.928  23.450  0.00  0.00    +0.000 C 
ATOM     16  C   UNL     1       9.895   1.546  22.064  0.00  0.00    +0.000 C 
ATOM     17  C   UNL     1       8.831   0.828  21.253  0.00  0.00    +0.000 C 
ATOM     18  C   UNL     1       7.956  -0.026  22.127  0.00  0.00    +0.000 C 
ATOM     19  C   UNL     1       7.506   0.702  23.365  0.00  0.00    +0.000 C 
ATOM     20  C   UNL     1       8.685   1.162  24.199  0.00  0.00    +0.000 C 
ENDBRANCH  13  18
ENDBRANCH   1  13
TORSDOF 3
ENDMDL
MODEL 2
REMARK VINA RESULT:      -6.2      2.424      3.861
REMARK  Name = 
REMARK  3 active torsions:
REMARK  status: ('A' for Active; 'I' for Inactive)
REMARK    1  A    between atoms: C_5  and  N_8
REMARK    2  A    between atoms: N_8  and  C_9
REMARK    3  A    between atoms: C_13  and  C_16
REMARK                            x       y       z     vdW  Elec       q    Type
REMARK                         _______ _______ _______ _____ _____    ______ ____
ROOT
ATOM      1  C   UNL     1       7.888  -1.188  23.395  0.00  0.00    +0.000 C 
ATOM      2  C   UNL     1       8.712  -0.801  24.486  0.00  0.00    +0.000 C 
ATOM      3  C   UNL     1      10.236  -0.465  24.416  0.00  0.00    +0.000 C 
ATOM      4  C   UNL     1       8.579  -1.987  25.543  0.00  0.00    +0.000 C 
ATOM      5  C   UNL     1       7.757  -2.981  25.005  0.00  0.00    +0.000 C 
ATOM      6  C   UNL     1       7.036  -2.517  23.635  0.00  0.00    +0.000 C 
ATOM      7  C   UNL     1       5.668  -2.030  24.097  0.00  0.00    +0.000 C 
ATOM      8  O   UNL     1       8.673  -1.392  26.826  0.00  0.00    +0.000 OA
ENDROOT
BRANCH   5   9
ATOM      9  C   UNL     1       8.121  -4.493  24.865  0.00  0.00    +0.000 C 
ATOM     10  C   UNL     1       9.602  -4.602  25.212  0.00  0.00    +0.000 C 
ATOM     11  C   UNL     1       7.839  -5.010  23.504  0.00  0.00    +0.000 C 
ATOM     12  C   UNL     1       7.302  -5.231  25.921  0.00  0.00    +0.000 C 
ENDBRANCH   5   9
BRANCH   1  13
ATOM     13  N   UNL     1       7.030  -0.331  22.656  0.00  0.00    +0.000 NA
BRANCH  13  18
ATOM     14  O   UNL     1       5.991  -0.396  18.697  0.00  0.00    +0.000 OA
ATOM     15  C   UNL     1       6.531  -0.021  19.933  0.00  0.00    +0.000 C 
ATOM     16  C   UNL     1       6.126   1.416  20.218  0.00  0.00    +0.000 C 
ATOM     17  C   UNL     1       6.633   1.828  21.588  0.00  0.00    +0.000 C 
ATOM     18  C   UNL     1       7.654   0.857  22.111  0.00  0.00    +0.000 C 
ATOM     19  C   UNL     1       8.684   0.501  21.072  0.00  0.00    +0.000 C 
ATOM     20  C   UNL     1       8.044  -0.117  19.844  0.00  0.00    +0.000 C 
ENDBRANCH  13  18
ENDBRANCH   1  13
TORSDOF 3
ENDMDL
MODEL 3
REMARK VINA RESULT:      -6.2      1.869      3.414
REMARK  Name = 
REMARK  3 active torsions:
REMARK  status: ('A' for Active; 'I' for Inactive)
REMARK    1  A    between atoms: C_5  and  N_8
REMARK    2  A    between atoms: N_8  and  C_9
REMARK    3  A    between atoms: C_13  and  C_16
REMARK                            x       y       z     vdW  Elec       q    Type
REMARK                         _______ _______ _______ _____ _____    ______ ____
ROOT
ATOM      1  C   UNL     1       8.450  -2.895  24.137  0.00  0.00    +0.000 C 
ATOM      2  C   UNL     1       8.526  -3.939  25.098  0.00  0.00    +0.000 C 
ATOM      3  C   UNL     1       9.709  -4.944  25.274  0.00  0.00    +0.000 C 
ATOM      4  C   UNL     1       7.233  -4.833  24.837  0.00  0.00    +0.000 C 
ATOM      5  C   UNL     1       6.532  -4.306  23.749  0.00  0.00    +0.000 C 
ATOM      6  C   UNL     1       7.107  -2.873  23.274  0.00  0.00    +0.000 C 
ATOM      7  C   UNL     1       6.201  -1.872  23.981  0.00  0.00    +0.000 C 
ATOM      8  O   UNL     1       6.832  -5.335  26.100  0.00  0.00    +0.000 OA
ENDROOT
BRANCH   5   9
ATOM      9  C   UNL     1       6.099  -5.095  22.471  0.00  0.00    +0.000 C 
ATOM     10  C   UNL     1       4.733  -5.692  22.790  0.00  0.00    +0.000 C 
ATOM     11  C   UNL     1       7.082  -6.143  22.105  0.00  0.00    +0.000 C 
ATOM     12  C   UNL     1       5.948  -4.061  21.360  0.00  0.00    +0.000 C 
ENDBRANCH   5   9
BRANCH   1  13
ATOM     13  N   UNL     1       8.760  -1.527  24.368  0.00  0.00    +0.000 NA
BRANCH  13  18
ATOM     14  O   UNL     1       8.245   1.599  21.778  0.00  0.00    +0.000 OA
ATOM     15  C   UNL     1       8.820   0.622  22.597  0.00  0.00    +0.000 C 
ATOM     16  C   UNL     1       9.816   1.299  23.525  0.00  0.00    +0.000 C 
ATOM     17  C   UNL     1      10.403   0.275  24.479  0.00  0.00    +0.000 C 
ATOM     18  C   UNL     1      10.111  -1.128  24.028  0.00  0.00    +0.000 C 
ATOM     19  C   UNL     1      10.379  -1.320  22.559  0.00  0.00    +0.000 C 
ATOM     20  C   UNL     1       9.544  -0.379  21.713  0.00  0.00    +0.000 C 
ENDBRANCH  13  18
ENDBRANCH   1  13
TORSDOF 3
ENDMDL
MODEL 4
REMARK VINA RESULT:      -6.1      2.145      6.014
REMARK  Name = 
REMARK  3 active torsions:
REMARK  status: ('A' for Active; 'I' for Inactive)
REMARK    1  A    between atoms: C_5  and  N_8
REMARK    2  A    between atoms: N_8  and  C_9
REMARK    3  A    between atoms: C_13  and  C_16
REMARK                            x       y       z     vdW  Elec       q    Type
REMARK                         _______ _______ _______ _____ _____    ______ ____
ROOT
ATOM      1  C   UNL     1       8.258  -1.633  23.973  0.00  0.00    +0.000 C 
ATOM      2  C   UNL     1       7.266  -1.045  23.144  0.00  0.00    +0.000 C 
ATOM      3  C   UNL     1       7.023  -1.360  21.633  0.00  0.00    +0.000 C 
ATOM      4  C   UNL     1       7.543   0.523  23.220  0.00  0.00    +0.000 C 
ATOM      5  C   UNL     1       8.668   0.744  24.019  0.00  0.00    +0.000 C 
ATOM      6  C   UNL     1       9.165  -0.593  24.778  0.00  0.00    +0.000 C 
ATOM      7  C   UNL     1       8.516  -0.487  26.153  0.00  0.00    +0.000 C 
ATOM      8  O   UNL     1       6.280   1.158  23.123  0.00  0.00    +0.000 OA
ENDROOT
BRANCH   5   9
ATOM      9  C   UNL     1       9.936   1.559  23.608  0.00  0.00    +0.000 C 
ATOM     10  C   UNL     1      10.013   1.477  22.088  0.00  0.00    +0.000 C 
ATOM     11  C   UNL     1      11.167   1.033  24.247  0.00  0.00    +0.000 C 
ATOM     12  C   UNL     1       9.669   3.004  24.021  0.00  0.00    +0.000 C 
ENDBRANCH   5   9
BRANCH   1  13
ATOM     13  N   UNL     1       8.057  -2.715  24.872  0.00  0.00    +0.000 NA
BRANCH  13  18
ATOM     14  O   UNL     1       7.101  -5.248  27.943  0.00  0.00    +0.000 OA
ATOM     15  C   UNL     1       7.488  -4.742  26.696  0.00  0.00    +0.000 C 
ATOM     16  C   UNL     1       6.640  -5.406  25.625  0.00  0.00    +0.000 C 
ATOM     17  C   UNL     1       6.984  -4.823  24.266  0.00  0.00    +0.000 C 
ATOM     18  C   UNL     1       8.263  -4.036  24.314  0.00  0.00    +0.000 C 
ATOM     19  C   UNL     1       9.355  -4.770  25.047  0.00  0.00    +0.000 C 
ATOM     20  C   UNL     1       8.951  -5.085  26.474  0.00  0.00    +0.000 C 
ENDBRANCH  13  18
ENDBRANCH   1  13
TORSDOF 3
ENDMDL
MODEL 5
REMARK VINA RESULT:      -6.1      1.309      1.849
REMARK  Name = 
REMARK  3 active torsions:
REMARK  status: ('A' for Active; 'I' for Inactive)
REMARK    1  A    between atoms: C_5  and  N_8
REMARK    2  A    between atoms: N_8  and  C_9
REMARK    3  A    between atoms: C_13  and  C_16
REMARK                            x       y       z     vdW  Elec       q    Type
REMARK                         _______ _______ _______ _____ _____    ______ ____
ROOT
ATOM      1  C   UNL     1       7.143  -2.404  23.287  0.00  0.00    +0.000 C 
ATOM      2  C   UNL     1       7.182  -3.590  22.505  0.00  0.00    +0.000 C 
ATOM      3  C   UNL     1       6.054  -4.102  21.552  0.00  0.00    +0.000 C 
ATOM      4  C   UNL     1       7.431  -4.766  23.552  0.00  0.00    +0.000 C 
ATOM      5  C   UNL     1       7.471  -4.222  24.839  0.00  0.00    +0.000 C 
ATOM      6  C   UNL     1       7.493  -2.607  24.832  0.00  0.00    +0.000 C 
ATOM      7  C   UNL     1       8.976  -2.269  24.947  0.00  0.00    +0.000 C 
ATOM      8  O   UNL     1       8.214  -5.738  22.882  0.00  0.00    +0.000 OA
ENDROOT
BRANCH   5   9
ATOM      9  C   UNL     1       6.604  -4.683  26.054  0.00  0.00    +0.000 C 
ATOM     10  C   UNL     1       5.857  -3.443  26.531  0.00  0.00    +0.000 C 
ATOM     11  C   UNL     1       7.431  -5.272  27.135  0.00  0.00    +0.000 C 
ATOM     12  C   UNL     1       5.602  -5.694  25.506  0.00  0.00    +0.000 C 
ENDBRANCH   5   9
BRANCH   1  13
ATOM     13  N   UNL     1       7.731  -1.158  22.938  0.00  0.00    +0.000 NA
BRANCH  13  18
ATOM     14  O   UNL     1       8.304   2.840  22.275  0.00  0.00    +0.000 OA
ATOM     15  C   UNL     1       8.292   1.448  22.131  0.00  0.00    +0.000 C 
ATOM     16  C   UNL     1       9.700   0.989  21.788  0.00  0.00    +0.000 C 
ATOM     17  C   UNL     1       9.736  -0.525  21.699  0.00  0.00    +0.000 C 
ATOM     18  C   UNL     1       8.352  -1.106  21.631  0.00  0.00    +0.000 C 
ATOM     19  C   UNL     1       7.478  -0.377  20.644  0.00  0.00    +0.000 C 
ATOM     20  C   UNL     1       7.348   1.092  20.996  0.00  0.00    +0.000 C 
ENDBRANCH  13  18
ENDBRANCH   1  13
TORSDOF 3
ENDMDL
MODEL 6
REMARK VINA RESULT:      -6.0      2.198      3.165
REMARK  Name = 
REMARK  3 active torsions:
REMARK  status: ('A' for Active; 'I' for Inactive)
REMARK    1  A    between atoms: C_5  and  N_8
REMARK    2  A    between atoms: N_8  and  C_9
REMARK    3  A    between atoms: C_13  and  C_16
REMARK                            x       y       z     vdW  Elec       q    Type
REMARK                         _______ _______ _______ _____ _____    ______ ____
ROOT
ATOM      1  C   UNL     1       7.880  -1.550  23.554  0.00  0.00    +0.000 C 
ATOM      2  C   UNL     1       8.193  -0.925  24.790  0.00  0.00    +0.000 C 
ATOM      3  C   UNL     1       9.589  -0.364  25.211  0.00  0.00    +0.000 C 
ATOM      4  C   UNL     1       7.805  -1.997  25.904  0.00  0.00    +0.000 C 
ATOM      5  C   UNL     1       7.351  -3.159  25.273  0.00  0.00    +0.000 C 
ATOM      6  C   UNL     1       7.147  -2.963  23.682  0.00  0.00    +0.000 C 
ATOM      7  C   UNL     1       5.661  -2.649  23.548  0.00  0.00    +0.000 C 
ATOM      8  O   UNL     1       7.352  -1.261  27.027  0.00  0.00    +0.000 OA
ENDROOT
BRANCH   5   9
ATOM      9  C   UNL     1       7.900  -4.602  25.510  0.00  0.00    +0.000 C 
ATOM     10  C   UNL     1       6.712  -5.428  25.992  0.00  0.00    +0.000 C 
ATOM     11  C   UNL     1       9.012  -4.620  26.491  0.00  0.00    +0.000 C 
ATOM     12  C   UNL     1       8.351  -5.119  24.147  0.00  0.00    +0.000 C 
ENDBRANCH   5   9
BRANCH   1  13
ATOM     13  N   UNL     1       7.272  -0.922  22.434  0.00  0.00    +0.000 NA
BRANCH  13  18
ATOM     14  O   UNL     1       7.904   3.097  21.982  0.00  0.00    +0.000 OA
ATOM     15  C   UNL     1       7.931   1.709  21.800  0.00  0.00    +0.000 C 
ATOM     16  C   UNL     1       9.380   1.268  21.679  0.00  0.00    +0.000 C 
ATOM     17  C   UNL     1       9.446  -0.243  21.556  0.00  0.00    +0.000 C 
ATOM     18  C   UNL     1       8.097  -0.829  21.247  0.00  0.00    +0.000 C 
ATOM     19  C   UNL     1       7.388  -0.077  20.152  0.00  0.00    +0.000 C 
ATOM     20  C   UNL     1       7.187   1.381  20.518  0.00  0.00    +0.000 C 
ENDBRANCH  13  18
ENDBRANCH   1  13
TORSDOF 3
ENDMDL
MODEL 7
REMARK VINA RESULT:      -6.0      1.513      2.258
REMARK  Name = 
REMARK  3 active torsions:
REMARK  status: ('A' for Active; 'I' for Inactive)
REMARK    1  A    between atoms: C_5  and  N_8
REMARK    2  A    between atoms: N_8  and  C_9
REMARK    3  A    between atoms: C_13  and  C_16
REMARK                            x       y       z     vdW  Elec       q    Type
REMARK                         _______ _______ _______ _____ _____    ______ ____
ROOT
ATOM      1  C   UNL     1       7.767  -2.726  23.452  0.00  0.00    +0.000 C 
ATOM      2  C   UNL     1       7.129  -3.595  22.526  0.00  0.00    +0.000 C 
ATOM      3  C   UNL     1       5.802  -3.306  21.754  0.00  0.00    +0.000 C 
ATOM      4  C   UNL     1       6.874  -4.944  23.337  0.00  0.00    +0.000 C 
ATOM      5  C   UNL     1       7.315  -4.769  24.652  0.00  0.00    +0.000 C 
ATOM      6  C   UNL     1       8.133  -3.391  24.857  0.00  0.00    +0.000 C 
ATOM      7  C   UNL     1       9.590  -3.817  24.722  0.00  0.00    +0.000 C 
ATOM      8  O   UNL     1       6.996  -6.001  22.403  0.00  0.00    +0.000 OA
ENDROOT
BRANCH   5   9
ATOM      9  C   UNL     1       6.468  -5.019  25.941  0.00  0.00    +0.000 C 
ATOM     10  C   UNL     1       7.467  -5.389  27.033  0.00  0.00    +0.000 C 
ATOM     11  C   UNL     1       5.456  -6.084  25.744  0.00  0.00    +0.000 C 
ATOM     12  C   UNL     1       5.814  -3.686  26.289  0.00  0.00    +0.000 C 
ENDBRANCH   5   9
BRANCH   1  13
ATOM     13  N   UNL     1       8.853  -1.856  23.165  0.00  0.00    +0.000 NA
BRANCH  13  18
ATOM     14  O   UNL     1       8.029   0.217  19.733  0.00  0.00    +0.000 OA
ATOM     15  C   UNL     1       8.262  -0.114  21.072  0.00  0.00    +0.000 C 
ATOM     16  C   UNL     1       7.113   0.426  21.907  0.00  0.00    +0.000 C 
ATOM     17  C   UNL     1       7.298   0.016  23.357  0.00  0.00    +0.000 C 
ATOM     18  C   UNL     1       8.690  -0.487  23.612  0.00  0.00    +0.000 C 
ATOM     19  C   UNL     1       9.739   0.409  23.008  0.00  0.00    +0.000 C 
ATOM     20  C   UNL     1       9.561   0.539  21.508  0.00  0.00    +0.000 C 
ENDBRANCH  13  18
ENDBRANCH   1  13
TORSDOF 3
ENDMDL
MODEL 8
REMARK VINA RESULT:      -6.0      1.710      5.986
REMARK  Name = 
REMARK  3 active torsions:
REMARK  status: ('A' for Active; 'I' for Inactive)
REMARK    1  A    between atoms: C_5  and  N_8
REMARK    2  A    between atoms: N_8  and  C_9
REMARK    3  A    between atoms: C_13  and  C_16
REMARK                            x       y       z     vdW  Elec       q    Type
REMARK                         _______ _______ _______ _____ _____    ______ ____
ROOT
ATOM      1  C   UNL     1       8.383  -1.570  23.997  0.00  0.00    +0.000 C 
ATOM      2  C   UNL     1       9.235  -1.128  25.044  0.00  0.00    +0.000 C 
ATOM      3  C   UNL     1       8.852  -1.009  26.554  0.00  0.00    +0.000 C 
ATOM      4  C   UNL     1       9.709   0.328  24.603  0.00  0.00    +0.000 C 
ATOM      5  C   UNL     1       9.090   0.656  23.393  0.00  0.00    +0.000 C 
ATOM      6  C   UNL     1       8.309  -0.595  22.734  0.00  0.00    +0.000 C 
ATOM      7  C   UNL     1       9.317  -1.162  21.740  0.00  0.00    +0.000 C 
ATOM      8  O   UNL     1      11.029   0.484  25.092  0.00  0.00    +0.000 OA
ENDROOT
BRANCH   5   9
ATOM      9  C   UNL     1       8.250   1.944  23.116  0.00  0.00    +0.000 C 
ATOM     10  C   UNL     1       6.921   1.740  23.836  0.00  0.00    +0.000 C 
ATOM     11  C   UNL     1       8.054   2.178  21.664  0.00  0.00    +0.000 C 
ATOM     12  C   UNL     1       9.004   3.097  23.769  0.00  0.00    +0.000 C 
ENDBRANCH   5   9
BRANCH   1  13
ATOM     13  N   UNL     1       8.348  -2.881  23.450  0.00  0.00    +0.000 NA
BRANCH  13  18
ATOM     14  O   UNL     1       5.732  -4.285  20.632  0.00  0.00    +0.000 OA
ATOM     15  C   UNL     1       6.421  -4.077  21.833  0.00  0.00    +0.000 C 
ATOM     16  C   UNL     1       6.879  -5.426  22.363  0.00  0.00    +0.000 C 
ATOM     17  C   UNL     1       7.696  -5.227  23.626  0.00  0.00    +0.000 C 
ATOM     18  C   UNL     1       7.534  -3.837  24.173  0.00  0.00    +0.000 C 
ATOM     19  C   UNL     1       6.092  -3.404  24.208  0.00  0.00    +0.000 C 
ATOM     20  C   UNL     1       5.470  -3.434  22.826  0.00  0.00    +0.000 C 
ENDBRANCH  13  18
ENDBRANCH   1  13
TORSDOF 3
ENDMDL
MODEL 9
REMARK VINA RESULT:      -5.9      1.992      3.149
REMARK  Name = 
REMARK  3 active torsions:
REMARK  status: ('A' for Active; 'I' for Inactive)
REMARK    1  A    between atoms: C_5  and  N_8
REMARK    2  A    between atoms: N_8  and  C_9
REMARK    3  A    between atoms: C_13  and  C_16
REMARK                            x       y       z     vdW  Elec       q    Type
REMARK                         _______ _______ _______ _____ _____    ______ ____
ROOT
ATOM      1  C   UNL     1       7.456  -1.670  23.551  0.00  0.00    +0.000 C 
ATOM      2  C   UNL     1       6.574  -1.567  24.660  0.00  0.00    +0.000 C 
ATOM      3  C   UNL     1       6.988  -1.554  26.167  0.00  0.00    +0.000 C 
ATOM      4  C   UNL     1       5.564  -2.789  24.499  0.00  0.00    +0.000 C 
ATOM      5  C   UNL     1       5.933  -3.533  23.375  0.00  0.00    +0.000 C 
ATOM      6  C   UNL     1       7.076  -2.806  22.494  0.00  0.00    +0.000 C 
ATOM      7  C   UNL     1       6.285  -2.085  21.408  0.00  0.00    +0.000 C 
ATOM      8  O   UNL     1       4.317  -2.347  25.006  0.00  0.00    +0.000 OA
ENDROOT
BRANCH   5   9
ATOM      9  C   UNL     1       6.214  -5.070  23.348  0.00  0.00    +0.000 C 
ATOM     10  C   UNL     1       7.724  -5.222  23.499  0.00  0.00    +0.000 C 
ATOM     11  C   UNL     1       5.724  -5.703  22.100  0.00  0.00    +0.000 C 
ATOM     12  C   UNL     1       5.525  -5.654  24.577  0.00  0.00    +0.000 C 
ENDBRANCH   5   9
BRANCH   1  13
ATOM     13  N   UNL     1       7.937  -0.587  22.767  0.00  0.00    +0.000 NA
BRANCH  13  18
ATOM     14  O   UNL     1       9.108   2.836  24.680  0.00  0.00    +0.000 OA
ATOM     15  C   UNL     1       9.116   1.638  23.958  0.00  0.00    +0.000 C 
ATOM     16  C   UNL     1      10.133   0.702  24.591  0.00  0.00    +0.000 C 
ATOM     17  C   UNL     1      10.111  -0.636  23.876  0.00  0.00    +0.000 C 
ATOM     18  C   UNL     1       9.372  -0.550  22.570  0.00  0.00    +0.000 C 
ATOM     19  C   UNL     1       9.778   0.657  21.766  0.00  0.00    +0.000 C 
ATOM     20  C   UNL     1       9.525   1.943  22.528  0.00  0.00    +0.000 C 
ENDBRANCH  13  18
ENDBRANCH   1  13
TORSDOF 3
ENDMDL
