MODEL 1
REMARK VINA RESULT:      -7.9      0.000      0.000
REMARK  Name = 
REMARK  7 active torsions:
REMARK  status: ('A' for Active; 'I' for Inactive)
REMARK    1  A    between atoms: C_2  and  N_3
REMARK    2  A    between atoms: N_3  and  C_4
REMARK    3  A    between atoms: C_9  and  C_10
REMARK    4  A    between atoms: C_10  and  N_11
REMARK    5  A    between atoms: C_12  and  C_14
REMARK    6  A    between atoms: C_20  and  C_27
REMARK    7  A    between atoms: C_23  and  C_25
REMARK                            x       y       z     vdW  Elec       q    Type
REMARK                         _______ _______ _______ _____ _____    ______ ____
ROOT
ATOM      1  C   UNL     1       7.913  -3.052  24.816  0.00  0.00    +0.000 C 
ATOM      2  C   UNL     1       8.563  -3.007  26.109  0.00  0.00    +0.000 C 
ATOM      3  C   UNL     1       6.764  -2.115  24.473  0.00  0.00    +0.000 C 
ATOM      4  C   UNL     1       5.860  -3.247  23.727  0.00  0.00    +0.000 C 
ATOM      5  C   UNL     1       5.831  -4.304  24.879  0.00  0.00    +0.000 C 
ATOM      6  C   UNL     1       7.258  -4.446  24.522  0.00  0.00    +0.000 C 
ATOM      7  C   UNL     1       8.010  -5.432  25.468  0.00  0.00    +0.000 C 
ATOM      8  C   UNL     1       7.316  -5.059  26.809  0.00  0.00    +0.000 C 
ATOM      9  C   UNL     1       5.913  -4.810  26.334  0.00  0.00    +0.000 C 
ATOM     10  C   UNL     1       5.193  -3.995  27.407  0.00  0.00    +0.000 C 
ATOM     11  C   UNL     1       4.495  -3.673  25.076  0.00  0.00    +0.000 C 
ATOM     12  C   UNL     1       4.593  -2.278  25.679  0.00  0.00    +0.000 C 
ATOM     13  C   UNL     1       5.963  -1.646  25.603  0.00  0.00    +0.000 C 
ATOM     14  C   UNL     1       5.830  -0.100  25.469  0.00  0.00    +0.000 C 
ATOM     15  O   UNL     1       6.571  -1.822  26.862  0.00  0.00    +0.000 OA
ENDROOT
BRANCH   1  17
ATOM     16  N   UNL     1       8.788  -1.296  23.570  0.00  0.00    +0.000 NA
ATOM     17  C   UNL     1       8.946  -2.696  23.755  0.00  0.00    +0.000 C 
ATOM     18  O   UNL     1      10.064  -3.114  23.865  0.00  0.00    +0.000 OA
BRANCH  16  19
ATOM     19  C   UNL     1       9.633  -0.472  24.395  0.00  0.00    +0.000 C 
BRANCH  19  25
ATOM     20  C   UNL     1       8.305   1.376  23.200  0.00  0.00    +0.000 C 
ATOM     21  C   UNL     1       7.928   2.819  23.647  0.00  0.00    +0.000 C 
ATOM     22  C   UNL     1       9.176   3.663  23.433  0.00  0.00    +0.000 C 
ATOM     23  C   UNL     1      10.442   3.205  23.819  0.00  0.00    +0.000 C 
ATOM     24  C   UNL     1      10.647   1.812  24.007  0.00  0.00    +0.000 C 
ATOM     25  C   UNL     1       9.491   0.966  24.050  0.00  0.00    +0.000 C 
ATOM     26  F   UNL     1      11.417   3.696  23.031  0.00  0.00    +0.000 F 
BRANCH  20  27
ATOM     27  N   UNL     1       8.745   1.496  21.813  0.00  0.00    +0.000 NA
BRANCH  27  29
ATOM     28  C   UNL     1       8.092  -0.120  20.120  0.00  0.00    +0.000 C 
ATOM     29  C   UNL     1       7.656   1.049  20.987  0.00  0.00    +0.000 C 
ENDBRANCH  27  29
ENDBRANCH  20  27
ENDBRANCH  19  25
ENDBRANCH  16  19
ENDBRANCH   1  17
BRANCH   6  30
ATOM     30  C   UNL     1       7.569  -4.857  23.135  0.00  0.00    +0.000 C 
ATOM     31  O   UNL     1       6.874  -4.691  22.154  0.00  0.00    +0.000 OA
ATOM     32  O   UNL     1       8.445  -5.908  23.126  0.00  0.00    +0.000 OA
ENDBRANCH   6  30
BRANCH   9  33
ATOM     33  C   UNL     1       5.201  -6.198  26.261  0.00  0.00    +0.000 C 
ATOM     34  O   UNL     1       5.559  -6.883  27.436  0.00  0.00    +0.000 OA
ENDBRANCH   9  33
TORSDOF 7
ENDMDL
MODEL 2
REMARK VINA RESULT:      -7.8      1.809      3.135
REMARK  Name = 
REMARK  7 active torsions:
REMARK  status: ('A' for Active; 'I' for Inactive)
REMARK    1  A    between atoms: C_2  and  N_3
REMARK    2  A    between atoms: N_3  and  C_4
REMARK    3  A    between atoms: C_9  and  C_10
REMARK    4  A    between atoms: C_10  and  N_11
REMARK    5  A    between atoms: C_12  and  C_14
REMARK    6  A    between atoms: C_20  and  C_27
REMARK    7  A    between atoms: C_23  and  C_25
REMARK                            x       y       z     vdW  Elec       q    Type
REMARK                         _______ _______ _______ _____ _____    ______ ____
ROOT
ATOM      1  C   UNL     1       6.117  -3.522  24.958  0.00  0.00    +0.000 C 
ATOM      2  C   UNL     1       4.849  -2.832  25.078  0.00  0.00    +0.000 C 
ATOM      3  C   UNL     1       6.711  -3.856  23.597  0.00  0.00    +0.000 C 
ATOM      4  C   UNL     1       7.197  -5.356  24.008  0.00  0.00    +0.000 C 
ATOM      5  C   UNL     1       5.829  -5.898  24.536  0.00  0.00    +0.000 C 
ATOM      6  C   UNL     1       6.093  -4.938  25.629  0.00  0.00    +0.000 C 
ATOM      7  C   UNL     1       4.914  -4.863  26.647  0.00  0.00    +0.000 C 
ATOM      8  C   UNL     1       3.725  -4.990  25.653  0.00  0.00    +0.000 C 
ATOM      9  C   UNL     1       4.294  -5.969  24.667  0.00  0.00    +0.000 C 
ATOM     10  C   UNL     1       3.471  -5.872  23.382  0.00  0.00    +0.000 C 
ATOM     11  C   UNL     1       5.834  -6.500  23.171  0.00  0.00    +0.000 C 
ATOM     12  C   UNL     1       5.577  -5.470  22.080  0.00  0.00    +0.000 C 
ATOM     13  C   UNL     1       5.753  -4.031  22.506  0.00  0.00    +0.000 C 
ATOM     14  C   UNL     1       6.256  -3.177  21.305  0.00  0.00    +0.000 C 
ATOM     15  O   UNL     1       4.469  -3.517  22.770  0.00  0.00    +0.000 OA
ENDROOT
BRANCH   1  17
ATOM     16  N   UNL     1       7.859  -2.069  24.454  0.00  0.00    +0.000 NA
ATOM     17  C   UNL     1       7.195  -2.641  25.573  0.00  0.00    +0.000 C 
ATOM     18  O   UNL     1       6.905  -1.907  26.475  0.00  0.00    +0.000 OA
BRANCH  16  19
ATOM     19  C   UNL     1       7.339  -0.799  24.020  0.00  0.00    +0.000 C 
BRANCH  19  25
ATOM     20  C   UNL     1       8.495   0.998  22.590  0.00  0.00    +0.000 C 
ATOM     21  C   UNL     1       9.059   2.400  22.965  0.00  0.00    +0.000 C 
ATOM     22  C   UNL     1      10.406   2.146  23.625  0.00  0.00    +0.000 C 
ATOM     23  C   UNL     1      10.572   1.136  24.579  0.00  0.00    +0.000 C 
ATOM     24  C   UNL     1       9.634   0.069  24.631  0.00  0.00    +0.000 C 
ATOM     25  C   UNL     1       8.420   0.212  23.884  0.00  0.00    +0.000 C 
ATOM     26  F   UNL     1      11.819   0.630  24.565  0.00  0.00    +0.000 F 
BRANCH  20  27
ATOM     27  N   UNL     1       9.503   0.385  21.730  0.00  0.00    +0.000 NA
BRANCH  27  29
ATOM     28  C   UNL     1       7.829   0.243  19.975  0.00  0.00    +0.000 C 
ATOM     29  C   UNL     1       8.812  -0.517  20.849  0.00  0.00    +0.000 C 
ENDBRANCH  27  29
ENDBRANCH  20  27
ENDBRANCH  19  25
ENDBRANCH  16  19
ENDBRANCH   1  17
BRANCH   6  30
ATOM     30  C   UNL     1       7.331  -5.135  26.415  0.00  0.00    +0.000 C 
ATOM     31  O   UNL     1       8.313  -5.765  26.080  0.00  0.00    +0.000 OA
ATOM     32  O   UNL     1       7.080  -5.008  27.754  0.00  0.00    +0.000 OA
ENDBRANCH   6  30
BRANCH   9  33
ATOM     33  C   UNL     1       4.059  -7.397  25.251  0.00  0.00    +0.000 C 
ATOM     34  O   UNL     1       3.070  -7.991  24.447  0.00  0.00    +0.000 OA
ENDBRANCH   9  33
TORSDOF 7
ENDMDL
MODEL 3
REMARK VINA RESULT:      -7.8      1.935      3.478
REMARK  Name = 
REMARK  7 active torsions:
REMARK  status: ('A' for Active; 'I' for Inactive)
REMARK    1  A    between atoms: C_2  and  N_3
REMARK    2  A    between atoms: N_3  and  C_4
REMARK    3  A    between atoms: C_9  and  C_10
REMARK    4  A    between atoms: C_10  and  N_11
REMARK    5  A    between atoms: C_12  and  C_14
REMARK    6  A    between atoms: C_20  and  C_27
REMARK    7  A    between atoms: C_23  and  C_25
REMARK                            x       y       z     vdW  Elec       q    Type
REMARK                         _______ _______ _______ _____ _____    ______ ____
ROOT
ATOM      1  C   UNL     1       6.534  -3.369  25.085  0.00  0.00    +0.000 C 
ATOM      2  C   UNL     1       5.285  -2.688  25.355  0.00  0.00    +0.000 C 
ATOM      3  C   UNL     1       7.063  -3.522  23.666  0.00  0.00    +0.000 C 
ATOM      4  C   UNL     1       7.542  -5.069  23.847  0.00  0.00    +0.000 C 
ATOM      5  C   UNL     1       6.190  -5.663  24.360  0.00  0.00    +0.000 C 
ATOM      6  C   UNL     1       6.517  -4.863  25.559  0.00  0.00    +0.000 C 
ATOM      7  C   UNL     1       5.386  -4.914  26.631  0.00  0.00    +0.000 C 
ATOM      8  C   UNL     1       4.152  -4.893  25.685  0.00  0.00    +0.000 C 
ATOM      9  C   UNL     1       4.661  -5.735  24.550  0.00  0.00    +0.000 C 
ATOM     10  C   UNL     1       3.784  -5.456  23.330  0.00  0.00    +0.000 C 
ATOM     11  C   UNL     1       6.124  -6.074  22.928  0.00  0.00    +0.000 C 
ATOM     12  C   UNL     1       5.836  -4.903  21.998  0.00  0.00    +0.000 C 
ATOM     13  C   UNL     1       6.055  -3.538  22.606  0.00  0.00    +0.000 C 
ATOM     14  C   UNL     1       6.518  -2.533  21.509  0.00  0.00    +0.000 C 
ATOM     15  O   UNL     1       4.792  -3.051  22.996  0.00  0.00    +0.000 OA
ENDROOT
BRANCH   1  17
ATOM     16  N   UNL     1       8.169  -1.754  24.736  0.00  0.00    +0.000 NA
ATOM     17  C   UNL     1       7.653  -2.591  25.764  0.00  0.00    +0.000 C 
ATOM     18  O   UNL     1       7.450  -2.088  26.832  0.00  0.00    +0.000 OA
BRANCH  16  19
ATOM     19  C   UNL     1       7.570  -0.448  24.655  0.00  0.00    +0.000 C 
BRANCH  19  25
ATOM     20  C   UNL     1       9.146   0.365  22.793  0.00  0.00    +0.000 C 
ATOM     21  C   UNL     1       9.086   0.182  21.248  0.00  0.00    +0.000 C 
ATOM     22  C   UNL     1       8.069   1.195  20.745  0.00  0.00    +0.000 C 
ATOM     23  C   UNL     1       6.843   1.382  21.394  0.00  0.00    +0.000 C 
ATOM     24  C   UNL     1       6.704   0.967  22.746  0.00  0.00    +0.000 C 
ATOM     25  C   UNL     1       7.734   0.140  23.300  0.00  0.00    +0.000 C 
ATOM     26  F   UNL     1       6.394   2.645  21.269  0.00  0.00    +0.000 F 
BRANCH  20  27
ATOM     27  N   UNL     1       9.501   1.764  23.010  0.00  0.00    +0.000 NA
BRANCH  27  29
ATOM     28  C   UNL     1      11.115   0.695  24.479  0.00  0.00    +0.000 C 
ATOM     29  C   UNL     1      10.134   1.841  24.299  0.00  0.00    +0.000 C 
ENDBRANCH  27  29
ENDBRANCH  20  27
ENDBRANCH  19  25
ENDBRANCH  16  19
ENDBRANCH   1  17
BRANCH   6  30
ATOM     30  C   UNL     1       7.785  -5.177  26.254  0.00  0.00    +0.000 C 
ATOM     31  O   UNL     1       8.778  -5.676  25.765  0.00  0.00    +0.000 OA
ATOM     32  O   UNL     1       7.571  -5.361  27.593  0.00  0.00    +0.000 OA
ENDBRANCH   6  30
BRANCH   9  33
ATOM     33  C   UNL     1       4.428  -7.227  24.946  0.00  0.00    +0.000 C 
ATOM     34  O   UNL     1       3.267  -7.636  24.267  0.00  0.00    +0.000 OA
ENDBRANCH   9  33
TORSDOF 7
ENDMDL
MODEL 4
REMARK VINA RESULT:      -7.3      1.938      3.355
REMARK  Name = 
REMARK  7 active torsions:
REMARK  status: ('A' for Active; 'I' for Inactive)
REMARK    1  A    between atoms: C_2  and  N_3
REMARK    2  A    between atoms: N_3  and  C_4
REMARK    3  A    between atoms: C_9  and  C_10
REMARK    4  A    between atoms: C_10  and  N_11
REMARK    5  A    between atoms: C_12  and  C_14
REMARK    6  A    between atoms: C_20  and  C_27
REMARK    7  A    between atoms: C_23  and  C_25
REMARK                            x       y       z     vdW  Elec       q    Type
REMARK                         _______ _______ _______ _____ _____    ______ ____
ROOT
ATOM      1  C   UNL     1       6.595  -3.432  25.181  0.00  0.00    +0.000 C 
ATOM      2  C   UNL     1       5.376  -2.727  25.521  0.00  0.00    +0.000 C 
ATOM      3  C   UNL     1       7.068  -3.546  23.739  0.00  0.00    +0.000 C 
ATOM      4  C   UNL     1       7.508  -5.111  23.846  0.00  0.00    +0.000 C 
ATOM      5  C   UNL     1       6.158  -5.686  24.385  0.00  0.00    +0.000 C 
ATOM      6  C   UNL     1       6.551  -4.941  25.600  0.00  0.00    +0.000 C 
ATOM      7  C   UNL     1       5.457  -5.001  26.710  0.00  0.00    +0.000 C 
ATOM      8  C   UNL     1       4.192  -4.910  25.811  0.00  0.00    +0.000 C 
ATOM      9  C   UNL     1       4.635  -5.722  24.628  0.00  0.00    +0.000 C 
ATOM     10  C   UNL     1       3.724  -5.373  23.451  0.00  0.00    +0.000 C 
ATOM     11  C   UNL     1       6.029  -6.041  22.942  0.00  0.00    +0.000 C 
ATOM     12  C   UNL     1       5.743  -4.828  22.067  0.00  0.00    +0.000 C 
ATOM     13  C   UNL     1       6.023  -3.493  22.717  0.00  0.00    +0.000 C 
ATOM     14  C   UNL     1       6.477  -2.462  21.641  0.00  0.00    +0.000 C 
ATOM     15  O   UNL     1       4.790  -2.986  23.169  0.00  0.00    +0.000 OA
ENDROOT
BRANCH   1  17
ATOM     16  N   UNL     1       8.303  -1.899  24.814  0.00  0.00    +0.000 NA
ATOM     17  C   UNL     1       7.759  -2.711  25.846  0.00  0.00    +0.000 C 
ATOM     18  O   UNL     1       7.595  -2.201  26.918  0.00  0.00    +0.000 OA
BRANCH  16  19
ATOM     19  C   UNL     1       7.768  -0.564  24.741  0.00  0.00    +0.000 C 
BRANCH  19  25
ATOM     20  C   UNL     1       9.028   1.640  24.338  0.00  0.00    +0.000 C 
ATOM     21  C   UNL     1      10.387   1.929  23.637  0.00  0.00    +0.000 C 
ATOM     22  C   UNL     1      10.105   1.889  22.142  0.00  0.00    +0.000 C 
ATOM     23  C   UNL     1       9.318   0.879  21.576  0.00  0.00    +0.000 C 
ATOM     24  C   UNL     1       8.428   0.145  22.406  0.00  0.00    +0.000 C 
ATOM     25  C   UNL     1       8.566   0.290  23.824  0.00  0.00    +0.000 C 
ATOM     26  F   UNL     1       8.655   1.309  20.485  0.00  0.00    +0.000 F 
BRANCH  20  27
ATOM     27  N   UNL     1       8.108   2.663  23.851  0.00  0.00    +0.000 NA
BRANCH  27  29
ATOM     28  C   UNL     1       8.245   4.479  25.460  0.00  0.00    +0.000 C 
ATOM     29  C   UNL     1       7.480   3.247  25.006  0.00  0.00    +0.000 C 
ENDBRANCH  27  29
ENDBRANCH  20  27
ENDBRANCH  19  25
ENDBRANCH  16  19
ENDBRANCH   1  17
BRANCH   6  30
ATOM     30  C   UNL     1       7.833  -5.317  26.236  0.00  0.00    +0.000 C 
ATOM     31  O   UNL     1       8.829  -5.728  25.678  0.00  0.00    +0.000 OA
ATOM     32  O   UNL     1       7.638  -5.677  27.542  0.00  0.00    +0.000 OA
ENDBRANCH   6  30
BRANCH   9  33
ATOM     33  C   UNL     1       4.373  -7.221  24.977  0.00  0.00    +0.000 C 
ATOM     34  O   UNL     1       3.249  -7.608  24.226  0.00  0.00    +0.000 OA
ENDBRANCH   9  33
TORSDOF 7
ENDMDL
MODEL 5
REMARK VINA RESULT:      -7.3      3.238      7.478
REMARK  Name = 
REMARK  7 active torsions:
REMARK  status: ('A' for Active; 'I' for Inactive)
REMARK    1  A    between atoms: C_2  and  N_3
REMARK    2  A    between atoms: N_3  and  C_4
REMARK    3  A    between atoms: C_9  and  C_10
REMARK    4  A    between atoms: C_10  and  N_11
REMARK    5  A    between atoms: C_12  and  C_14
REMARK    6  A    between atoms: C_20  and  C_27
REMARK    7  A    between atoms: C_23  and  C_25
REMARK                            x       y       z     vdW  Elec       q    Type
REMARK                         _______ _______ _______ _____ _____    ______ ____
ROOT
ATOM      1  C   UNL     1       7.370   0.146  24.188  0.00  0.00    +0.000 C 
ATOM      2  C   UNL     1       7.752   0.306  25.575  0.00  0.00    +0.000 C 
ATOM      3  C   UNL     1       8.045  -0.885  23.294  0.00  0.00    +0.000 C 
ATOM      4  C   UNL     1       8.160   0.092  21.995  0.00  0.00    +0.000 C 
ATOM      5  C   UNL     1       8.894   1.290  22.680  0.00  0.00    +0.000 C 
ATOM      6  C   UNL     1       7.588   1.453  23.351  0.00  0.00    +0.000 C 
ATOM      7  C   UNL     1       7.609   2.593  24.416  0.00  0.00    +0.000 C 
ATOM      8  C   UNL     1       9.038   2.368  24.985  0.00  0.00    +0.000 C 
ATOM      9  C   UNL     1       9.777   1.989  23.734  0.00  0.00    +0.000 C 
ATOM     10  C   UNL     1      11.071   1.288  24.148  0.00  0.00    +0.000 C 
ATOM     11  C   UNL     1      10.052   0.625  22.016  0.00  0.00    +0.000 C 
ATOM     12  C   UNL     1      10.454  -0.671  22.708  0.00  0.00    +0.000 C 
ATOM     13  C   UNL     1       9.419  -1.238  23.650  0.00  0.00    +0.000 C 
ATOM     14  C   UNL     1       9.508  -2.793  23.668  0.00  0.00    +0.000 C 
ATOM     15  O   UNL     1       9.797  -0.866  24.955  0.00  0.00    +0.000 OA
ENDROOT
BRANCH   1  17
ATOM     16  N   UNL     1       5.979  -1.689  23.868  0.00  0.00    +0.000 NA
ATOM     17  C   UNL     1       5.913  -0.296  24.147  0.00  0.00    +0.000 C 
ATOM     18  O   UNL     1       5.171   0.056  25.019  0.00  0.00    +0.000 OA
BRANCH  16  19
ATOM     19  C   UNL     1       6.005  -2.542  25.028  0.00  0.00    +0.000 C 
BRANCH  19  25
ATOM     20  C   UNL     1       5.483  -4.933  25.815  0.00  0.00    +0.000 C 
ATOM     21  C   UNL     1       4.399  -5.950  25.352  0.00  0.00    +0.000 C 
ATOM     22  C   UNL     1       4.919  -6.556  24.057  0.00  0.00    +0.000 C 
ATOM     23  C   UNL     1       5.489  -5.760  23.056  0.00  0.00    +0.000 C 
ATOM     24  C   UNL     1       5.986  -4.472  23.394  0.00  0.00    +0.000 C 
ATOM     25  C   UNL     1       5.644  -3.940  24.680  0.00  0.00    +0.000 C 
ATOM     26  F   UNL     1       6.425  -6.426  22.355  0.00  0.00    +0.000 F 
BRANCH  20  27
ATOM     27  N   UNL     1       6.717  -5.702  25.940  0.00  0.00    +0.000 NA
BRANCH  27  29
ATOM     28  C   UNL     1       8.817  -4.702  26.643  0.00  0.00    +0.000 C 
ATOM     29  C   UNL     1       7.434  -5.167  27.066  0.00  0.00    +0.000 C 
ENDBRANCH  27  29
ENDBRANCH  20  27
ENDBRANCH  19  25
ENDBRANCH  16  19
ENDBRANCH   1  17
BRANCH   6  30
ATOM     30  C   UNL     1       6.410   1.691  22.488  0.00  0.00    +0.000 C 
ATOM     31  O   UNL     1       6.337   1.504  21.290  0.00  0.00    +0.000 OA
ATOM     32  O   UNL     1       5.588   2.637  23.038  0.00  0.00    +0.000 OA
ENDBRANCH   6  30
BRANCH   9  33
ATOM     33  C   UNL     1      10.185   3.317  23.023  0.00  0.00    +0.000 C 
ATOM     34  O   UNL     1      11.487   3.613  23.463  0.00  0.00    +0.000 OA
ENDBRANCH   9  33
TORSDOF 7
ENDMDL
MODEL 6
REMARK VINA RESULT:      -7.3      2.994      6.945
REMARK  Name = 
REMARK  7 active torsions:
REMARK  status: ('A' for Active; 'I' for Inactive)
REMARK    1  A    between atoms: C_2  and  N_3
REMARK    2  A    between atoms: N_3  and  C_4
REMARK    3  A    between atoms: C_9  and  C_10
REMARK    4  A    between atoms: C_10  and  N_11
REMARK    5  A    between atoms: C_12  and  C_14
REMARK    6  A    between atoms: C_20  and  C_27
REMARK    7  A    between atoms: C_23  and  C_25
REMARK                            x       y       z     vdW  Elec       q    Type
REMARK                         _______ _______ _______ _____ _____    ______ ____
ROOT
ATOM      1  C   UNL     1       7.323  -0.742  22.121  0.00  0.00    +0.000 C 
ATOM      2  C   UNL     1       6.539  -0.662  23.336  0.00  0.00    +0.000 C 
ATOM      3  C   UNL     1       8.809  -1.070  22.157  0.00  0.00    +0.000 C 
ATOM      4  C   UNL     1       9.236   0.038  21.041  0.00  0.00    +0.000 C 
ATOM      5  C   UNL     1       8.588   1.292  21.712  0.00  0.00    +0.000 C 
ATOM      6  C   UNL     1       7.336   0.609  21.327  0.00  0.00    +0.000 C 
ATOM      7  C   UNL     1       6.069   1.366  21.834  0.00  0.00    +0.000 C 
ATOM      8  C   UNL     1       6.603   1.835  23.217  0.00  0.00    +0.000 C 
ATOM      9  C   UNL     1       8.031   2.144  22.871  0.00  0.00    +0.000 C 
ATOM     10  C   UNL     1       8.832   2.177  24.172  0.00  0.00    +0.000 C 
ATOM     11  C   UNL     1      10.006   1.480  22.133  0.00  0.00    +0.000 C 
ATOM     12  C   UNL     1      10.428   0.495  23.215  0.00  0.00    +0.000 C 
ATOM     13  C   UNL     1       9.517  -0.698  23.381  0.00  0.00    +0.000 C 
ATOM     14  C   UNL     1      10.341  -1.939  23.836  0.00  0.00    +0.000 C 
ATOM     15  O   UNL     1       8.679  -0.430  24.480  0.00  0.00    +0.000 OA
ENDROOT
BRANCH   1  17
ATOM     16  N   UNL     1       7.149  -3.054  21.963  0.00  0.00    +0.000 NA
ATOM     17  C   UNL     1       6.763  -1.874  21.271  0.00  0.00    +0.000 C 
ATOM     18  O   UNL     1       5.631  -1.809  20.884  0.00  0.00    +0.000 OA
BRANCH  16  19
ATOM     19  C   UNL     1       6.185  -3.548  22.912  0.00  0.00    +0.000 C 
BRANCH  19  25
ATOM     20  C   UNL     1       6.249  -3.970  25.447  0.00  0.00    +0.000 C 
ATOM     21  C   UNL     1       6.535  -5.265  26.263  0.00  0.00    +0.000 C 
ATOM     22  C   UNL     1       8.047  -5.437  26.259  0.00  0.00    +0.000 C 
ATOM     23  C   UNL     1       8.798  -5.262  25.090  0.00  0.00    +0.000 C 
ATOM     24  C   UNL     1       8.245  -4.512  24.016  0.00  0.00    +0.000 C 
ATOM     25  C   UNL     1       6.849  -4.194  24.073  0.00  0.00    +0.000 C 
ATOM     26  F   UNL     1      10.040  -4.813  25.352  0.00  0.00    +0.000 F 
BRANCH  20  27
ATOM     27  N   UNL     1       6.997  -2.910  26.116  0.00  0.00    +0.000 NA
BRANCH  27  29
ATOM     28  C   UNL     1       6.459  -0.740  27.066  0.00  0.00    +0.000 C 
ATOM     29  C   UNL     1       6.066  -2.202  26.953  0.00  0.00    +0.000 C 
ENDBRANCH  27  29
ENDBRANCH  20  27
ENDBRANCH  19  25
ENDBRANCH  16  19
ENDBRANCH   1  17
BRANCH   6  30
ATOM     30  C   UNL     1       7.130   0.339  19.887  0.00  0.00    +0.000 C 
ATOM     31  O   UNL     1       7.979   0.032  19.076  0.00  0.00    +0.000 OA
ATOM     32  O   UNL     1       6.011   0.980  19.428  0.00  0.00    +0.000 OA
ENDBRANCH   6  30
BRANCH   9  33
ATOM     33  C   UNL     1       8.057   3.591  22.284  0.00  0.00    +0.000 C 
ATOM     34  O   UNL     1       8.273   4.452  23.374  0.00  0.00    +0.000 OA
ENDBRANCH   9  33
TORSDOF 7
ENDMDL
MODEL 7
REMARK VINA RESULT:      -7.1      3.400      7.477
REMARK  Name = 
REMARK  7 active torsions:
REMARK  status: ('A' for Active; 'I' for Inactive)
REMARK    1  A    between atoms: C_2  and  N_3
REMARK    2  A    between atoms: N_3  and  C_4
REMARK    3  A    between atoms: C_9  and  C_10
REMARK    4  A    between atoms: C_10  and  N_11
REMARK    5  A    between atoms: C_12  and  C_14
REMARK    6  A    between atoms: C_20  and  C_27
REMARK    7  A    between atoms: C_23  and  C_25
REMARK                            x       y       z     vdW  Elec       q    Type
REMARK                         _______ _______ _______ _____ _____    ______ ____
ROOT
ATOM      1  C   UNL     1       7.443  -0.005  22.693  0.00  0.00    +0.000 C 
ATOM      2  C   UNL     1       6.582   0.135  23.849  0.00  0.00    +0.000 C 
ATOM      3  C   UNL     1       8.957  -0.071  22.836  0.00  0.00    +0.000 C 
ATOM      4  C   UNL     1       9.273   0.900  21.567  0.00  0.00    +0.000 C 
ATOM      5  C   UNL     1       8.393   2.120  21.994  0.00  0.00    +0.000 C 
ATOM      6  C   UNL     1       7.292   1.185  21.684  0.00  0.00    +0.000 C 
ATOM      7  C   UNL     1       5.892   1.791  22.011  0.00  0.00    +0.000 C 
ATOM      8  C   UNL     1       6.257   2.557  23.314  0.00  0.00    +0.000 C 
ATOM      9  C   UNL     1       7.636   3.041  22.973  0.00  0.00    +0.000 C 
ATOM     10  C   UNL     1       8.339   3.414  24.278  0.00  0.00    +0.000 C 
ATOM     11  C   UNL     1       9.735   2.606  22.429  0.00  0.00    +0.000 C 
ATOM     12  C   UNL     1      10.238   1.891  23.675  0.00  0.00    +0.000 C 
ATOM     13  C   UNL     1       9.519   0.604  24.005  0.00  0.00    +0.000 C 
ATOM     14  C   UNL     1      10.499  -0.393  24.692  0.00  0.00    +0.000 C 
ATOM     15  O   UNL     1       8.582   0.901  25.014  0.00  0.00    +0.000 OA
ENDROOT
BRANCH   1  17
ATOM     16  N   UNL     1       8.187  -2.191  22.425  0.00  0.00    +0.000 NA
ATOM     17  C   UNL     1       7.124  -1.335  22.025  0.00  0.00    +0.000 C 
ATOM     18  O   UNL     1       6.011  -1.772  22.095  0.00  0.00    +0.000 OA
BRANCH  16  19
ATOM     19  C   UNL     1       7.941  -2.952  23.622  0.00  0.00    +0.000 C 
BRANCH  19  25
ATOM     20  C   UNL     1       5.982  -4.365  24.501  0.00  0.00    +0.000 C 
ATOM     21  C   UNL     1       4.666  -4.833  23.813  0.00  0.00    +0.000 C 
ATOM     22  C   UNL     1       5.050  -6.020  22.940  0.00  0.00    +0.000 C 
ATOM     23  C   UNL     1       6.195  -5.994  22.136  0.00  0.00    +0.000 C 
ATOM     24  C   UNL     1       7.233  -5.070  22.436  0.00  0.00    +0.000 C 
ATOM     25  C   UNL     1       6.950  -4.032  23.382  0.00  0.00    +0.000 C 
ATOM     26  F   UNL     1       6.725  -7.220  21.975  0.00  0.00    +0.000 F 
BRANCH  20  27
ATOM     27  N   UNL     1       6.485  -5.530  25.222  0.00  0.00    +0.000 NA
BRANCH  27  29
ATOM     28  C   UNL     1       8.247  -4.935  26.786  0.00  0.00    +0.000 C 
ATOM     29  C   UNL     1       6.753  -5.105  26.570  0.00  0.00    +0.000 C 
ENDBRANCH  27  29
ENDBRANCH  20  27
ENDBRANCH  19  25
ENDBRANCH  16  19
ENDBRANCH   1  17
BRANCH   6  30
ATOM     30  C   UNL     1       7.222   0.658  20.303  0.00  0.00    +0.000 C 
ATOM     31  O   UNL     1       8.156   0.311  19.610  0.00  0.00    +0.000 OA
ATOM     32  O   UNL     1       6.087   1.094  19.675  0.00  0.00    +0.000 OA
ENDBRANCH   6  30
BRANCH   9  33
ATOM     33  C   UNL     1       7.469   4.359  22.153  0.00  0.00    +0.000 C 
ATOM     34  O   UNL     1       7.444   5.404  23.094  0.00  0.00    +0.000 OA
ENDBRANCH   9  33
TORSDOF 7
ENDMDL
MODEL 8
REMARK VINA RESULT:      -7.1      1.479      2.263
REMARK  Name = 
REMARK  7 active torsions:
REMARK  status: ('A' for Active; 'I' for Inactive)
REMARK    1  A    between atoms: C_2  and  N_3
REMARK    2  A    between atoms: N_3  and  C_4
REMARK    3  A    between atoms: C_9  and  C_10
REMARK    4  A    between atoms: C_10  and  N_11
REMARK    5  A    between atoms: C_12  and  C_14
REMARK    6  A    between atoms: C_20  and  C_27
REMARK    7  A    between atoms: C_23  and  C_25
REMARK                            x       y       z     vdW  Elec       q    Type
REMARK                         _______ _______ _______ _____ _____    ______ ____
ROOT
ATOM      1  C   UNL     1       7.778  -3.161  24.884  0.00  0.00    +0.000 C 
ATOM      2  C   UNL     1       8.398  -2.963  26.177  0.00  0.00    +0.000 C 
ATOM      3  C   UNL     1       6.561  -2.352  24.457  0.00  0.00    +0.000 C 
ATOM      4  C   UNL     1       5.767  -3.610  23.791  0.00  0.00    +0.000 C 
ATOM      5  C   UNL     1       5.806  -4.574  25.021  0.00  0.00    +0.000 C 
ATOM      6  C   UNL     1       7.245  -4.622  24.692  0.00  0.00    +0.000 C 
ATOM      7  C   UNL     1       8.059  -5.467  25.720  0.00  0.00    +0.000 C 
ATOM      8  C   UNL     1       7.313  -5.052  27.020  0.00  0.00    +0.000 C 
ATOM      9  C   UNL     1       5.904  -4.958  26.512  0.00  0.00    +0.000 C 
ATOM     10  C   UNL     1       5.099  -4.126  27.510  0.00  0.00    +0.000 C 
ATOM     11  C   UNL     1       4.418  -4.043  25.154  0.00  0.00    +0.000 C 
ATOM     12  C   UNL     1       4.390  -2.603  25.647  0.00  0.00    +0.000 C 
ATOM     13  C   UNL     1       5.704  -1.866  25.538  0.00  0.00    +0.000 C 
ATOM     14  C   UNL     1       5.447  -0.352  25.282  0.00  0.00    +0.000 C 
ATOM     15  O   UNL     1       6.302  -1.894  26.813  0.00  0.00    +0.000 OA
ENDROOT
BRANCH   1  17
ATOM     16  N   UNL     1       8.400  -1.508  23.372  0.00  0.00    +0.000 NA
ATOM     17  C   UNL     1       8.796  -2.802  23.810  0.00  0.00    +0.000 C 
ATOM     18  O   UNL     1       9.961  -2.976  24.029  0.00  0.00    +0.000 OA
BRANCH  16  19
ATOM     19  C   UNL     1       9.028  -0.412  24.063  0.00  0.00    +0.000 C 
BRANCH  19  25
ATOM     20  C   UNL     1       8.796   2.134  24.337  0.00  0.00    +0.000 C 
ATOM     21  C   UNL     1       9.112   3.302  23.358  0.00  0.00    +0.000 C 
ATOM     22  C   UNL     1       7.943   3.362  22.385  0.00  0.00    +0.000 C 
ATOM     23  C   UNL     1       7.411   2.201  21.812  0.00  0.00    +0.000 C 
ATOM     24  C   UNL     1       7.646   0.948  22.439  0.00  0.00    +0.000 C 
ATOM     25  C   UNL     1       8.632   0.895  23.478  0.00  0.00    +0.000 C 
ATOM     26  F   UNL     1       6.097   2.327  21.549  0.00  0.00    +0.000 F 
BRANCH  20  27
ATOM     27  N   UNL     1       7.505   2.460  24.935  0.00  0.00    +0.000 NA
BRANCH  27  29
ATOM     28  C   UNL     1       6.985   3.155  27.204  0.00  0.00    +0.000 C 
ATOM     29  C   UNL     1       7.746   3.472  25.928  0.00  0.00    +0.000 C 
ENDBRANCH  27  29
ENDBRANCH  20  27
ENDBRANCH  19  25
ENDBRANCH  16  19
ENDBRANCH   1  17
BRANCH   6  30
ATOM     30  C   UNL     1       7.614  -5.111  23.345  0.00  0.00    +0.000 C 
ATOM     31  O   UNL     1       6.890  -5.179  22.373  0.00  0.00    +0.000 OA
ATOM     32  O   UNL     1       8.670  -5.978  23.415  0.00  0.00    +0.000 OA
ENDBRANCH   6  30
BRANCH   9  33
ATOM     33  C   UNL     1       5.310  -6.402  26.539  0.00  0.00    +0.000 C 
ATOM     34  O   UNL     1       5.648  -6.940  27.794  0.00  0.00    +0.000 OA
ENDBRANCH   9  33
TORSDOF 7
ENDMDL
MODEL 9
REMARK VINA RESULT:      -7.1      2.414      4.310
REMARK  Name = 
REMARK  7 active torsions:
REMARK  status: ('A' for Active; 'I' for Inactive)
REMARK    1  A    between atoms: C_2  and  N_3
REMARK    2  A    between atoms: N_3  and  C_4
REMARK    3  A    between atoms: C_9  and  C_10
REMARK    4  A    between atoms: C_10  and  N_11
REMARK    5  A    between atoms: C_12  and  C_14
REMARK    6  A    between atoms: C_20  and  C_27
REMARK    7  A    between atoms: C_23  and  C_25
REMARK                            x       y       z     vdW  Elec       q    Type
REMARK                         _______ _______ _______ _____ _____    ______ ____
ROOT
ATOM      1  C   UNL     1       4.855  -4.765  24.650  0.00  0.00    +0.000 C 
ATOM      2  C   UNL     1       5.398  -6.046  24.250  0.00  0.00    +0.000 C 
ATOM      3  C   UNL     1       5.621  -3.835  25.580  0.00  0.00    +0.000 C 
ATOM      4  C   UNL     1       4.325  -3.412  26.474  0.00  0.00    +0.000 C 
ATOM      5  C   UNL     1       3.839  -4.848  26.855  0.00  0.00    +0.000 C 
ATOM      6  C   UNL     1       3.497  -4.903  25.419  0.00  0.00    +0.000 C 
ATOM      7  C   UNL     1       2.954  -6.303  24.994  0.00  0.00    +0.000 C 
ATOM      8  C   UNL     1       3.878  -7.198  25.867  0.00  0.00    +0.000 C 
ATOM      9  C   UNL     1       3.974  -6.363  27.112  0.00  0.00    +0.000 C 
ATOM     10  C   UNL     1       5.192  -6.840  27.903  0.00  0.00    +0.000 C 
ATOM     11  C   UNL     1       4.558  -4.478  28.109  0.00  0.00    +0.000 C 
ATOM     12  C   UNL     1       6.071  -4.491  27.938  0.00  0.00    +0.000 C 
ATOM     13  C   UNL     1       6.551  -4.480  26.506  0.00  0.00    +0.000 C 
ATOM     14  C   UNL     1       7.908  -3.724  26.404  0.00  0.00    +0.000 C 
ATOM     15  O   UNL     1       6.880  -5.808  26.170  0.00  0.00    +0.000 OA
ENDROOT
BRANCH   1  17
ATOM     16  N   UNL     1       5.765  -2.978  23.474  0.00  0.00    +0.000 NA
ATOM     17  C   UNL     1       4.694  -3.909  23.400  0.00  0.00    +0.000 C 
ATOM     18  O   UNL     1       4.503  -4.445  22.346  0.00  0.00    +0.000 OA
BRANCH  16  19
ATOM     19  C   UNL     1       6.974  -3.384  22.807  0.00  0.00    +0.000 C 
BRANCH  19  25
ATOM     20  C   UNL     1       8.984  -1.787  22.939  0.00  0.00    +0.000 C 
ATOM     21  C   UNL     1       9.902  -1.202  21.826  0.00  0.00    +0.000 C 
ATOM     22  C   UNL     1       9.117  -0.062  21.192  0.00  0.00    +0.000 C 
ATOM     23  C   UNL     1       7.762  -0.202  20.868  0.00  0.00    +0.000 C 
ATOM     24  C   UNL     1       6.998  -1.217  21.505  0.00  0.00    +0.000 C 
ATOM     25  C   UNL     1       7.704  -2.217  22.249  0.00  0.00    +0.000 C 
ATOM     26  F   UNL     1       7.102   0.969  20.950  0.00  0.00    +0.000 F 
BRANCH  20  27
ATOM     27  N   UNL     1       8.682  -0.670  23.828  0.00  0.00    +0.000 NA
BRANCH  27  29
ATOM     28  C   UNL     1      10.496   0.603  24.824  0.00  0.00    +0.000 C 
ATOM     29  C   UNL     1       9.679  -0.677  24.865  0.00  0.00    +0.000 C 
ENDBRANCH  27  29
ENDBRANCH  20  27
ENDBRANCH  19  25
ENDBRANCH  16  19
ENDBRANCH   1  17
BRANCH   6  30
ATOM     30  C   UNL     1       2.537  -3.896  24.915  0.00  0.00    +0.000 C 
ATOM     31  O   UNL     1       2.249  -2.840  25.439  0.00  0.00    +0.000 OA
ATOM     32  O   UNL     1       1.604  -4.481  24.102  0.00  0.00    +0.000 OA
ENDBRANCH   6  30
BRANCH   9  33
ATOM     33  C   UNL     1       2.715  -6.684  27.977  0.00  0.00    +0.000 C 
ATOM     34  O   UNL     1       3.184  -7.375  29.109  0.00  0.00    +0.000 OA
ENDBRANCH   9  33
TORSDOF 7
ENDMDL
