MODEL 1
REMARK VINA RESULT:      -6.7      0.000      0.000
REMARK  Name = 
REMARK  4 active torsions:
REMARK  status: ('A' for Active; 'I' for Inactive)
REMARK    1  A    between atoms: C_3  and  C_5
REMARK    2  A    between atoms: C_5  and  N_6
REMARK    3  A    between atoms: N_9  and  C_12
REMARK    4  A    between atoms: C_12  and  N_13
REMARK                            x       y       z     vdW  Elec       q    Type
REMARK                         _______ _______ _______ _____ _____    ______ ____
ROOT
ATOM      1  N   UNL     1       8.355   0.365  21.870  0.00  0.00    +0.000 NA
ATOM      2  C   UNL     1       9.688  -0.193  21.957  0.00  0.00    +0.000 C 
ATOM      3  C   UNL     1       9.764  -1.169  23.115  0.00  0.00    +0.000 C 
ATOM      4  N   UNL     1       9.013  -2.374  22.797  0.00  0.00    +0.000 NA
ATOM      5  C   UNL     1       7.758  -1.927  22.234  0.00  0.00    +0.000 C 
ATOM      6  C   UNL     1       7.510  -0.488  22.696  0.00  0.00    +0.000 C 
ENDROOT
BRANCH   1   7
ATOM      7  C   UNL     1       7.908   0.140  20.503  0.00  0.00    +0.000 C 
BRANCH   7  10
ATOM      8  C   UNL     1       5.828   0.629  17.985  0.00  0.00    +0.000 C 
ATOM      9  N   UNL     1       5.752   0.322  19.399  0.00  0.00    +0.000 NA
ATOM     10  C   UNL     1       6.621   0.895  20.258  0.00  0.00    +0.000 C 
ATOM     11  O   UNL     1       6.349   1.919  20.840  0.00  0.00    +0.000 OA
ENDBRANCH   7  10
ENDBRANCH   1   7
BRANCH   4  12
ATOM     12  C   UNL     1       8.733  -3.032  24.028  0.00  0.00    +0.000 C 
BRANCH  12  13
ATOM     13  N   UNL     1       8.986  -4.398  24.085  0.00  0.00    +0.000 NA
ATOM     14  C   UNL     1       7.831  -5.181  23.921  0.00  0.00    +0.000 C 
ATOM     15  C   UNL     1       6.971  -5.300  25.115  0.00  0.00    +0.000 C 
ATOM     16  N   UNL     1       7.556  -4.803  26.334  0.00  0.00    +0.000 N 
ATOM     17  C   UNL     1       8.987  -4.645  26.498  0.00  0.00    +0.000 C 
ATOM     18  C   UNL     1       9.731  -4.814  25.205  0.00  0.00    +0.000 C 
ATOM     19  C   UNL     1       6.819  -4.947  27.481  0.00  0.00    +0.000 C 
ATOM     20  O   UNL     1       7.018  -5.886  28.212  0.00  0.00    +0.000 OA
ATOM     21  N   UNL     1       5.611  -4.410  27.294  0.00  0.00    +0.000 NA
ATOM     22  C   UNL     1       4.769  -4.820  26.191  0.00  0.00    +0.000 C 
ENDBRANCH  12  13
ENDBRANCH   4  12
TORSDOF 4
ENDMDL
MODEL 2
REMARK VINA RESULT:      -6.6      1.749      7.813
REMARK  Name = 
REMARK  4 active torsions:
REMARK  status: ('A' for Active; 'I' for Inactive)
REMARK    1  A    between atoms: C_3  and  C_5
REMARK    2  A    between atoms: C_5  and  N_6
REMARK    3  A    between atoms: N_9  and  C_12
REMARK    4  A    between atoms: C_12  and  N_13
REMARK                            x       y       z     vdW  Elec       q    Type
REMARK                         _______ _______ _______ _____ _____    ______ ____
ROOT
ATOM      1  N   UNL     1       6.281  -4.115  24.863  0.00  0.00    +0.000 NA
ATOM      2  C   UNL     1       7.462  -4.158  24.026  0.00  0.00    +0.000 C 
ATOM      3  C   UNL     1       7.378  -3.084  22.958  0.00  0.00    +0.000 C 
ATOM      4  N   UNL     1       7.552  -1.772  23.561  0.00  0.00    +0.000 NA
ATOM      5  C   UNL     1       6.723  -1.762  24.747  0.00  0.00    +0.000 C 
ATOM      6  C   UNL     1       5.642  -2.834  24.585  0.00  0.00    +0.000 C 
ENDROOT
BRANCH   1   7
ATOM      7  C   UNL     1       6.759  -4.015  26.234  0.00  0.00    +0.000 C 
BRANCH   7  10
ATOM      8  C   UNL     1       4.623  -6.370  27.127  0.00  0.00    +0.000 C 
ATOM      9  N   UNL     1       5.891  -6.275  26.432  0.00  0.00    +0.000 NA
ATOM     10  C   UNL     1       6.822  -5.394  26.852  0.00  0.00    +0.000 C 
ATOM     11  O   UNL     1       7.689  -5.717  27.631  0.00  0.00    +0.000 OA
ENDBRANCH   7  10
ENDBRANCH   1   7
BRANCH   4  12
ATOM     12  C   UNL     1       7.025  -0.815  22.648  0.00  0.00    +0.000 C 
BRANCH  12  13
ATOM     13  N   UNL     1       7.824   0.285  22.357  0.00  0.00    +0.000 NA
ATOM     14  C   UNL     1       7.083   1.447  22.079  0.00  0.00    +0.000 C 
ATOM     15  C   UNL     1       6.504   1.519  20.724  0.00  0.00    +0.000 C 
ATOM     16  N   UNL     1       6.979   0.514  19.807  0.00  0.00    +0.000 N 
ATOM     17  C   UNL     1       8.225  -0.196  20.013  0.00  0.00    +0.000 C 
ATOM     18  C   UNL     1       8.806   0.058  21.375  0.00  0.00    +0.000 C 
ATOM     19  C   UNL     1       6.514   0.577  18.519  0.00  0.00    +0.000 C 
ATOM     20  O   UNL     1       7.171   1.124  17.668  0.00  0.00    +0.000 OA
ATOM     21  N   UNL     1       5.179   0.596  18.537  0.00  0.00    +0.000 NA
ATOM     22  C   UNL     1       4.451   1.585  19.302  0.00  0.00    +0.000 C 
ENDBRANCH  12  13
ENDBRANCH   4  12
TORSDOF 4
ENDMDL
MODEL 3
REMARK VINA RESULT:      -6.5      1.870      2.384
REMARK  Name = 
REMARK  4 active torsions:
REMARK  status: ('A' for Active; 'I' for Inactive)
REMARK    1  A    between atoms: C_3  and  C_5
REMARK    2  A    between atoms: C_5  and  N_6
REMARK    3  A    between atoms: N_9  and  C_12
REMARK    4  A    between atoms: C_12  and  N_13
REMARK                            x       y       z     vdW  Elec       q    Type
REMARK                         _______ _______ _______ _____ _____    ______ ____
ROOT
ATOM      1  N   UNL     1       7.275   0.367  20.640  0.00  0.00    +0.000 NA
ATOM      2  C   UNL     1       8.634  -0.121  20.743  0.00  0.00    +0.000 C 
ATOM      3  C   UNL     1       9.041  -0.212  22.202  0.00  0.00    +0.000 C 
ATOM      4  N   UNL     1       8.336  -1.311  22.844  0.00  0.00    +0.000 NA
ATOM      5  C   UNL     1       6.956  -1.203  22.423  0.00  0.00    +0.000 C 
ATOM      6  C   UNL     1       6.702   0.239  21.975  0.00  0.00    +0.000 C 
ENDROOT
BRANCH   1   7
ATOM      7  C   UNL     1       6.558  -0.599  19.821  0.00  0.00    +0.000 C 
BRANCH   7  10
ATOM      8  C   UNL     1       4.292   1.732  19.239  0.00  0.00    +0.000 C 
ATOM      9  N   UNL     1       5.626   1.390  18.785  0.00  0.00    +0.000 NA
ATOM     10  C   UNL     1       5.965   0.096  18.616  0.00  0.00    +0.000 C 
ATOM     11  O   UNL     1       5.857  -0.449  17.541  0.00  0.00    +0.000 OA
ENDBRANCH   7  10
ENDBRANCH   1   7
BRANCH   4  12
ATOM     12  C   UNL     1       8.386  -1.080  24.248  0.00  0.00    +0.000 C 
BRANCH  12  13
ATOM     13  N   UNL     1       9.155  -1.958  25.004  0.00  0.00    +0.000 NA
ATOM     14  C   UNL     1       9.527  -3.115  24.298  0.00  0.00    +0.000 C 
ATOM     15  C   UNL     1       8.480  -4.148  24.177  0.00  0.00    +0.000 C 
ATOM     16  N   UNL     1       7.318  -3.931  25.001  0.00  0.00    +0.000 N 
ATOM     17  C   UNL     1       7.346  -3.076  26.171  0.00  0.00    +0.000 C 
ATOM     18  C   UNL     1       8.615  -2.280  26.264  0.00  0.00    +0.000 C 
ATOM     19  C   UNL     1       6.345  -4.896  24.968  0.00  0.00    +0.000 C 
ATOM     20  O   UNL     1       6.318  -5.754  25.815  0.00  0.00    +0.000 OA
ATOM     21  N   UNL     1       5.982  -5.108  23.701  0.00  0.00    +0.000 NA
ATOM     22  C   UNL     1       6.957  -5.451  22.687  0.00  0.00    +0.000 C 
ENDBRANCH  12  13
ENDBRANCH   4  12
TORSDOF 4
ENDMDL
MODEL 4
REMARK VINA RESULT:      -6.4      2.746      3.076
REMARK  Name = 
REMARK  4 active torsions:
REMARK  status: ('A' for Active; 'I' for Inactive)
REMARK    1  A    between atoms: C_3  and  C_5
REMARK    2  A    between atoms: C_5  and  N_6
REMARK    3  A    between atoms: N_9  and  C_12
REMARK    4  A    between atoms: C_12  and  N_13
REMARK                            x       y       z     vdW  Elec       q    Type
REMARK                         _______ _______ _______ _____ _____    ______ ____
ROOT
ATOM      1  N   UNL     1      10.531   0.385  23.334  0.00  0.00    +0.000 NA
ATOM      2  C   UNL     1      10.329  -0.679  22.373  0.00  0.00    +0.000 C 
ATOM      3  C   UNL     1      10.109  -1.993  23.097  0.00  0.00    +0.000 C 
ATOM      4  N   UNL     1       8.804  -1.992  23.740  0.00  0.00    +0.000 NA
ATOM      5  C   UNL     1       8.682  -0.709  24.397  0.00  0.00    +0.000 C 
ATOM      6  C   UNL     1      10.089  -0.147  24.617  0.00  0.00    +0.000 C 
ENDROOT
BRANCH   1   7
ATOM      7  C   UNL     1       9.568   1.424  22.998  0.00  0.00    +0.000 C 
BRANCH   7  10
ATOM      8  C   UNL     1       8.178   4.310  23.802  0.00  0.00    +0.000 C 
ATOM      9  N   UNL     1       9.111   3.365  24.384  0.00  0.00    +0.000 NA
ATOM     10  C   UNL     1      10.011   2.740  23.597  0.00  0.00    +0.000 C 
ATOM     11  O   UNL     1      11.125   3.183  23.439  0.00  0.00    +0.000 OA
ENDBRANCH   7  10
ENDBRANCH   1   7
BRANCH   4  12
ATOM     12  C   UNL     1       8.829  -3.000  24.746  0.00  0.00    +0.000 C 
BRANCH  12  13
ATOM     13  N   UNL     1       8.943  -4.317  24.315  0.00  0.00    +0.000 NA
ATOM     14  C   UNL     1       7.837  -4.749  23.563  0.00  0.00    +0.000 C 
ATOM     15  C   UNL     1       6.642  -5.117  24.347  0.00  0.00    +0.000 C 
ATOM     16  N   UNL     1       6.856  -5.213  25.769  0.00  0.00    +0.000 N 
ATOM     17  C   UNL     1       8.173  -5.405  26.343  0.00  0.00    +0.000 C 
ATOM     18  C   UNL     1       9.266  -5.242  25.326  0.00  0.00    +0.000 C 
ATOM     19  C   UNL     1       5.790  -5.610  26.532  0.00  0.00    +0.000 C 
ATOM     20  O   UNL     1       5.676  -6.767  26.853  0.00  0.00    +0.000 OA
ATOM     21  N   UNL     1       4.747  -4.817  26.273  0.00  0.00    +0.000 NA
ATOM     22  C   UNL     1       4.260  -4.634  24.923  0.00  0.00    +0.000 C 
ENDBRANCH  12  13
ENDBRANCH   4  12
TORSDOF 4
ENDMDL
MODEL 5
REMARK VINA RESULT:      -6.4      1.975      7.139
REMARK  Name = 
REMARK  4 active torsions:
REMARK  status: ('A' for Active; 'I' for Inactive)
REMARK    1  A    between atoms: C_3  and  C_5
REMARK    2  A    between atoms: C_5  and  N_6
REMARK    3  A    between atoms: N_9  and  C_12
REMARK    4  A    between atoms: C_12  and  N_13
REMARK                            x       y       z     vdW  Elec       q    Type
REMARK                         _______ _______ _______ _____ _____    ______ ____
ROOT
ATOM      1  N   UNL     1       6.634  -4.644  24.171  0.00  0.00    +0.000 NA
ATOM      2  C   UNL     1       7.003  -4.847  22.785  0.00  0.00    +0.000 C 
ATOM      3  C   UNL     1       6.765  -3.574  21.996  0.00  0.00    +0.000 C 
ATOM      4  N   UNL     1       7.749  -2.569  22.368  0.00  0.00    +0.000 NA
ATOM      5  C   UNL     1       7.818  -2.591  23.813  0.00  0.00    +0.000 C 
ATOM      6  C   UNL     1       6.519  -3.202  24.346  0.00  0.00    +0.000 C 
ENDROOT
BRANCH   1   7
ATOM      7  C   UNL     1       7.793  -5.035  24.961  0.00  0.00    +0.000 C 
BRANCH   7  10
ATOM      8  C   UNL     1       5.202  -6.094  26.714  0.00  0.00    +0.000 C 
ATOM      9  N   UNL     1       6.648  -6.194  26.762  0.00  0.00    +0.000 NA
ATOM     10  C   UNL     1       7.405  -5.132  26.419  0.00  0.00    +0.000 C 
ATOM     11  O   UNL     1       7.797  -4.343  27.248  0.00  0.00    +0.000 OA
ENDBRANCH   7  10
ENDBRANCH   1   7
BRANCH   4  12
ATOM     12  C   UNL     1       7.229  -1.304  21.972  0.00  0.00    +0.000 C 
BRANCH  12  13
ATOM     13  N   UNL     1       7.941  -0.605  21.004  0.00  0.00    +0.000 NA
ATOM     14  C   UNL     1       9.328  -0.605  21.231  0.00  0.00    +0.000 C 
ATOM     15  C   UNL     1       9.802   0.347  22.254  0.00  0.00    +0.000 C 
ATOM     16  N   UNL     1       8.818   1.302  22.695  0.00  0.00    +0.000 N 
ATOM     17  C   UNL     1       7.645   1.627  21.907  0.00  0.00    +0.000 C 
ATOM     18  C   UNL     1       7.465   0.694  20.744  0.00  0.00    +0.000 C 
ATOM     19  C   UNL     1       9.228   2.245  23.601  0.00  0.00    +0.000 C 
ATOM     20  O   UNL     1       9.568   3.338  23.221  0.00  0.00    +0.000 OA
ATOM     21  N   UNL     1       9.782   1.632  24.650  0.00  0.00    +0.000 NA
ATOM     22  C   UNL     1      10.873   0.696  24.484  0.00  0.00    +0.000 C 
ENDBRANCH  12  13
ENDBRANCH   4  12
TORSDOF 4
ENDMDL
MODEL 6
REMARK VINA RESULT:      -6.2      1.732      7.529
REMARK  Name = 
REMARK  4 active torsions:
REMARK  status: ('A' for Active; 'I' for Inactive)
REMARK    1  A    between atoms: C_3  and  C_5
REMARK    2  A    between atoms: C_5  and  N_6
REMARK    3  A    between atoms: N_9  and  C_12
REMARK    4  A    between atoms: C_12  and  N_13
REMARK                            x       y       z     vdW  Elec       q    Type
REMARK                         _______ _______ _______ _____ _____    ______ ____
ROOT
ATOM      1  N   UNL     1       6.900  -5.530  26.048  0.00  0.00    +0.000 NA
ATOM      2  C   UNL     1       8.338  -5.391  26.148  0.00  0.00    +0.000 C 
ATOM      3  C   UNL     1       8.821  -4.329  25.179  0.00  0.00    +0.000 C 
ATOM      4  N   UNL     1       8.415  -3.012  25.646  0.00  0.00    +0.000 NA
ATOM      5  C   UNL     1       7.028  -3.137  26.040  0.00  0.00    +0.000 C 
ATOM      6  C   UNL     1       6.434  -4.354  25.325  0.00  0.00    +0.000 C 
ENDROOT
BRANCH   1   7
ATOM      7  C   UNL     1       6.383  -5.378  27.401  0.00  0.00    +0.000 C 
BRANCH   7  10
ATOM      8  C   UNL     1       3.235  -6.321  27.074  0.00  0.00    +0.000 C 
ATOM      9  N   UNL     1       4.554  -6.895  26.899  0.00  0.00    +0.000 NA
ATOM     10  C   UNL     1       5.542  -6.582  27.762  0.00  0.00    +0.000 C 
ATOM     11  O   UNL     1       5.773  -7.266  28.732  0.00  0.00    +0.000 OA
ENDBRANCH   7  10
ENDBRANCH   1   7
BRANCH   4  12
ATOM     12  C   UNL     1       8.476  -2.132  24.528  0.00  0.00    +0.000 C 
BRANCH  12  13
ATOM     13  N   UNL     1       8.905  -2.674  23.322  0.00  0.00    +0.000 NA
ATOM     14  C   UNL     1      10.023  -2.012  22.785  0.00  0.00    +0.000 C 
ATOM     15  C   UNL     1       9.735  -0.737  22.100  0.00  0.00    +0.000 C 
ATOM     16  N   UNL     1       8.338  -0.475  21.868  0.00  0.00    +0.000 N 
ATOM     17  C   UNL     1       7.343  -1.529  21.860  0.00  0.00    +0.000 C 
ATOM     18  C   UNL     1       7.894  -2.836  22.355  0.00  0.00    +0.000 C 
ATOM     19  C   UNL     1       8.025   0.669  21.182  0.00  0.00    +0.000 C 
ATOM     20  O   UNL     1       7.826   0.623  19.993  0.00  0.00    +0.000 OA
ATOM     21  N   UNL     1       8.598   1.712  21.788  0.00  0.00    +0.000 NA
ATOM     22  C   UNL     1      10.022   1.744  22.043  0.00  0.00    +0.000 C 
ENDBRANCH  12  13
ENDBRANCH   4  12
TORSDOF 4
ENDMDL
MODEL 7
REMARK VINA RESULT:      -6.2      2.504      3.511
REMARK  Name = 
REMARK  4 active torsions:
REMARK  status: ('A' for Active; 'I' for Inactive)
REMARK    1  A    between atoms: C_3  and  C_5
REMARK    2  A    between atoms: C_5  and  N_6
REMARK    3  A    between atoms: N_9  and  C_12
REMARK    4  A    between atoms: C_12  and  N_13
REMARK                            x       y       z     vdW  Elec       q    Type
REMARK                         _______ _______ _______ _____ _____    ______ ____
ROOT
ATOM      1  N   UNL     1      10.258   0.776  22.800  0.00  0.00    +0.000 NA
ATOM      2  C   UNL     1       9.146   0.843  21.874  0.00  0.00    +0.000 C 
ATOM      3  C   UNL     1       8.717  -0.557  21.480  0.00  0.00    +0.000 C 
ATOM      4  N   UNL     1       8.062  -1.208  22.605  0.00  0.00    +0.000 NA
ATOM      5  C   UNL     1       8.889  -0.941  23.761  0.00  0.00    +0.000 C 
ATOM      6  C   UNL     1      10.300  -0.602  23.273  0.00  0.00    +0.000 C 
ENDROOT
BRANCH   1   7
ATOM      7  C   UNL     1       9.870   1.568  23.958  0.00  0.00    +0.000 C 
BRANCH   7  10
ATOM      8  C   UNL     1       8.090   4.216  23.108  0.00  0.00    +0.000 C 
ATOM      9  N   UNL     1       9.142   3.883  24.047  0.00  0.00    +0.000 NA
ATOM     10  C   UNL     1      10.123   3.033  23.681  0.00  0.00    +0.000 C 
ATOM     11  O   UNL     1      11.166   3.434  23.217  0.00  0.00    +0.000 OA
ENDBRANCH   7  10
ENDBRANCH   1   7
BRANCH   4  12
ATOM     12  C   UNL     1       8.093  -2.610  22.357  0.00  0.00    +0.000 C 
BRANCH  12  13
ATOM     13  N   UNL     1       6.870  -3.247  22.186  0.00  0.00    +0.000 NA
ATOM     14  C   UNL     1       5.889  -2.813  23.094  0.00  0.00    +0.000 C 
ATOM     15  C   UNL     1       5.986  -3.381  24.452  0.00  0.00    +0.000 C 
ATOM     16  N   UNL     1       6.914  -4.475  24.585  0.00  0.00    +0.000 N 
ATOM     17  C   UNL     1       7.355  -5.261  23.450  0.00  0.00    +0.000 C 
ATOM     18  C   UNL     1       6.938  -4.653  22.142  0.00  0.00    +0.000 C 
ATOM     19  C   UNL     1       6.995  -5.076  25.815  0.00  0.00    +0.000 C 
ATOM     20  O   UNL     1       6.364  -6.079  26.038  0.00  0.00    +0.000 OA
ATOM     21  N   UNL     1       7.239  -4.145  26.741  0.00  0.00    +0.000 NA
ATOM     22  C   UNL     1       6.383  -2.987  26.886  0.00  0.00    +0.000 C 
ENDBRANCH  12  13
ENDBRANCH   4  12
TORSDOF 4
ENDMDL
MODEL 8
REMARK VINA RESULT:      -6.0      3.265      6.385
REMARK  Name = 
REMARK  4 active torsions:
REMARK  status: ('A' for Active; 'I' for Inactive)
REMARK    1  A    between atoms: C_3  and  C_5
REMARK    2  A    between atoms: C_5  and  N_6
REMARK    3  A    between atoms: N_9  and  C_12
REMARK    4  A    between atoms: C_12  and  N_13
REMARK                            x       y       z     vdW  Elec       q    Type
REMARK                         _______ _______ _______ _____ _____    ______ ____
ROOT
ATOM      1  N   UNL     1       4.893  -5.428  22.594  0.00  0.00    +0.000 NA
ATOM      2  C   UNL     1       6.196  -5.856  22.129  0.00  0.00    +0.000 C 
ATOM      3  C   UNL     1       7.006  -4.653  21.684  0.00  0.00    +0.000 C 
ATOM      4  N   UNL     1       7.404  -3.869  22.843  0.00  0.00    +0.000 NA
ATOM      5  C   UNL     1       6.224  -3.752  23.673  0.00  0.00    +0.000 C 
ATOM      6  C   UNL     1       4.994  -3.987  22.793  0.00  0.00    +0.000 C 
ENDROOT
BRANCH   1   7
ATOM      7  C   UNL     1       4.733  -5.989  23.927  0.00  0.00    +0.000 C 
BRANCH   7  10
ATOM      8  C   UNL     1       1.457  -5.716  23.610  0.00  0.00    +0.000 C 
ATOM      9  N   UNL     1       2.517  -6.582  23.130  0.00  0.00    +0.000 NA
ATOM     10  C   UNL     1       3.535  -6.912  23.950  0.00  0.00    +0.000 C 
ATOM     11  O   UNL     1       3.509  -7.923  24.614  0.00  0.00    +0.000 OA
ENDBRANCH   7  10
ENDBRANCH   1   7
BRANCH   4  12
ATOM     12  C   UNL     1       7.741  -2.567  22.375  0.00  0.00    +0.000 C 
BRANCH  12  13
ATOM     13  N   UNL     1       9.092  -2.238  22.346  0.00  0.00    +0.000 NA
ATOM     14  C   UNL     1       9.720  -2.375  23.596  0.00  0.00    +0.000 C 
ATOM     15  C   UNL     1       9.481  -1.275  24.550  0.00  0.00    +0.000 C 
ATOM     16  N   UNL     1       8.844  -0.112  23.986  0.00  0.00    +0.000 N 
ATOM     17  C   UNL     1       8.861   0.167  22.564  0.00  0.00    +0.000 C 
ATOM     18  C   UNL     1       9.383  -0.990  21.762  0.00  0.00    +0.000 C 
ATOM     19  C   UNL     1       8.656   0.959  24.819  0.00  0.00    +0.000 C 
ATOM     20  O   UNL     1       9.452   1.865  24.827  0.00  0.00    +0.000 OA
ATOM     21  N   UNL     1       7.999   0.554  25.910  0.00  0.00    +0.000 NA
ATOM     22  C   UNL     1       8.493  -0.537  26.722  0.00  0.00    +0.000 C 
ENDBRANCH  12  13
ENDBRANCH   4  12
TORSDOF 4
ENDMDL
MODEL 9
REMARK VINA RESULT:      -6.0      1.982      3.018
REMARK  Name = 
REMARK  4 active torsions:
REMARK  status: ('A' for Active; 'I' for Inactive)
REMARK    1  A    between atoms: C_3  and  C_5
REMARK    2  A    between atoms: C_5  and  N_6
REMARK    3  A    between atoms: N_9  and  C_12
REMARK    4  A    between atoms: C_12  and  N_13
REMARK                            x       y       z     vdW  Elec       q    Type
REMARK                         _______ _______ _______ _____ _____    ______ ____
ROOT
ATOM      1  N   UNL     1       7.483  -1.842  22.102  0.00  0.00    +0.000 NA
ATOM      2  C   UNL     1       6.263  -2.551  21.777  0.00  0.00    +0.000 C 
ATOM      3  C   UNL     1       5.937  -3.546  22.873  0.00  0.00    +0.000 C 
ATOM      4  N   UNL     1       5.500  -2.840  24.068  0.00  0.00    +0.000 NA
ATOM      5  C   UNL     1       6.433  -1.751  24.255  0.00  0.00    +0.000 C 
ATOM      6  C   UNL     1       7.729  -2.097  23.516  0.00  0.00    +0.000 C 
ENDROOT
BRANCH   1   7
ATOM      7  C   UNL     1       7.163  -0.424  22.019  0.00  0.00    +0.000 C 
BRANCH   7  10
ATOM      8  C   UNL     1       9.958   1.335  22.032  0.00  0.00    +0.000 C 
ATOM      9  N   UNL     1       9.379   0.239  21.280  0.00  0.00    +0.000 NA
ATOM     10  C   UNL     1       8.060   0.241  20.999  0.00  0.00    +0.000 C 
ATOM     11  O   UNL     1       7.637   0.695  19.961  0.00  0.00    +0.000 OA
ENDBRANCH   7  10
ENDBRANCH   1   7
BRANCH   4  12
ATOM     12  C   UNL     1       5.646  -3.737  25.165  0.00  0.00    +0.000 C 
BRANCH  12  13
ATOM     13  N   UNL     1       6.210  -4.978  24.892  0.00  0.00    +0.000 NA
ATOM     14  C   UNL     1       5.313  -6.045  25.078  0.00  0.00    +0.000 C 
ATOM     15  C   UNL     1       5.101  -6.457  26.479  0.00  0.00    +0.000 C 
ATOM     16  N   UNL     1       6.018  -5.877  27.427  0.00  0.00    +0.000 N 
ATOM     17  C   UNL     1       7.301  -5.333  27.030  0.00  0.00    +0.000 C 
ATOM     18  C   UNL     1       7.437  -5.224  25.539  0.00  0.00    +0.000 C 
ATOM     19  C   UNL     1       5.899  -6.277  28.732  0.00  0.00    +0.000 C 
ATOM     20  O   UNL     1       6.604  -7.157  29.160  0.00  0.00    +0.000 OA
ATOM     21  N   UNL     1       4.638  -6.091  29.133  0.00  0.00    +0.000 NA
ATOM     22  C   UNL     1       3.526  -6.666  28.407  0.00  0.00    +0.000 C 
ENDBRANCH  12  13
ENDBRANCH   4  12
TORSDOF 4
ENDMDL
