MODEL 1
REMARK VINA RESULT:      -7.5      0.000      0.000
REMARK  Name = 
REMARK  6 active torsions:
REMARK  status: ('A' for Active; 'I' for Inactive)
REMARK    1  A    between atoms: C_2  and  N_3
REMARK    2  A    between atoms: N_3  and  C_4
REMARK    3  A    between atoms: C_9  and  C_10
REMARK    4  A    between atoms: C_10  and  N_11
REMARK    5  A    between atoms: C_12  and  C_14
REMARK    6  A    between atoms: C_16  and  C_27
REMARK                            x       y       z     vdW  Elec       q    Type
REMARK                         _______ _______ _______ _____ _____    ______ ____
ROOT
ATOM      1  C   UNL     1       6.603  -3.487  26.015  0.00  0.00    +0.000 C 
ATOM      2  C   UNL     1       6.104  -2.059  26.206  0.00  0.00    +0.000 C 
ATOM      3  C   UNL     1       5.994  -4.354  27.128  0.00  0.00    +0.000 C 
ATOM      4  C   UNL     1       4.703  -3.761  27.707  0.00  0.00    +0.000 C 
ATOM      5  C   UNL     1       3.801  -4.436  26.486  0.00  0.00    +0.000 C 
ATOM      6  C   UNL     1       5.037  -5.063  25.813  0.00  0.00    +0.000 C 
ATOM      7  C   UNL     1       5.756  -4.212  24.954  0.00  0.00    +0.000 C 
ATOM      8  C   UNL     1       4.924  -3.061  24.197  0.00  0.00    +0.000 C 
ATOM      9  C   UNL     1       5.936  -3.390  22.874  0.00  0.00    +0.000 C 
ATOM     10  C   UNL     1       6.453  -4.685  23.715  0.00  0.00    +0.000 C 
ATOM     11  C   UNL     1       5.717  -5.849  23.100  0.00  0.00    +0.000 C 
ATOM     12  O   UNL     1       7.777  -4.775  23.698  0.00  0.00    +0.000 OA
ATOM     13  C   UNL     1       5.222  -6.464  25.961  0.00  0.00    +0.000 C 
ENDROOT
BRANCH   1  15
ATOM     14  N   UNL     1       8.540  -2.548  25.183  0.00  0.00    +0.000 NA
ATOM     15  C   UNL     1       8.023  -3.582  25.869  0.00  0.00    +0.000 C 
ATOM     16  O   UNL     1       8.577  -3.966  26.888  0.00  0.00    +0.000 OA
BRANCH  14  17
ATOM     17  C   UNL     1       7.920  -1.274  25.058  0.00  0.00    +0.000 C 
BRANCH  17  23
ATOM     18  C   UNL     1       8.394  -0.667  22.610  0.00  0.00    +0.000 C 
ATOM     19  C   UNL     1       9.597  -0.287  21.779  0.00  0.00    +0.000 C 
ATOM     20  C   UNL     1      10.087   1.094  22.182  0.00  0.00    +0.000 C 
ATOM     21  C   UNL     1       9.832   1.610  23.462  0.00  0.00    +0.000 C 
ATOM     22  C   UNL     1       9.445   0.678  24.477  0.00  0.00    +0.000 C 
ATOM     23  C   UNL     1       8.601  -0.400  24.056  0.00  0.00    +0.000 C 
ATOM     24  F   UNL     1      10.822   2.391  23.913  0.00  0.00    +0.000 F 
BRANCH  18  25
ATOM     25  N   UNL     1       7.225  -0.008  22.101  0.00  0.00    +0.000 NA
BRANCH  25  27
ATOM     26  C   UNL     1       6.617   0.699  19.867  0.00  0.00    +0.000 C 
ATOM     27  C   UNL     1       6.996  -0.471  20.759  0.00  0.00    +0.000 C 
ENDBRANCH  25  27
ENDBRANCH  18  25
ENDBRANCH  17  23
ENDBRANCH  14  17
ENDBRANCH   1  15
BRANCH   3  28
ATOM     28  C   UNL     1       6.597  -5.374  27.788  0.00  0.00    +0.000 C 
ATOM     29  O   UNL     1       7.448  -6.030  27.278  0.00  0.00    +0.000 OA
ATOM     30  O   UNL     1       6.351  -5.460  29.123  0.00  0.00    +0.000 OA
ENDBRANCH   3  28
TORSDOF 6
ENDMDL
MODEL 2
REMARK VINA RESULT:      -7.4      1.992      2.896
REMARK  Name = 
REMARK  6 active torsions:
REMARK  status: ('A' for Active; 'I' for Inactive)
REMARK    1  A    between atoms: C_2  and  N_3
REMARK    2  A    between atoms: N_3  and  C_4
REMARK    3  A    between atoms: C_9  and  C_10
REMARK    4  A    between atoms: C_10  and  N_11
REMARK    5  A    between atoms: C_12  and  C_14
REMARK    6  A    between atoms: C_16  and  C_27
REMARK                            x       y       z     vdW  Elec       q    Type
REMARK                         _______ _______ _______ _____ _____    ______ ____
ROOT
ATOM      1  C   UNL     1       5.290  -3.600  24.187  0.00  0.00    +0.000 C 
ATOM      2  C   UNL     1       5.317  -3.365  22.680  0.00  0.00    +0.000 C 
ATOM      3  C   UNL     1       4.181  -4.620  24.487  0.00  0.00    +0.000 C 
ATOM      4  C   UNL     1       3.839  -5.503  23.280  0.00  0.00    +0.000 C 
ATOM      5  C   UNL     1       5.089  -6.537  23.636  0.00  0.00    +0.000 C 
ATOM      6  C   UNL     1       5.526  -5.714  24.862  0.00  0.00    +0.000 C 
ATOM      7  C   UNL     1       6.369  -4.621  24.588  0.00  0.00    +0.000 C 
ATOM      8  C   UNL     1       7.345  -4.750  23.314  0.00  0.00    +0.000 C 
ATOM      9  C   UNL     1       8.483  -3.936  24.277  0.00  0.00    +0.000 C 
ATOM     10  C   UNL     1       7.451  -4.158  25.516  0.00  0.00    +0.000 C 
ATOM     11  C   UNL     1       8.029  -5.321  26.282  0.00  0.00    +0.000 C 
ATOM     12  O   UNL     1       7.286  -3.041  26.214  0.00  0.00    +0.000 OA
ATOM     13  C   UNL     1       5.208  -6.232  26.146  0.00  0.00    +0.000 C 
ENDROOT
BRANCH   1  15
ATOM     14  N   UNL     1       6.015  -1.423  24.438  0.00  0.00    +0.000 NA
ATOM     15  C   UNL     1       5.240  -2.394  24.953  0.00  0.00    +0.000 C 
ATOM     16  O   UNL     1       4.111  -2.123  25.334  0.00  0.00    +0.000 OA
BRANCH  14  17
ATOM     17  C   UNL     1       6.423  -1.356  23.077  0.00  0.00    +0.000 C 
BRANCH  17  23
ATOM     18  C   UNL     1       8.216  -0.384  21.520  0.00  0.00    +0.000 C 
ATOM     19  C   UNL     1       9.716  -0.202  21.542  0.00  0.00    +0.000 C 
ATOM     20  C   UNL     1      10.094   0.844  22.577  0.00  0.00    +0.000 C 
ATOM     21  C   UNL     1       9.263   1.111  23.677  0.00  0.00    +0.000 C 
ATOM     22  C   UNL     1       8.269   0.133  23.996  0.00  0.00    +0.000 C 
ATOM     23  C   UNL     1       7.647  -0.523  22.885  0.00  0.00    +0.000 C 
ATOM     24  F   UNL     1       9.951   1.441  24.778  0.00  0.00    +0.000 F 
BRANCH  18  25
ATOM     25  N   UNL     1       7.608   0.689  20.787  0.00  0.00    +0.000 NA
BRANCH  25  27
ATOM     26  C   UNL     1       6.076  -0.483  19.326  0.00  0.00    +0.000 C 
ATOM     27  C   UNL     1       7.402   0.249  19.434  0.00  0.00    +0.000 C 
ENDBRANCH  25  27
ENDBRANCH  18  25
ENDBRANCH  17  23
ENDBRANCH  14  17
ENDBRANCH   1  15
BRANCH   3  28
ATOM     28  C   UNL     1       3.343  -4.624  25.554  0.00  0.00    +0.000 C 
ATOM     29  O   UNL     1       3.675  -4.180  26.608  0.00  0.00    +0.000 OA
ATOM     30  O   UNL     1       2.044  -4.939  25.305  0.00  0.00    +0.000 OA
ENDBRANCH   3  28
TORSDOF 6
ENDMDL
MODEL 3
REMARK VINA RESULT:      -7.4      2.187      3.319
REMARK  Name = 
REMARK  6 active torsions:
REMARK  status: ('A' for Active; 'I' for Inactive)
REMARK    1  A    between atoms: C_2  and  N_3
REMARK    2  A    between atoms: N_3  and  C_4
REMARK    3  A    between atoms: C_9  and  C_10
REMARK    4  A    between atoms: C_10  and  N_11
REMARK    5  A    between atoms: C_12  and  C_14
REMARK    6  A    between atoms: C_16  and  C_27
REMARK                            x       y       z     vdW  Elec       q    Type
REMARK                         _______ _______ _______ _____ _____    ______ ____
ROOT
ATOM      1  C   UNL     1       6.192  -3.831  24.539  0.00  0.00    +0.000 C 
ATOM      2  C   UNL     1       5.677  -2.402  24.404  0.00  0.00    +0.000 C 
ATOM      3  C   UNL     1       6.787  -3.988  25.947  0.00  0.00    +0.000 C 
ATOM      4  C   UNL     1       6.219  -2.977  26.952  0.00  0.00    +0.000 C 
ATOM      5  C   UNL     1       4.902  -3.947  27.240  0.00  0.00    +0.000 C 
ATOM      6  C   UNL     1       5.374  -5.020  26.241  0.00  0.00    +0.000 C 
ATOM      7  C   UNL     1       5.038  -4.785  24.895  0.00  0.00    +0.000 C 
ATOM      8  C   UNL     1       3.685  -3.959  24.612  0.00  0.00    +0.000 C 
ATOM      9  C   UNL     1       3.476  -5.018  23.300  0.00  0.00    +0.000 C 
ATOM     10  C   UNL     1       4.714  -5.875  23.920  0.00  0.00    +0.000 C 
ATOM     11  C   UNL     1       4.053  -7.036  24.619  0.00  0.00    +0.000 C 
ATOM     12  O   UNL     1       5.594  -6.201  22.981  0.00  0.00    +0.000 OA
ATOM     13  C   UNL     1       5.920  -6.218  26.776  0.00  0.00    +0.000 C 
ENDROOT
BRANCH   1  15
ATOM     14  N   UNL     1       6.652  -3.731  22.280  0.00  0.00    +0.000 NA
ATOM     15  C   UNL     1       7.043  -4.236  23.463  0.00  0.00    +0.000 C 
ATOM     16  O   UNL     1       8.227  -4.216  23.765  0.00  0.00    +0.000 OA
BRANCH  14  17
ATOM     17  C   UNL     1       5.861  -2.560  22.126  0.00  0.00    +0.000 C 
BRANCH  17  23
ATOM     18  C   UNL     1       7.633  -0.784  21.587  0.00  0.00    +0.000 C 
ATOM     19  C   UNL     1       7.671   0.571  20.919  0.00  0.00    +0.000 C 
ATOM     20  C   UNL     1       7.417   0.420  19.429  0.00  0.00    +0.000 C 
ATOM     21  C   UNL     1       6.702  -0.677  18.922  0.00  0.00    +0.000 C 
ATOM     22  C   UNL     1       5.909  -1.424  19.849  0.00  0.00    +0.000 C 
ATOM     23  C   UNL     1       6.458  -1.587  21.163  0.00  0.00    +0.000 C 
ATOM     24  F   UNL     1       5.970  -0.364  17.845  0.00  0.00    +0.000 F 
BRANCH  18  25
ATOM     25  N   UNL     1       8.871  -1.473  21.356  0.00  0.00    +0.000 NA
BRANCH  25  27
ATOM     26  C   UNL     1       9.518  -1.033  23.647  0.00  0.00    +0.000 C 
ATOM     27  C   UNL     1       9.882  -0.869  22.181  0.00  0.00    +0.000 C 
ENDBRANCH  25  27
ENDBRANCH  18  25
ENDBRANCH  17  23
ENDBRANCH  14  17
ENDBRANCH   1  15
BRANCH   3  28
ATOM     28  C   UNL     1       7.889  -4.700  26.292  0.00  0.00    +0.000 C 
ATOM     29  O   UNL     1       8.092  -5.787  25.852  0.00  0.00    +0.000 OA
ATOM     30  O   UNL     1       8.857  -4.027  26.970  0.00  0.00    +0.000 OA
ENDBRANCH   3  28
TORSDOF 6
ENDMDL
MODEL 4
REMARK VINA RESULT:      -7.4      3.067      6.973
REMARK  Name = 
REMARK  6 active torsions:
REMARK  status: ('A' for Active; 'I' for Inactive)
REMARK    1  A    between atoms: C_2  and  N_3
REMARK    2  A    between atoms: N_3  and  C_4
REMARK    3  A    between atoms: C_9  and  C_10
REMARK    4  A    between atoms: C_10  and  N_11
REMARK    5  A    between atoms: C_12  and  C_14
REMARK    6  A    between atoms: C_16  and  C_27
REMARK                            x       y       z     vdW  Elec       q    Type
REMARK                         _______ _______ _______ _____ _____    ______ ____
ROOT
ATOM      1  C   UNL     1       7.602  -0.484  23.216  0.00  0.00    +0.000 C 
ATOM      2  C   UNL     1       6.286  -0.430  23.983  0.00  0.00    +0.000 C 
ATOM      3  C   UNL     1       7.527   0.539  22.073  0.00  0.00    +0.000 C 
ATOM      4  C   UNL     1       6.513   1.659  22.340  0.00  0.00    +0.000 C 
ATOM      5  C   UNL     1       7.631   2.511  23.225  0.00  0.00    +0.000 C 
ATOM      6  C   UNL     1       8.719   1.439  23.030  0.00  0.00    +0.000 C 
ATOM      7  C   UNL     1       8.674   0.358  23.930  0.00  0.00    +0.000 C 
ATOM      8  C   UNL     1       8.089   0.655  25.400  0.00  0.00    +0.000 C 
ATOM      9  C   UNL     1       9.295  -0.410  25.945  0.00  0.00    +0.000 C 
ATOM     10  C   UNL     1       9.894  -0.352  24.433  0.00  0.00    +0.000 C 
ATOM     11  C   UNL     1      11.062   0.597  24.528  0.00  0.00    +0.000 C 
ATOM     12  O   UNL     1      10.182  -1.566  23.980  0.00  0.00    +0.000 OA
ATOM     13  C   UNL     1       9.763   1.725  22.110  0.00  0.00    +0.000 C 
ENDROOT
BRANCH   1  15
ATOM     14  N   UNL     1       7.723  -2.717  23.787  0.00  0.00    +0.000 NA
ATOM     15  C   UNL     1       7.986  -1.807  22.832  0.00  0.00    +0.000 C 
ATOM     16  O   UNL     1       7.712  -2.059  21.669  0.00  0.00    +0.000 OA
BRANCH  14  17
ATOM     17  C   UNL     1       6.745  -2.554  24.807  0.00  0.00    +0.000 C 
BRANCH  17  23
ATOM     18  C   UNL     1       5.362  -4.711  24.670  0.00  0.00    +0.000 C 
ATOM     19  C   UNL     1       4.489  -5.524  25.598  0.00  0.00    +0.000 C 
ATOM     20  C   UNL     1       5.345  -6.179  26.669  0.00  0.00    +0.000 C 
ATOM     21  C   UNL     1       6.581  -5.632  27.047  0.00  0.00    +0.000 C 
ATOM     22  C   UNL     1       6.832  -4.271  26.682  0.00  0.00    +0.000 C 
ATOM     23  C   UNL     1       6.323  -3.854  25.410  0.00  0.00    +0.000 C 
ATOM     24  F   UNL     1       6.854  -5.815  28.345  0.00  0.00    +0.000 F 
BRANCH  18  25
ATOM     25  N   UNL     1       6.020  -5.581  23.738  0.00  0.00    +0.000 NA
BRANCH  25  27
ATOM     26  C   UNL     1       6.553  -5.719  21.380  0.00  0.00    +0.000 C 
ATOM     27  C   UNL     1       5.537  -5.275  22.419  0.00  0.00    +0.000 C 
ENDBRANCH  25  27
ENDBRANCH  18  25
ENDBRANCH  17  23
ENDBRANCH  14  17
ENDBRANCH   1  15
BRANCH   3  28
ATOM     28  C   UNL     1       8.030   0.402  20.820  0.00  0.00    +0.000 C 
ATOM     29  O   UNL     1       9.008  -0.243  20.609  0.00  0.00    +0.000 OA
ATOM     30  O   UNL     1       7.243   0.836  19.800  0.00  0.00    +0.000 OA
ENDBRANCH   3  28
TORSDOF 6
ENDMDL
MODEL 5
REMARK VINA RESULT:      -7.3      3.674      7.132
REMARK  Name = 
REMARK  6 active torsions:
REMARK  status: ('A' for Active; 'I' for Inactive)
REMARK    1  A    between atoms: C_2  and  N_3
REMARK    2  A    between atoms: N_3  and  C_4
REMARK    3  A    between atoms: C_9  and  C_10
REMARK    4  A    between atoms: C_10  and  N_11
REMARK    5  A    between atoms: C_12  and  C_14
REMARK    6  A    between atoms: C_16  and  C_27
REMARK                            x       y       z     vdW  Elec       q    Type
REMARK                         _______ _______ _______ _____ _____    ______ ____
ROOT
ATOM      1  C   UNL     1       7.390   0.651  23.417  0.00  0.00    +0.000 C 
ATOM      2  C   UNL     1       6.262  -0.031  24.183  0.00  0.00    +0.000 C 
ATOM      3  C   UNL     1       7.185   2.170  23.525  0.00  0.00    +0.000 C 
ATOM      4  C   UNL     1       6.351   2.574  24.748  0.00  0.00    +0.000 C 
ATOM      5  C   UNL     1       7.696   2.539  25.722  0.00  0.00    +0.000 C 
ATOM      6  C   UNL     1       8.621   2.116  24.565  0.00  0.00    +0.000 C 
ATOM      7  C   UNL     1       8.655   0.737  24.290  0.00  0.00    +0.000 C 
ATOM      8  C   UNL     1       8.401  -0.263  25.526  0.00  0.00    +0.000 C 
ATOM      9  C   UNL     1       9.588  -1.239  24.802  0.00  0.00    +0.000 C 
ATOM     10  C   UNL     1       9.879   0.019  23.810  0.00  0.00    +0.000 C 
ATOM     11  C   UNL     1      11.125   0.657  24.370  0.00  0.00    +0.000 C 
ATOM     12  O   UNL     1       9.959  -0.373  22.544  0.00  0.00    +0.000 OA
ATOM     13  C   UNL     1       9.484   3.105  24.022  0.00  0.00    +0.000 C 
ENDROOT
BRANCH   1  15
ATOM     14  N   UNL     1       7.357  -1.179  22.011  0.00  0.00    +0.000 NA
ATOM     15  C   UNL     1       7.567   0.147  22.090  0.00  0.00    +0.000 C 
ATOM     16  O   UNL     1       7.092   0.884  21.239  0.00  0.00    +0.000 OA
BRANCH  14  17
ATOM     17  C   UNL     1       6.571  -1.926  22.930  0.00  0.00    +0.000 C 
BRANCH  17  23
ATOM     18  C   UNL     1       7.089  -4.297  23.765  0.00  0.00    +0.000 C 
ATOM     19  C   UNL     1       7.792  -5.525  23.236  0.00  0.00    +0.000 C 
ATOM     20  C   UNL     1       6.983  -6.135  22.104  0.00  0.00    +0.000 C 
ATOM     21  C   UNL     1       6.099  -5.357  21.340  0.00  0.00    +0.000 C 
ATOM     22  C   UNL     1       6.262  -3.936  21.402  0.00  0.00    +0.000 C 
ATOM     23  C   UNL     1       6.633  -3.396  22.676  0.00  0.00    +0.000 C 
ATOM     24  F   UNL     1       6.030  -5.754  20.064  0.00  0.00    +0.000 F 
BRANCH  18  25
ATOM     25  N   UNL     1       6.012  -4.689  24.629  0.00  0.00    +0.000 NA
BRANCH  25  27
ATOM     26  C   UNL     1       7.208  -3.701  26.487  0.00  0.00    +0.000 C 
ATOM     27  C   UNL     1       6.556  -4.956  25.933  0.00  0.00    +0.000 C 
ENDBRANCH  25  27
ENDBRANCH  18  25
ENDBRANCH  17  23
ENDBRANCH  14  17
ENDBRANCH   1  15
BRANCH   3  28
ATOM     28  C   UNL     1       7.417   3.094  22.559  0.00  0.00    +0.000 C 
ATOM     29  O   UNL     1       8.230   2.917  21.709  0.00  0.00    +0.000 OA
ATOM     30  O   UNL     1       6.523   4.117  22.473  0.00  0.00    +0.000 OA
ENDBRANCH   3  28
TORSDOF 6
ENDMDL
MODEL 6
REMARK VINA RESULT:      -7.2      2.328      3.591
REMARK  Name = 
REMARK  6 active torsions:
REMARK  status: ('A' for Active; 'I' for Inactive)
REMARK    1  A    between atoms: C_2  and  N_3
REMARK    2  A    between atoms: N_3  and  C_4
REMARK    3  A    between atoms: C_9  and  C_10
REMARK    4  A    between atoms: C_10  and  N_11
REMARK    5  A    between atoms: C_12  and  C_14
REMARK    6  A    between atoms: C_16  and  C_27
REMARK                            x       y       z     vdW  Elec       q    Type
REMARK                         _______ _______ _______ _____ _____    ______ ____
ROOT
ATOM      1  C   UNL     1       5.139  -3.898  24.391  0.00  0.00    +0.000 C 
ATOM      2  C   UNL     1       5.032  -3.984  22.872  0.00  0.00    +0.000 C 
ATOM      3  C   UNL     1       4.016  -4.755  24.994  0.00  0.00    +0.000 C 
ATOM      4  C   UNL     1       3.517  -5.846  24.037  0.00  0.00    +0.000 C 
ATOM      5  C   UNL     1       4.745  -6.865  24.500  0.00  0.00    +0.000 C 
ATOM      6  C   UNL     1       5.337  -5.835  25.480  0.00  0.00    +0.000 C 
ATOM      7  C   UNL     1       6.201  -4.883  24.909  0.00  0.00    +0.000 C 
ATOM      8  C   UNL     1       7.042  -5.340  23.615  0.00  0.00    +0.000 C 
ATOM      9  C   UNL     1       8.306  -4.423  24.282  0.00  0.00    +0.000 C 
ATOM     10  C   UNL     1       7.389  -4.311  25.622  0.00  0.00    +0.000 C 
ATOM     11  C   UNL     1       7.982  -5.324  26.568  0.00  0.00    +0.000 C 
ATOM     12  O   UNL     1       7.346  -3.064  26.076  0.00  0.00    +0.000 OA
ATOM     13  C   UNL     1       5.120  -6.052  26.867  0.00  0.00    +0.000 C 
ENDROOT
BRANCH   1  15
ATOM     14  N   UNL     1       6.009  -1.777  24.122  0.00  0.00    +0.000 NA
ATOM     15  C   UNL     1       5.221  -2.557  24.883  0.00  0.00    +0.000 C 
ATOM     16  O   UNL     1       4.144  -2.130  25.270  0.00  0.00    +0.000 OA
BRANCH  14  17
ATOM     17  C   UNL     1       6.310  -2.026  22.755  0.00  0.00    +0.000 C 
BRANCH  17  23
ATOM     18  C   UNL     1       7.989  -0.099  22.986  0.00  0.00    +0.000 C 
ATOM     19  C   UNL     1       8.117   1.320  22.483  0.00  0.00    +0.000 C 
ATOM     20  C   UNL     1       8.378   1.315  20.986  0.00  0.00    +0.000 C 
ATOM     21  C   UNL     1       7.971   0.240  20.181  0.00  0.00    +0.000 C 
ATOM     22  C   UNL     1       6.992  -0.650  20.727  0.00  0.00    +0.000 C 
ATOM     23  C   UNL     1       7.096  -0.921  22.129  0.00  0.00    +0.000 C 
ATOM     24  F   UNL     1       7.605   0.622  18.951  0.00  0.00    +0.000 F 
BRANCH  18  25
ATOM     25  N   UNL     1       9.292  -0.684  23.125  0.00  0.00    +0.000 NA
BRANCH  25  27
ATOM     26  C   UNL     1      10.487   0.287  24.993  0.00  0.00    +0.000 C 
ATOM     27  C   UNL     1       9.571  -0.832  24.528  0.00  0.00    +0.000 C 
ENDBRANCH  25  27
ENDBRANCH  18  25
ENDBRANCH  17  23
ENDBRANCH  14  17
ENDBRANCH   1  15
BRANCH   3  28
ATOM     28  C   UNL     1       3.287  -4.480  26.104  0.00  0.00    +0.000 C 
ATOM     29  O   UNL     1       3.743  -3.860  27.012  0.00  0.00    +0.000 OA
ATOM     30  O   UNL     1       1.953  -4.738  26.033  0.00  0.00    +0.000 OA
ENDBRANCH   3  28
TORSDOF 6
ENDMDL
MODEL 7
REMARK VINA RESULT:      -7.2      1.018      1.215
REMARK  Name = 
REMARK  6 active torsions:
REMARK  status: ('A' for Active; 'I' for Inactive)
REMARK    1  A    between atoms: C_2  and  N_3
REMARK    2  A    between atoms: N_3  and  C_4
REMARK    3  A    between atoms: C_9  and  C_10
REMARK    4  A    between atoms: C_10  and  N_11
REMARK    5  A    between atoms: C_12  and  C_14
REMARK    6  A    between atoms: C_16  and  C_27
REMARK                            x       y       z     vdW  Elec       q    Type
REMARK                         _______ _______ _______ _____ _____    ______ ____
ROOT
ATOM      1  C   UNL     1       6.018  -3.663  24.962  0.00  0.00    +0.000 C 
ATOM      2  C   UNL     1       5.339  -2.302  24.850  0.00  0.00    +0.000 C 
ATOM      3  C   UNL     1       5.119  -4.572  25.815  0.00  0.00    +0.000 C 
ATOM      4  C   UNL     1       3.651  -4.127  25.817  0.00  0.00    +0.000 C 
ATOM      5  C   UNL     1       3.366  -4.934  24.394  0.00  0.00    +0.000 C 
ATOM      6  C   UNL     1       4.823  -5.423  24.287  0.00  0.00    +0.000 C 
ATOM      7  C   UNL     1       5.727  -4.511  23.711  0.00  0.00    +0.000 C 
ATOM      8  C   UNL     1       5.137  -3.488  22.617  0.00  0.00    +0.000 C 
ATOM      9  C   UNL     1       6.611  -3.722  21.805  0.00  0.00    +0.000 C 
ATOM     10  C   UNL     1       6.893  -4.924  22.867  0.00  0.00    +0.000 C 
ATOM     11  C   UNL     1       6.577  -6.183  22.099  0.00  0.00    +0.000 C 
ATOM     12  O   UNL     1       8.122  -4.853  23.362  0.00  0.00    +0.000 OA
ATOM     13  C   UNL     1       5.080  -6.787  24.590  0.00  0.00    +0.000 C 
ENDROOT
BRANCH   1  15
ATOM     14  N   UNL     1       8.011  -2.501  24.890  0.00  0.00    +0.000 NA
ATOM     15  C   UNL     1       7.385  -3.588  25.375  0.00  0.00    +0.000 C 
ATOM     16  O   UNL     1       7.542  -3.901  26.546  0.00  0.00    +0.000 OA
BRANCH  14  17
ATOM     17  C   UNL     1       7.352  -1.311  24.476  0.00  0.00    +0.000 C 
BRANCH  17  23
ATOM     18  C   UNL     1       8.267  -0.591  22.189  0.00  0.00    +0.000 C 
ATOM     19  C   UNL     1       9.612  -0.230  21.602  0.00  0.00    +0.000 C 
ATOM     20  C   UNL     1      10.085   1.096  22.172  0.00  0.00    +0.000 C 
ATOM     21  C   UNL     1       9.636   1.551  23.422  0.00  0.00    +0.000 C 
ATOM     22  C   UNL     1       9.039   0.585  24.292  0.00  0.00    +0.000 C 
ATOM     23  C   UNL     1       8.234  -0.420  23.664  0.00  0.00    +0.000 C 
ATOM     24  F   UNL     1      10.567   2.249  24.085  0.00  0.00    +0.000 F 
BRANCH  18  25
ATOM     25  N   UNL     1       7.235   0.160  21.534  0.00  0.00    +0.000 NA
BRANCH  25  27
ATOM     26  C   UNL     1       6.095  -0.644  19.555  0.00  0.00    +0.000 C 
ATOM     27  C   UNL     1       7.368  -0.034  20.116  0.00  0.00    +0.000 C 
ENDBRANCH  25  27
ENDBRANCH  18  25
ENDBRANCH  17  23
ENDBRANCH  14  17
ENDBRANCH   1  15
BRANCH   3  28
ATOM     28  C   UNL     1       5.522  -5.495  26.724  0.00  0.00    +0.000 C 
ATOM     29  O   UNL     1       6.561  -6.064  26.616  0.00  0.00    +0.000 OA
ATOM     30  O   UNL     1       4.798  -5.569  27.874  0.00  0.00    +0.000 OA
ENDBRANCH   3  28
TORSDOF 6
ENDMDL
MODEL 8
REMARK VINA RESULT:      -7.2      3.176      7.186
REMARK  Name = 
REMARK  6 active torsions:
REMARK  status: ('A' for Active; 'I' for Inactive)
REMARK    1  A    between atoms: C_2  and  N_3
REMARK    2  A    between atoms: N_3  and  C_4
REMARK    3  A    between atoms: C_9  and  C_10
REMARK    4  A    between atoms: C_10  and  N_11
REMARK    5  A    between atoms: C_12  and  C_14
REMARK    6  A    between atoms: C_16  and  C_27
REMARK                            x       y       z     vdW  Elec       q    Type
REMARK                         _______ _______ _______ _____ _____    ______ ____
ROOT
ATOM      1  C   UNL     1       7.517  -0.331  23.275  0.00  0.00    +0.000 C 
ATOM      2  C   UNL     1       6.224  -0.087  24.045  0.00  0.00    +0.000 C 
ATOM      3  C   UNL     1       7.533   0.615  22.065  0.00  0.00    +0.000 C 
ATOM      4  C   UNL     1       6.645   1.850  22.261  0.00  0.00    +0.000 C 
ATOM      5  C   UNL     1       7.858   2.638  23.078  0.00  0.00    +0.000 C 
ATOM      6  C   UNL     1       8.826   1.447  22.950  0.00  0.00    +0.000 C 
ATOM      7  C   UNL     1       8.680   0.441  23.923  0.00  0.00    +0.000 C 
ATOM      8  C   UNL     1       8.149   0.896  25.373  0.00  0.00    +0.000 C 
ATOM      9  C   UNL     1       9.245  -0.250  25.982  0.00  0.00    +0.000 C 
ATOM     10  C   UNL     1       9.826  -0.358  24.464  0.00  0.00    +0.000 C 
ATOM     11  C   UNL     1      11.088   0.467  24.487  0.00  0.00    +0.000 C 
ATOM     12  O   UNL     1       9.979  -1.623  24.095  0.00  0.00    +0.000 OA
ATOM     13  C   UNL     1       9.881   1.559  22.005  0.00  0.00    +0.000 C 
ENDROOT
BRANCH   1  15
ATOM     14  N   UNL     1       7.430  -2.519  24.005  0.00  0.00    +0.000 NA
ATOM     15  C   UNL     1       7.755  -1.710  22.981  0.00  0.00    +0.000 C 
ATOM     16  O   UNL     1       7.424  -2.015  21.845  0.00  0.00    +0.000 OA
BRANCH  14  17
ATOM     17  C   UNL     1       6.504  -2.186  25.031  0.00  0.00    +0.000 C 
BRANCH  17  23
ATOM     18  C   UNL     1       6.812  -4.601  25.841  0.00  0.00    +0.000 C 
ATOM     19  C   UNL     1       5.999  -5.875  25.851  0.00  0.00    +0.000 C 
ATOM     20  C   UNL     1       4.833  -5.735  26.814  0.00  0.00    +0.000 C 
ATOM     21  C   UNL     1       4.306  -4.475  27.140  0.00  0.00    +0.000 C 
ATOM     22  C   UNL     1       4.635  -3.386  26.272  0.00  0.00    +0.000 C 
ATOM     23  C   UNL     1       5.959  -3.391  25.725  0.00  0.00    +0.000 C 
ATOM     24  F   UNL     1       2.985  -4.505  27.354  0.00  0.00    +0.000 F 
BRANCH  18  25
ATOM     25  N   UNL     1       7.659  -4.557  27.000  0.00  0.00    +0.000 NA
BRANCH  25  27
ATOM     26  C   UNL     1       9.387  -5.200  25.431  0.00  0.00    +0.000 C 
ATOM     27  C   UNL     1       8.999  -4.268  26.566  0.00  0.00    +0.000 C 
ENDBRANCH  25  27
ENDBRANCH  18  25
ENDBRANCH  17  23
ENDBRANCH  14  17
ENDBRANCH   1  15
BRANCH   3  28
ATOM     28  C   UNL     1       8.002   0.341  20.821  0.00  0.00    +0.000 C 
ATOM     29  O   UNL     1       8.915  -0.404  20.650  0.00  0.00    +0.000 OA
ATOM     30  O   UNL     1       7.240   0.767  19.778  0.00  0.00    +0.000 OA
ENDBRANCH   3  28
TORSDOF 6
ENDMDL
MODEL 9
REMARK VINA RESULT:      -7.0      3.203      6.608
REMARK  Name = 
REMARK  6 active torsions:
REMARK  status: ('A' for Active; 'I' for Inactive)
REMARK    1  A    between atoms: C_2  and  N_3
REMARK    2  A    between atoms: N_3  and  C_4
REMARK    3  A    between atoms: C_9  and  C_10
REMARK    4  A    between atoms: C_10  and  N_11
REMARK    5  A    between atoms: C_12  and  C_14
REMARK    6  A    between atoms: C_16  and  C_27
REMARK                            x       y       z     vdW  Elec       q    Type
REMARK                         _______ _______ _______ _____ _____    ______ ____
ROOT
ATOM      1  C   UNL     1       8.417  -0.488  23.646  0.00  0.00    +0.000 C 
ATOM      2  C   UNL     1       7.594  -1.292  22.645  0.00  0.00    +0.000 C 
ATOM      3  C   UNL     1       8.741   0.872  23.010  0.00  0.00    +0.000 C 
ATOM      4  C   UNL     1       7.748   1.268  21.910  0.00  0.00    +0.000 C 
ATOM      5  C   UNL     1       6.690   1.880  23.035  0.00  0.00    +0.000 C 
ATOM      6  C   UNL     1       7.608   1.511  24.215  0.00  0.00    +0.000 C 
ATOM      7  C   UNL     1       7.497   0.187  24.678  0.00  0.00    +0.000 C 
ATOM      8  C   UNL     1       6.063  -0.527  24.517  0.00  0.00    +0.000 C 
ATOM      9  C   UNL     1       6.394  -1.224  26.031  0.00  0.00    +0.000 C 
ATOM     10  C   UNL     1       7.660  -0.204  26.115  0.00  0.00    +0.000 C 
ATOM     11  C   UNL     1       7.190   0.902  27.025  0.00  0.00    +0.000 C 
ATOM     12  O   UNL     1       8.762  -0.833  26.505  0.00  0.00    +0.000 OA
ATOM     13  C   UNL     1       8.322   2.566  24.844  0.00  0.00    +0.000 C 
ENDROOT
BRANCH   1  15
ATOM     14  N   UNL     1       9.280  -2.514  24.341  0.00  0.00    +0.000 NA
ATOM     15  C   UNL     1       9.539  -1.205  24.169  0.00  0.00    +0.000 C 
ATOM     16  O   UNL     1      10.597  -0.863  23.661  0.00  0.00    +0.000 OA
BRANCH  14  17
ATOM     17  C   UNL     1       8.270  -3.232  23.645  0.00  0.00    +0.000 C 
BRANCH  17  23
ATOM     18  C   UNL     1       6.155  -4.615  24.092  0.00  0.00    +0.000 C 
ATOM     19  C   UNL     1       5.210  -4.846  25.248  0.00  0.00    +0.000 C 
ATOM     20  C   UNL     1       5.915  -5.630  26.342  0.00  0.00    +0.000 C 
ATOM     21  C   UNL     1       7.312  -5.596  26.476  0.00  0.00    +0.000 C 
ATOM     22  C   UNL     1       8.005  -4.532  25.816  0.00  0.00    +0.000 C 
ATOM     23  C   UNL     1       7.487  -4.135  24.541  0.00  0.00    +0.000 C 
ATOM     24  F   UNL     1       7.713  -5.681  27.751  0.00  0.00    +0.000 F 
BRANCH  18  25
ATOM     25  N   UNL     1       6.250  -5.808  23.299  0.00  0.00    +0.000 NA
BRANCH  25  27
ATOM     26  C   UNL     1       6.234  -5.666  20.882  0.00  0.00    +0.000 C 
ATOM     27  C   UNL     1       5.398  -5.653  22.151  0.00  0.00    +0.000 C 
ENDBRANCH  25  27
ENDBRANCH  18  25
ENDBRANCH  17  23
ENDBRANCH  14  17
ENDBRANCH   1  15
BRANCH   3  28
ATOM     28  C   UNL     1       9.897   1.572  23.127  0.00  0.00    +0.000 C 
ATOM     29  O   UNL     1      10.543   1.547  24.126  0.00  0.00    +0.000 OA
ATOM     30  O   UNL     1      10.398   2.110  21.983  0.00  0.00    +0.000 OA
ENDBRANCH   3  28
TORSDOF 6
ENDMDL
