MODEL 1
REMARK VINA RESULT:      -6.4      0.000      0.000
REMARK  Name = 
REMARK  2 active torsions:
REMARK  status: ('A' for Active; 'I' for Inactive)
REMARK    1  A    between atoms: N_8  and  C_11
REMARK    2  A    between atoms: C_15  and  S_16
REMARK                            x       y       z     vdW  Elec       q    Type
REMARK                         _______ _______ _______ _____ _____    ______ ____
ROOT
ATOM      1  C   UNL     1       8.650   2.156  24.586  0.00  0.00    +0.000 C 
ATOM      2  N   UNL     1       9.929   1.909  23.961  0.00  0.00    +0.000 NA
ATOM      3  C   UNL     1      10.051   1.218  22.832  0.00  0.00    +0.000 C 
ATOM      4  O   UNL     1      10.237   1.707  21.755  0.00  0.00    +0.000 OA
ATOM      5  N   UNL     1       9.642  -0.059  23.020  0.00  0.00    +0.000 N 
ATOM      6  C   UNL     1       9.548  -0.907  21.803  0.00  0.00    +0.000 C 
ATOM      7  C   UNL     1       8.114  -0.866  21.339  0.00  0.00    +0.000 C 
ATOM      8  N   UNL     1       7.336   0.144  21.850  0.00  0.00    +0.000 NA
ATOM      9  C   UNL     1       7.258   0.244  23.237  0.00  0.00    +0.000 C 
ATOM     10  C   UNL     1       8.503  -0.250  23.952  0.00  0.00    +0.000 C 
ENDROOT
BRANCH   8  11
ATOM     11  C   UNL     1       7.462   1.397  21.207  0.00  0.00    +0.000 C 
ATOM     12  C   UNL     1       6.582   2.422  22.086  0.00  0.00    +0.000 C 
ATOM     13  C   UNL     1       5.389   2.637  21.242  0.00  0.00    +0.000 C 
ATOM     14  N   UNL     1       5.351   1.704  20.243  0.00  0.00    +0.000 NA
ATOM     15  C   UNL     1       6.585   1.438  19.941  0.00  0.00    +0.000 C 
ATOM     16  C   UNL     1       7.396   3.592  22.572  0.00  0.00    +0.000 C 
BRANCH  15  17
ATOM     17  S   UNL     1       6.671  -0.069  19.055  0.00  0.00    +0.000 S 
ATOM     18  O   UNL     1       6.026  -1.112  19.829  0.00  0.00    +0.000 OA
ATOM     19  O   UNL     1       8.026  -0.351  18.666  0.00  0.00    +0.000 OA
ATOM     20  N   UNL     1       5.789   0.097  17.649  0.00  0.00    +0.000 NA
ENDBRANCH  15  17
ENDBRANCH   8  11
TORSDOF 2
ENDMDL
MODEL 2
REMARK VINA RESULT:      -6.3      3.242      4.555
REMARK  Name = 
REMARK  2 active torsions:
REMARK  status: ('A' for Active; 'I' for Inactive)
REMARK    1  A    between atoms: N_8  and  C_11
REMARK    2  A    between atoms: C_15  and  S_16
REMARK                            x       y       z     vdW  Elec       q    Type
REMARK                         _______ _______ _______ _____ _____    ______ ____
ROOT
ATOM      1  C   UNL     1       7.302   1.718  21.643  0.00  0.00    +0.000 C 
ATOM      2  N   UNL     1       8.743   1.765  21.551  0.00  0.00    +0.000 NA
ATOM      3  C   UNL     1       9.526   0.891  22.176  0.00  0.00    +0.000 C 
ATOM      4  O   UNL     1      10.071  -0.033  21.643  0.00  0.00    +0.000 OA
ATOM      5  N   UNL     1       9.382   1.010  23.517  0.00  0.00    +0.000 N 
ATOM      6  C   UNL     1      10.057  -0.023  24.347  0.00  0.00    +0.000 C 
ATOM      7  C   UNL     1       9.032  -1.083  24.663  0.00  0.00    +0.000 C 
ATOM      8  N   UNL     1       7.898  -1.086  23.888  0.00  0.00    +0.000 NA
ATOM      9  C   UNL     1       7.169   0.099  23.828  0.00  0.00    +0.000 C 
ATOM     10  C   UNL     1       8.019   1.345  24.000  0.00  0.00    +0.000 C 
ENDROOT
BRANCH   8  11
ATOM     11  C   UNL     1       8.015  -1.732  22.636  0.00  0.00    +0.000 C 
ATOM     12  C   UNL     1       6.606  -1.491  21.893  0.00  0.00    +0.000 C 
ATOM     13  C   UNL     1       5.955  -2.815  21.987  0.00  0.00    +0.000 C 
ATOM     14  N   UNL     1       6.627  -3.601  22.882  0.00  0.00    +0.000 NA
ATOM     15  C   UNL     1       7.877  -3.258  22.808  0.00  0.00    +0.000 C 
ATOM     16  C   UNL     1       6.778  -0.818  20.558  0.00  0.00    +0.000 C 
BRANCH  15  17
ATOM     17  S   UNL     1       8.736  -3.822  24.225  0.00  0.00    +0.000 S 
ATOM     18  O   UNL     1       7.997  -3.437  25.412  0.00  0.00    +0.000 OA
ATOM     19  O   UNL     1      10.105  -3.385  24.193  0.00  0.00    +0.000 OA
ATOM     20  N   UNL     1       8.758  -5.489  24.196  0.00  0.00    +0.000 NA
ENDBRANCH  15  17
ENDBRANCH   8  11
TORSDOF 2
ENDMDL
MODEL 3
REMARK VINA RESULT:      -6.1      2.812      4.593
REMARK  Name = 
REMARK  2 active torsions:
REMARK  status: ('A' for Active; 'I' for Inactive)
REMARK    1  A    between atoms: N_8  and  C_11
REMARK    2  A    between atoms: C_15  and  S_16
REMARK                            x       y       z     vdW  Elec       q    Type
REMARK                         _______ _______ _______ _____ _____    ______ ____
ROOT
ATOM      1  C   UNL     1       8.635   3.092  23.308  0.00  0.00    +0.000 C 
ATOM      2  N   UNL     1       7.826   2.712  22.173  0.00  0.00    +0.000 NA
ATOM      3  C   UNL     1       7.726   1.453  21.757  0.00  0.00    +0.000 C 
ATOM      4  O   UNL     1       6.785   0.743  21.969  0.00  0.00    +0.000 OA
ATOM      5  N   UNL     1       8.931   1.004  21.334  0.00  0.00    +0.000 N 
ATOM      6  C   UNL     1       9.018  -0.444  21.009  0.00  0.00    +0.000 C 
ATOM      7  C   UNL     1       9.555  -1.146  22.231  0.00  0.00    +0.000 C 
ATOM      8  N   UNL     1       9.503  -0.443  23.411  0.00  0.00    +0.000 NA
ATOM      9  C   UNL     1      10.113   0.809  23.429  0.00  0.00    +0.000 C 
ATOM     10  C   UNL     1      10.112   1.505  22.080  0.00  0.00    +0.000 C 
ENDROOT
BRANCH   8  11
ATOM     11  C   UNL     1       8.259  -0.467  24.082  0.00  0.00    +0.000 C 
ATOM     12  C   UNL     1       8.447   0.485  25.369  0.00  0.00    +0.000 C 
ATOM     13  C   UNL     1       8.534  -0.484  26.482  0.00  0.00    +0.000 C 
ATOM     14  N   UNL     1       8.720  -1.745  25.988  0.00  0.00    +0.000 NA
ATOM     15  C   UNL     1       8.094  -1.792  24.852  0.00  0.00    +0.000 C 
ATOM     16  C   UNL     1       7.434   1.597  25.402  0.00  0.00    +0.000 C 
BRANCH  15  17
ATOM     17  S   UNL     1       8.663  -3.153  23.911  0.00  0.00    +0.000 S 
ATOM     18  O   UNL     1      10.112  -3.125  23.865  0.00  0.00    +0.000 OA
ATOM     19  O   UNL     1       8.015  -3.188  22.628  0.00  0.00    +0.000 OA
ATOM     20  N   UNL     1       8.238  -4.556  24.707  0.00  0.00    +0.000 NA
ENDBRANCH  15  17
ENDBRANCH   8  11
TORSDOF 2
ENDMDL
MODEL 4
REMARK VINA RESULT:      -6.1      5.619      7.134
REMARK  Name = 
REMARK  2 active torsions:
REMARK  status: ('A' for Active; 'I' for Inactive)
REMARK    1  A    between atoms: N_8  and  C_11
REMARK    2  A    between atoms: C_15  and  S_16
REMARK                            x       y       z     vdW  Elec       q    Type
REMARK                         _______ _______ _______ _____ _____    ______ ____
ROOT
ATOM      1  C   UNL     1       7.978  -2.112  22.114  0.00  0.00    +0.000 C 
ATOM      2  N   UNL     1       9.235  -2.214  22.819  0.00  0.00    +0.000 NA
ATOM      3  C   UNL     1       9.318  -2.669  24.066  0.00  0.00    +0.000 C 
ATOM      4  O   UNL     1       9.691  -3.767  24.363  0.00  0.00    +0.000 OA
ATOM      5  N   UNL     1       8.653  -1.843  24.909  0.00  0.00    +0.000 N 
ATOM      6  C   UNL     1       8.503  -2.315  26.311  0.00  0.00    +0.000 C 
ATOM      7  C   UNL     1       7.151  -2.974  26.419  0.00  0.00    +0.000 C 
ATOM      8  N   UNL     1       6.543  -3.318  25.235  0.00  0.00    +0.000 NA
ATOM      9  C   UNL     1       6.364  -2.303  24.298  0.00  0.00    +0.000 C 
ATOM     10  C   UNL     1       7.421  -1.216  24.371  0.00  0.00    +0.000 C 
ENDROOT
BRANCH   8  11
ATOM     11  C   UNL     1       6.968  -4.538  24.662  0.00  0.00    +0.000 C 
ATOM     12  C   UNL     1       6.196  -4.643  23.251  0.00  0.00    +0.000 C 
ATOM     13  C   UNL     1       5.166  -5.668  23.517  0.00  0.00    +0.000 C 
ATOM     14  N   UNL     1       5.071  -5.896  24.862  0.00  0.00    +0.000 NA
ATOM     15  C   UNL     1       6.262  -5.724  25.349  0.00  0.00    +0.000 C 
ATOM     16  C   UNL     1       7.149  -4.798  22.097  0.00  0.00    +0.000 C 
BRANCH  15  17
ATOM     17  S   UNL     1       6.172  -5.498  27.082  0.00  0.00    +0.000 S 
ATOM     18  O   UNL     1       5.201  -4.462  27.375  0.00  0.00    +0.000 OA
ATOM     19  O   UNL     1       7.482  -5.277  27.632  0.00  0.00    +0.000 OA
ATOM     20  N   UNL     1       5.592  -6.904  27.766  0.00  0.00    +0.000 NA
ENDBRANCH  15  17
ENDBRANCH   8  11
TORSDOF 2
ENDMDL
MODEL 5
REMARK VINA RESULT:      -6.0      2.057      3.215
REMARK  Name = 
REMARK  2 active torsions:
REMARK  status: ('A' for Active; 'I' for Inactive)
REMARK    1  A    between atoms: N_8  and  C_11
REMARK    2  A    between atoms: C_15  and  S_16
REMARK                            x       y       z     vdW  Elec       q    Type
REMARK                         _______ _______ _______ _____ _____    ______ ____
ROOT
ATOM      1  C   UNL     1       9.102  -2.342  24.649  0.00  0.00    +0.000 C 
ATOM      2  N   UNL     1       9.094  -0.968  25.096  0.00  0.00    +0.000 NA
ATOM      3  C   UNL     1       8.859   0.049  24.272  0.00  0.00    +0.000 C 
ATOM      4  O   UNL     1       7.819   0.640  24.206  0.00  0.00    +0.000 OA
ATOM      5  N   UNL     1       9.831   0.123  23.332  0.00  0.00    +0.000 N 
ATOM      6  C   UNL     1       9.610   1.097  22.231  0.00  0.00    +0.000 C 
ATOM      7  C   UNL     1       9.008   0.338  21.076  0.00  0.00    +0.000 C 
ATOM      8  N   UNL     1       8.481  -0.898  21.365  0.00  0.00    +0.000 NA
ATOM      9  C   UNL     1       9.323  -1.815  21.988  0.00  0.00    +0.000 C 
ATOM     10  C   UNL     1      10.384  -1.171  22.862  0.00  0.00    +0.000 C 
ENDROOT
BRANCH   8  11
ATOM     11  C   UNL     1       7.171  -0.893  21.897  0.00  0.00    +0.000 C 
ATOM     12  C   UNL     1       6.853  -2.428  22.272  0.00  0.00    +0.000 C 
ATOM     13  C   UNL     1       5.914  -2.837  21.207  0.00  0.00    +0.000 C 
ATOM     14  N   UNL     1       5.916  -1.909  20.202  0.00  0.00    +0.000 NA
ATOM     15  C   UNL     1       6.135  -0.759  20.764  0.00  0.00    +0.000 C 
ATOM     16  C   UNL     1       6.483  -2.590  23.722  0.00  0.00    +0.000 C 
BRANCH  15  17
ATOM     17  S   UNL     1       6.649   0.404  19.562  0.00  0.00    +0.000 S 
ATOM     18  O   UNL     1       7.734  -0.165  18.785  0.00  0.00    +0.000 OA
ATOM     19  O   UNL     1       6.941   1.671  20.176  0.00  0.00    +0.000 OA
ATOM     20  N   UNL     1       5.386   0.659  18.503  0.00  0.00    +0.000 NA
ENDBRANCH  15  17
ENDBRANCH   8  11
TORSDOF 2
ENDMDL
MODEL 6
REMARK VINA RESULT:      -6.0      3.178      4.027
REMARK  Name = 
REMARK  2 active torsions:
REMARK  status: ('A' for Active; 'I' for Inactive)
REMARK    1  A    between atoms: N_8  and  C_11
REMARK    2  A    between atoms: C_15  and  S_16
REMARK                            x       y       z     vdW  Elec       q    Type
REMARK                         _______ _______ _______ _____ _____    ______ ____
ROOT
ATOM      1  C   UNL     1       9.284   1.048  22.769  0.00  0.00    +0.000 C 
ATOM      2  N   UNL     1      10.364   0.172  23.158  0.00  0.00    +0.000 NA
ATOM      3  C   UNL     1      10.167  -1.100  23.490  0.00  0.00    +0.000 C 
ATOM      4  O   UNL     1      10.401  -2.031  22.775  0.00  0.00    +0.000 OA
ATOM      5  N   UNL     1       9.401  -1.178  24.605  0.00  0.00    +0.000 N 
ATOM      6  C   UNL     1       8.943  -2.537  24.996  0.00  0.00    +0.000 C 
ATOM      7  C   UNL     1       7.558  -2.723  24.431  0.00  0.00    +0.000 C 
ATOM      8  N   UNL     1       7.178  -1.844  23.445  0.00  0.00    +0.000 NA
ATOM      9  C   UNL     1       7.257  -0.486  23.743  0.00  0.00    +0.000 C 
ATOM     10  C   UNL     1       8.345  -0.145  24.745  0.00  0.00    +0.000 C 
ENDROOT
BRANCH   8  11
ATOM     11  C   UNL     1       7.629  -2.157  22.142  0.00  0.00    +0.000 C 
ATOM     12  C   UNL     1       7.175  -0.915  21.220  0.00  0.00    +0.000 C 
ATOM     13  C   UNL     1       6.041  -1.474  20.454  0.00  0.00    +0.000 C 
ATOM     14  N   UNL     1       5.643  -2.659  21.009  0.00  0.00    +0.000 NA
ATOM     15  C   UNL     1       6.710  -3.213  21.498  0.00  0.00    +0.000 C 
ATOM     16  C   UNL     1       8.341  -0.283  20.509  0.00  0.00    +0.000 C 
BRANCH  15  17
ATOM     17  S   UNL     1       6.264  -4.457  22.645  0.00  0.00    +0.000 S 
ATOM     18  O   UNL     1       5.342  -3.899  23.616  0.00  0.00    +0.000 OA
ATOM     19  O   UNL     1       7.437  -5.072  23.205  0.00  0.00    +0.000 OA
ATOM     20  N   UNL     1       5.434  -5.651  21.830  0.00  0.00    +0.000 NA
ENDBRANCH  15  17
ENDBRANCH   8  11
TORSDOF 2
ENDMDL
MODEL 7
REMARK VINA RESULT:      -5.9      3.762      5.429
REMARK  Name = 
REMARK  2 active torsions:
REMARK  status: ('A' for Active; 'I' for Inactive)
REMARK    1  A    between atoms: N_8  and  C_11
REMARK    2  A    between atoms: C_15  and  S_16
REMARK                            x       y       z     vdW  Elec       q    Type
REMARK                         _______ _______ _______ _____ _____    ______ ____
ROOT
ATOM      1  C   UNL     1      10.050   0.020  24.973  0.00  0.00    +0.000 C 
ATOM      2  N   UNL     1       9.020   0.735  24.255  0.00  0.00    +0.000 NA
ATOM      3  C   UNL     1       8.084   0.114  23.544  0.00  0.00    +0.000 C 
ATOM      4  O   UNL     1       6.953  -0.046  23.905  0.00  0.00    +0.000 OA
ATOM      5  N   UNL     1       8.650  -0.559  22.514  0.00  0.00    +0.000 N 
ATOM      6  C   UNL     1       7.750  -1.450  21.736  0.00  0.00    +0.000 C 
ATOM      7  C   UNL     1       7.902  -2.841  22.297  0.00  0.00    +0.000 C 
ATOM      8  N   UNL     1       8.490  -2.939  23.535  0.00  0.00    +0.000 NA
ATOM      9  C   UNL     1       9.747  -2.360  23.686  0.00  0.00    +0.000 C 
ATOM     10  C   UNL     1       9.978  -1.164  22.781  0.00  0.00    +0.000 C 
ENDROOT
BRANCH   8  11
ATOM     11  C   UNL     1       7.634  -2.710  24.637  0.00  0.00    +0.000 C 
ATOM     12  C   UNL     1       8.589  -2.730  25.935  0.00  0.00    +0.000 C 
ATOM     13  C   UNL     1       8.269  -4.031  26.557  0.00  0.00    +0.000 C 
ATOM     14  N   UNL     1       7.558  -4.804  25.681  0.00  0.00    +0.000 NA
ATOM     15  C   UNL     1       6.840  -3.989  24.970  0.00  0.00    +0.000 C 
ATOM     16  C   UNL     1       8.487  -1.456  26.730  0.00  0.00    +0.000 C 
BRANCH  15  17
ATOM     17  S   UNL     1       6.284  -4.793  23.519  0.00  0.00    +0.000 S 
ATOM     18  O   UNL     1       7.414  -5.420  22.861  0.00  0.00    +0.000 OA
ATOM     19  O   UNL     1       5.528  -3.887  22.697  0.00  0.00    +0.000 OA
ATOM     20  N   UNL     1       5.249  -6.023  23.964  0.00  0.00    +0.000 NA
ENDBRANCH  15  17
ENDBRANCH   8  11
TORSDOF 2
ENDMDL
MODEL 8
REMARK VINA RESULT:      -5.8      3.238      5.060
REMARK  Name = 
REMARK  2 active torsions:
REMARK  status: ('A' for Active; 'I' for Inactive)
REMARK    1  A    between atoms: N_8  and  C_11
REMARK    2  A    between atoms: C_15  and  S_16
REMARK                            x       y       z     vdW  Elec       q    Type
REMARK                         _______ _______ _______ _____ _____    ______ ____
ROOT
ATOM      1  C   UNL     1       7.506  -3.800  22.839  0.00  0.00    +0.000 C 
ATOM      2  N   UNL     1       6.732  -3.555  24.034  0.00  0.00    +0.000 NA
ATOM      3  C   UNL     1       6.942  -2.501  24.817  0.00  0.00    +0.000 C 
ATOM      4  O   UNL     1       6.254  -1.521  24.832  0.00  0.00    +0.000 OA
ATOM      5  N   UNL     1       8.181  -2.562  25.360  0.00  0.00    +0.000 N 
ATOM      6  C   UNL     1       8.630  -1.363  26.114  0.00  0.00    +0.000 C 
ATOM      7  C   UNL     1       9.445  -0.518  25.169  0.00  0.00    +0.000 C 
ATOM      8  N   UNL     1       9.311  -0.797  23.830  0.00  0.00    +0.000 NA
ATOM      9  C   UNL     1       9.556  -2.108  23.429  0.00  0.00    +0.000 C 
ATOM     10  C   UNL     1       9.243  -3.139  24.499  0.00  0.00    +0.000 C 
ENDROOT
BRANCH   8  11
ATOM     11  C   UNL     1       8.187  -0.221  23.196  0.00  0.00    +0.000 C 
ATOM     12  C   UNL     1       8.180  -0.823  21.701  0.00  0.00    +0.000 C 
ATOM     13  C   UNL     1       8.638   0.321  20.885  0.00  0.00    +0.000 C 
ATOM     14  N   UNL     1       9.154   1.294  21.696  0.00  0.00    +0.000 NA
ATOM     15  C   UNL     1       8.485   1.240  22.807  0.00  0.00    +0.000 C 
ATOM     16  C   UNL     1       6.886  -1.522  21.380  0.00  0.00    +0.000 C 
BRANCH  15  17
ATOM     17  S   UNL     1       9.361   2.073  24.072  0.00  0.00    +0.000 S 
ATOM     18  O   UNL     1      10.717   1.562  24.125  0.00  0.00    +0.000 OA
ATOM     19  O   UNL     1       8.638   2.010  25.313  0.00  0.00    +0.000 OA
ATOM     20  N   UNL     1       9.474   3.685  23.659  0.00  0.00    +0.000 NA
ENDBRANCH  15  17
ENDBRANCH   8  11
TORSDOF 2
ENDMDL
MODEL 9
REMARK VINA RESULT:      -5.7      4.601      5.791
REMARK  Name = 
REMARK  2 active torsions:
REMARK  status: ('A' for Active; 'I' for Inactive)
REMARK    1  A    between atoms: N_8  and  C_11
REMARK    2  A    between atoms: C_15  and  S_16
REMARK                            x       y       z     vdW  Elec       q    Type
REMARK                         _______ _______ _______ _____ _____    ______ ____
ROOT
ATOM      1  C   UNL     1       5.639  -4.238  27.357  0.00  0.00    +0.000 C 
ATOM      2  N   UNL     1       6.931  -4.797  27.681  0.00  0.00    +0.000 NA
ATOM      3  C   UNL     1       7.969  -4.719  26.854  0.00  0.00    +0.000 C 
ATOM      4  O   UNL     1       8.881  -3.953  26.982  0.00  0.00    +0.000 OA
ATOM      5  N   UNL     1       7.710  -5.400  25.713  0.00  0.00    +0.000 N 
ATOM      6  C   UNL     1       8.704  -5.254  24.617  0.00  0.00    +0.000 C 
ATOM      7  C   UNL     1       8.200  -4.172  23.697  0.00  0.00    +0.000 C 
ATOM      8  N   UNL     1       7.218  -3.352  24.198  0.00  0.00    +0.000 NA
ATOM      9  C   UNL     1       6.066  -3.966  24.682  0.00  0.00    +0.000 C 
ATOM     10  C   UNL     1       6.306  -5.360  25.234  0.00  0.00    +0.000 C 
ENDROOT
BRANCH   8  11
ATOM     11  C   UNL     1       7.669  -2.290  25.015  0.00  0.00    +0.000 C 
ATOM     12  C   UNL     1       6.336  -1.523  25.498  0.00  0.00    +0.000 C 
ATOM     13  C   UNL     1       6.359  -0.287  24.689  0.00  0.00    +0.000 C 
ATOM     14  N   UNL     1       7.278  -0.405  23.683  0.00  0.00    +0.000 NA
ATOM     15  C   UNL     1       8.235  -1.150  24.145  0.00  0.00    +0.000 C 
ATOM     16  C   UNL     1       6.237  -1.453  26.998  0.00  0.00    +0.000 C 
BRANCH  15  17
ATOM     17  S   UNL     1       9.198  -1.773  22.823  0.00  0.00    +0.000 S 
ATOM     18  O   UNL     1       8.323  -2.409  21.857  0.00  0.00    +0.000 OA
ATOM     19  O   UNL     1      10.261  -2.604  23.320  0.00  0.00    +0.000 OA
ATOM     20  N   UNL     1       9.915  -0.485  22.043  0.00  0.00    +0.000 NA
ENDBRANCH  15  17
ENDBRANCH   8  11
TORSDOF 2
ENDMDL
