MODEL 1
REMARK VINA RESULT:      -6.5      0.000      0.000
REMARK  Name = 
REMARK  6 active torsions:
REMARK  status: ('A' for Active; 'I' for Inactive)
REMARK    1  A    between atoms: C_2  and  C_3
REMARK    2  A    between atoms: C_3  and  N_4
REMARK    3  A    between atoms: N_4  and  C_5
REMARK    4  A    between atoms: C_8  and  C_20
REMARK    5  A    between atoms: C_9  and  C_10
REMARK    6  A    between atoms: N_12  and  C_13
REMARK                            x       y       z     vdW  Elec       q    Type
REMARK                         _______ _______ _______ _____ _____    ______ ____
ROOT
ATOM      1  C   UNL     1       7.196  -0.703  22.428  0.00  0.00    +0.000 C 
ATOM      2  C   UNL     1       6.787   0.805  22.363  0.00  0.00    +0.000 C 
ATOM      3  C   UNL     1       7.927   1.490  23.305  0.00  0.00    +0.000 C 
ATOM      4  C   UNL     1       8.995   0.560  23.510  0.00  0.00    +0.000 C 
ATOM      5  C   UNL     1       8.484  -0.872  23.027  0.00  0.00    +0.000 C 
ATOM      6 CL   UNL     1       8.282   3.039  22.527  0.00  0.00    +0.000 Cl
ENDROOT
BRANCH   5   7
ATOM      7  C   UNL     1       9.418  -1.890  22.801  0.00  0.00    +0.000 C 
ATOM      8  O   UNL     1      10.253  -1.922  21.878  0.00  0.00    +0.000 OA
ATOM      9  N   UNL     1       9.301  -3.045  23.537  0.00  0.00    +0.000 NA
BRANCH   9  10
ATOM     10  C   UNL     1       8.262  -3.232  24.478  0.00  0.00    +0.000 C 
ATOM     11  C   UNL     1       8.676  -3.114  25.912  0.00  0.00    +0.000 C 
ATOM     12  C   UNL     1       8.967  -4.458  26.539  0.00  0.00    +0.000 C 
ATOM     13  C   UNL     1       7.752  -5.352  26.549  0.00  0.00    +0.000 C 
ATOM     14  C   UNL     1       6.737  -4.889  25.520  0.00  0.00    +0.000 C 
ATOM     15  C   UNL     1       7.469  -4.499  24.234  0.00  0.00    +0.000 C 
ATOM     16  O   UNL     1       7.157  -5.278  27.818  0.00  0.00    +0.000 OA
ENDBRANCH   9  10
ENDBRANCH   5   7
BRANCH   4  17
ATOM     17  C   UNL     1       9.479   0.345  24.936  0.00  0.00    +0.000 C 
ATOM     18  O   UNL     1       8.711   0.574  25.827  0.00  0.00    +0.000 OA
ATOM     19  N   UNL     1      10.756   0.723  24.935  0.00  0.00    +0.000 NA
ENDBRANCH   4  17
BRANCH   1  20
ATOM     20  N   UNL     1       6.909  -1.351  21.226  0.00  0.00    +0.000 NA
BRANCH  20  21
ATOM     21  C   UNL     1       6.905  -0.427  20.132  0.00  0.00    +0.000 C 
BRANCH  21  23
ATOM     22  O   UNL     1       6.254  -0.733  17.883  0.00  0.00    +0.000 OA
ATOM     23  C   UNL     1       5.745  -0.745  19.196  0.00  0.00    +0.000 C 
ENDBRANCH  21  23
ENDBRANCH  20  21
ENDBRANCH   1  20
TORSDOF 6
ENDMDL
MODEL 2
REMARK VINA RESULT:      -6.4      3.247      6.679
REMARK  Name = 
REMARK  6 active torsions:
REMARK  status: ('A' for Active; 'I' for Inactive)
REMARK    1  A    between atoms: C_2  and  C_3
REMARK    2  A    between atoms: C_3  and  N_4
REMARK    3  A    between atoms: N_4  and  C_5
REMARK    4  A    between atoms: C_8  and  C_20
REMARK    5  A    between atoms: C_9  and  C_10
REMARK    6  A    between atoms: N_12  and  C_13
REMARK                            x       y       z     vdW  Elec       q    Type
REMARK                         _______ _______ _______ _____ _____    ______ ____
ROOT
ATOM      1  C   UNL     1       6.182  -3.245  24.969  0.00  0.00    +0.000 C 
ATOM      2  C   UNL     1       4.680  -3.683  24.993  0.00  0.00    +0.000 C 
ATOM      3  C   UNL     1       4.527  -4.395  23.536  0.00  0.00    +0.000 C 
ATOM      4  C   UNL     1       5.826  -4.649  22.993  0.00  0.00    +0.000 C 
ATOM      5  C   UNL     1       6.880  -3.830  23.866  0.00  0.00    +0.000 C 
ATOM      6 CL   UNL     1       3.436  -5.759  23.814  0.00  0.00    +0.000 Cl
ENDROOT
BRANCH   5   7
ATOM      7  C   UNL     1       8.240  -4.152  23.775  0.00  0.00    +0.000 C 
ATOM      8  O   UNL     1       8.746  -5.260  24.030  0.00  0.00    +0.000 OA
ATOM      9  N   UNL     1       9.130  -3.126  23.565  0.00  0.00    +0.000 NA
BRANCH   9  10
ATOM     10  C   UNL     1       8.712  -1.778  23.467  0.00  0.00    +0.000 C 
ATOM     11  C   UNL     1       8.587  -1.252  22.072  0.00  0.00    +0.000 C 
ATOM     12  C   UNL     1       9.821  -0.500  21.628  0.00  0.00    +0.000 C 
ATOM     13  C   UNL     1      10.084   0.711  22.486  0.00  0.00    +0.000 C 
ATOM     14  C   UNL     1       9.374   0.586  23.822  0.00  0.00    +0.000 C 
ATOM     15  C   UNL     1       9.527  -0.846  24.340  0.00  0.00    +0.000 C 
ATOM     16  O   UNL     1       9.582   1.842  21.825  0.00  0.00    +0.000 OA
ENDBRANCH   9  10
ENDBRANCH   5   7
BRANCH   4  17
ATOM     17  C   UNL     1       6.087  -4.220  21.557  0.00  0.00    +0.000 C 
ATOM     18  O   UNL     1       5.653  -3.161  21.202  0.00  0.00    +0.000 OA
ATOM     19  N   UNL     1       6.011  -5.338  20.836  0.00  0.00    +0.000 NA
ENDBRANCH   4  17
BRANCH   1  20
ATOM     20  N   UNL     1       6.740  -3.306  26.246  0.00  0.00    +0.000 NA
BRANCH  20  21
ATOM     21  C   UNL     1       6.253  -4.443  26.966  0.00  0.00    +0.000 C 
BRANCH  21  23
ATOM     22  O   UNL     1       7.038  -6.179  28.362  0.00  0.00    +0.000 OA
ATOM     23  C   UNL     1       7.401  -5.407  27.242  0.00  0.00    +0.000 C 
ENDBRANCH  21  23
ENDBRANCH  20  21
ENDBRANCH   1  20
TORSDOF 6
ENDMDL
MODEL 3
REMARK VINA RESULT:      -6.4      2.740      6.299
REMARK  Name = 
REMARK  6 active torsions:
REMARK  status: ('A' for Active; 'I' for Inactive)
REMARK    1  A    between atoms: C_2  and  C_3
REMARK    2  A    between atoms: C_3  and  N_4
REMARK    3  A    between atoms: N_4  and  C_5
REMARK    4  A    between atoms: C_8  and  C_20
REMARK    5  A    between atoms: C_9  and  C_10
REMARK    6  A    between atoms: N_12  and  C_13
REMARK                            x       y       z     vdW  Elec       q    Type
REMARK                         _______ _______ _______ _____ _____    ______ ____
ROOT
ATOM      1  C   UNL     1       8.358  -1.228  24.686  0.00  0.00    +0.000 C 
ATOM      2  C   UNL     1       7.898  -2.171  25.846  0.00  0.00    +0.000 C 
ATOM      3  C   UNL     1       7.528  -3.531  25.031  0.00  0.00    +0.000 C 
ATOM      4  C   UNL     1       8.077  -3.459  23.711  0.00  0.00    +0.000 C 
ATOM      5  C   UNL     1       8.526  -1.948  23.462  0.00  0.00    +0.000 C 
ATOM      6 CL   UNL     1       8.039  -4.848  26.096  0.00  0.00    +0.000 Cl
ENDROOT
BRANCH   5   7
ATOM      7  C   UNL     1       9.392  -1.660  22.399  0.00  0.00    +0.000 C 
ATOM      8  O   UNL     1      10.605  -1.932  22.351  0.00  0.00    +0.000 OA
ATOM      9  N   UNL     1       8.925  -0.845  21.394  0.00  0.00    +0.000 NA
BRANCH   9  10
ATOM     10  C   UNL     1       7.627  -0.285  21.424  0.00  0.00    +0.000 C 
ATOM     11  C   UNL     1       6.667  -0.854  20.427  0.00  0.00    +0.000 C 
ATOM     12  C   UNL     1       6.582  -0.020  19.169  0.00  0.00    +0.000 C 
ATOM     13  C   UNL     1       6.083   1.375  19.449  0.00  0.00    +0.000 C 
ATOM     14  C   UNL     1       6.270   1.728  20.913  0.00  0.00    +0.000 C 
ATOM     15  C   UNL     1       7.640   1.229  21.378  0.00  0.00    +0.000 C 
ATOM     16  O   UNL     1       4.711   1.422  19.157  0.00  0.00    +0.000 OA
ENDBRANCH   9  10
ENDBRANCH   5   7
BRANCH   4  17
ATOM     17  C   UNL     1       7.159  -3.794  22.545  0.00  0.00    +0.000 C 
ATOM     18  O   UNL     1       6.053  -3.333  22.554  0.00  0.00    +0.000 OA
ATOM     19  N   UNL     1       7.441  -5.057  22.229  0.00  0.00    +0.000 NA
ENDBRANCH   4  17
BRANCH   1  20
ATOM     20  N   UNL     1       9.362  -0.360  25.116  0.00  0.00    +0.000 NA
BRANCH  20  21
ATOM     21  C   UNL     1       9.021   1.001  24.833  0.00  0.00    +0.000 C 
BRANCH  21  23
ATOM     22  O   UNL     1      11.327   0.890  24.342  0.00  0.00    +0.000 OA
ATOM     23  C   UNL     1      10.187   1.689  24.134  0.00  0.00    +0.000 C 
ENDBRANCH  21  23
ENDBRANCH  20  21
ENDBRANCH   1  20
TORSDOF 6
ENDMDL
MODEL 4
REMARK VINA RESULT:      -6.0      1.706      2.001
REMARK  Name = 
REMARK  6 active torsions:
REMARK  status: ('A' for Active; 'I' for Inactive)
REMARK    1  A    between atoms: C_2  and  C_3
REMARK    2  A    between atoms: C_3  and  N_4
REMARK    3  A    between atoms: N_4  and  C_5
REMARK    4  A    between atoms: C_8  and  C_20
REMARK    5  A    between atoms: C_9  and  C_10
REMARK    6  A    between atoms: N_12  and  C_13
REMARK                            x       y       z     vdW  Elec       q    Type
REMARK                         _______ _______ _______ _____ _____    ______ ____
ROOT
ATOM      1  C   UNL     1       7.812   0.430  21.577  0.00  0.00    +0.000 C 
ATOM      2  C   UNL     1       7.829   1.971  21.844  0.00  0.00    +0.000 C 
ATOM      3  C   UNL     1       8.474   2.034  23.338  0.00  0.00    +0.000 C 
ATOM      4  C   UNL     1       9.071   0.772  23.652  0.00  0.00    +0.000 C 
ATOM      5  C   UNL     1       8.565  -0.280  22.565  0.00  0.00    +0.000 C 
ATOM      6 CL   UNL     1       9.494   3.480  23.327  0.00  0.00    +0.000 Cl
ENDROOT
BRANCH   5   7
ATOM      7  C   UNL     1       9.242  -1.499  22.427  0.00  0.00    +0.000 C 
ATOM      8  O   UNL     1      10.359  -1.657  21.901  0.00  0.00    +0.000 OA
ATOM      9  N   UNL     1       8.556  -2.652  22.725  0.00  0.00    +0.000 NA
BRANCH   9  10
ATOM     10  C   UNL     1       7.202  -2.635  23.134  0.00  0.00    +0.000 C 
ATOM     11  C   UNL     1       6.949  -3.154  24.514  0.00  0.00    +0.000 C 
ATOM     12  C   UNL     1       6.532  -4.607  24.516  0.00  0.00    +0.000 C 
ATOM     13  C   UNL     1       5.241  -4.825  23.767  0.00  0.00    +0.000 C 
ATOM     14  C   UNL     1       4.971  -3.672  22.817  0.00  0.00    +0.000 C 
ATOM     15  C   UNL     1       6.275  -3.278  22.122  0.00  0.00    +0.000 C 
ATOM     16  O   UNL     1       4.193  -4.884  24.698  0.00  0.00    +0.000 OA
ENDBRANCH   9  10
ENDBRANCH   5   7
BRANCH   4  17
ATOM     17  C   UNL     1       8.729   0.145  24.995  0.00  0.00    +0.000 C 
ATOM     18  O   UNL     1       7.725   0.505  25.541  0.00  0.00    +0.000 OA
ATOM     19  N   UNL     1       9.898  -0.021  25.613  0.00  0.00    +0.000 NA
ENDBRANCH   4  17
BRANCH   1  20
ATOM     20  N   UNL     1       8.021   0.154  20.226  0.00  0.00    +0.000 NA
BRANCH  20  21
ATOM     21  C   UNL     1       6.843  -0.397  19.626  0.00  0.00    +0.000 C 
BRANCH  21  23
ATOM     22  O   UNL     1       5.819  -0.268  17.503  0.00  0.00    +0.000 OA
ATOM     23  C   UNL     1       6.338   0.537  18.534  0.00  0.00    +0.000 C 
ENDBRANCH  21  23
ENDBRANCH  20  21
ENDBRANCH   1  20
TORSDOF 6
ENDMDL
MODEL 5
REMARK VINA RESULT:      -5.9      2.510      3.163
REMARK  Name = 
REMARK  6 active torsions:
REMARK  status: ('A' for Active; 'I' for Inactive)
REMARK    1  A    between atoms: C_2  and  C_3
REMARK    2  A    between atoms: C_3  and  N_4
REMARK    3  A    between atoms: N_4  and  C_5
REMARK    4  A    between atoms: C_8  and  C_20
REMARK    5  A    between atoms: C_9  and  C_10
REMARK    6  A    between atoms: N_12  and  C_13
REMARK                            x       y       z     vdW  Elec       q    Type
REMARK                         _______ _______ _______ _____ _____    ______ ____
ROOT
ATOM      1  C   UNL     1       7.606   0.471  21.768  0.00  0.00    +0.000 C 
ATOM      2  C   UNL     1       9.046   0.125  21.265  0.00  0.00    +0.000 C 
ATOM      3  C   UNL     1       9.809  -0.196  22.668  0.00  0.00    +0.000 C 
ATOM      4  C   UNL     1       8.840  -0.381  23.705  0.00  0.00    +0.000 C 
ATOM      5  C   UNL     1       7.438   0.138  23.149  0.00  0.00    +0.000 C 
ATOM      6 CL   UNL     1      10.913  -1.525  22.286  0.00  0.00    +0.000 Cl
ENDROOT
BRANCH   5   7
ATOM      7  C   UNL     1       6.261  -0.227  23.815  0.00  0.00    +0.000 C 
ATOM      8  O   UNL     1       5.553   0.526  24.508  0.00  0.00    +0.000 OA
ATOM      9  N   UNL     1       5.943  -1.563  23.872  0.00  0.00    +0.000 NA
BRANCH   9  10
ATOM     10  C   UNL     1       6.775  -2.557  23.307  0.00  0.00    +0.000 C 
ATOM     11  C   UNL     1       6.228  -3.223  22.084  0.00  0.00    +0.000 C 
ATOM     12  C   UNL     1       5.533  -4.527  22.400  0.00  0.00    +0.000 C 
ATOM     13  C   UNL     1       6.474  -5.534  23.012  0.00  0.00    +0.000 C 
ATOM     14  C   UNL     1       7.693  -4.844  23.596  0.00  0.00    +0.000 C 
ATOM     15  C   UNL     1       7.249  -3.574  24.325  0.00  0.00    +0.000 C 
ATOM     16  O   UNL     1       6.904  -6.409  22.004  0.00  0.00    +0.000 OA
ENDBRANCH   9  10
ENDBRANCH   5   7
BRANCH   4  17
ATOM     17  C   UNL     1       9.049   0.374  25.009  0.00  0.00    +0.000 C 
ATOM     18  O   UNL     1       9.675   1.395  24.970  0.00  0.00    +0.000 OA
ATOM     19  N   UNL     1       9.213  -0.568  25.938  0.00  0.00    +0.000 NA
ENDBRANCH   4  17
BRANCH   1  20
ATOM     20  N   UNL     1       6.643   0.066  20.842  0.00  0.00    +0.000 NA
BRANCH  20  21
ATOM     21  C   UNL     1       7.123   0.217  19.502  0.00  0.00    +0.000 C 
BRANCH  21  23
ATOM     22  O   UNL     1       5.937  -0.519  17.597  0.00  0.00    +0.000 OA
ATOM     23  C   UNL     1       5.954   0.502  18.567  0.00  0.00    +0.000 C 
ENDBRANCH  21  23
ENDBRANCH  20  21
ENDBRANCH   1  20
TORSDOF 6
ENDMDL
MODEL 6
REMARK VINA RESULT:      -5.7      1.754      5.383
REMARK  Name = 
REMARK  6 active torsions:
REMARK  status: ('A' for Active; 'I' for Inactive)
REMARK    1  A    between atoms: C_2  and  C_3
REMARK    2  A    between atoms: C_3  and  N_4
REMARK    3  A    between atoms: N_4  and  C_5
REMARK    4  A    between atoms: C_8  and  C_20
REMARK    5  A    between atoms: C_9  and  C_10
REMARK    6  A    between atoms: N_12  and  C_13
REMARK                            x       y       z     vdW  Elec       q    Type
REMARK                         _______ _______ _______ _____ _____    ______ ____
ROOT
ATOM      1  C   UNL     1       8.098  -1.369  25.522  0.00  0.00    +0.000 C 
ATOM      2  C   UNL     1       7.363  -0.041  25.902  0.00  0.00    +0.000 C 
ATOM      3  C   UNL     1       8.268   1.065  25.122  0.00  0.00    +0.000 C 
ATOM      4  C   UNL     1       9.103   0.406  24.164  0.00  0.00    +0.000 C 
ATOM      5  C   UNL     1       9.061  -1.155  24.486  0.00  0.00    +0.000 C 
ATOM      6 CL   UNL     1       7.110   2.275  24.553  0.00  0.00    +0.000 Cl
ENDROOT
BRANCH   5   7
ATOM      7  C   UNL     1       9.509  -2.065  23.520  0.00  0.00    +0.000 C 
ATOM      8  O   UNL     1      10.426  -2.893  23.667  0.00  0.00    +0.000 OA
ATOM      9  N   UNL     1       9.035  -1.925  22.237  0.00  0.00    +0.000 NA
BRANCH   9  10
ATOM     10  C   UNL     1       8.144  -0.887  21.876  0.00  0.00    +0.000 C 
ATOM     11  C   UNL     1       6.706  -1.290  21.781  0.00  0.00    +0.000 C 
ATOM     12  C   UNL     1       6.292  -1.617  20.364  0.00  0.00    +0.000 C 
ATOM     13  C   UNL     1       6.434  -0.429  19.446  0.00  0.00    +0.000 C 
ATOM     14  C   UNL     1       7.388   0.594  20.035  0.00  0.00    +0.000 C 
ATOM     15  C   UNL     1       8.591  -0.133  20.641  0.00  0.00    +0.000 C 
ATOM     16  O   UNL     1       5.175   0.174  19.304  0.00  0.00    +0.000 OA
ENDBRANCH   9  10
ENDBRANCH   5   7
BRANCH   4  17
ATOM     17  C   UNL     1      10.581   0.766  24.151  0.00  0.00    +0.000 C 
ATOM     18  O   UNL     1      11.228   0.510  25.127  0.00  0.00    +0.000 OA
ATOM     19  N   UNL     1      10.656   1.917  23.485  0.00  0.00    +0.000 NA
ENDBRANCH   4  17
BRANCH   1  20
ATOM     20  N   UNL     1       7.195  -2.426  25.413  0.00  0.00    +0.000 NA
BRANCH  20  21
ATOM     21  C   UNL     1       6.939  -3.018  26.691  0.00  0.00    +0.000 C 
BRANCH  21  23
ATOM     22  O   UNL     1       8.832  -4.413  26.897  0.00  0.00    +0.000 OA
ATOM     23  C   UNL     1       7.439  -4.457  26.701  0.00  0.00    +0.000 C 
ENDBRANCH  21  23
ENDBRANCH  20  21
ENDBRANCH   1  20
TORSDOF 6
ENDMDL
MODEL 7
REMARK VINA RESULT:      -5.7      2.549      4.949
REMARK  Name = 
REMARK  6 active torsions:
REMARK  status: ('A' for Active; 'I' for Inactive)
REMARK    1  A    between atoms: C_2  and  C_3
REMARK    2  A    between atoms: C_3  and  N_4
REMARK    3  A    between atoms: N_4  and  C_5
REMARK    4  A    between atoms: C_8  and  C_20
REMARK    5  A    between atoms: C_9  and  C_10
REMARK    6  A    between atoms: N_12  and  C_13
REMARK                            x       y       z     vdW  Elec       q    Type
REMARK                         _______ _______ _______ _____ _____    ______ ____
ROOT
ATOM      1  C   UNL     1       6.318  -4.258  23.377  0.00  0.00    +0.000 C 
ATOM      2  C   UNL     1       5.068  -3.471  23.893  0.00  0.00    +0.000 C 
ATOM      3  C   UNL     1       5.298  -3.521  25.505  0.00  0.00    +0.000 C 
ATOM      4  C   UNL     1       6.645  -3.916  25.781  0.00  0.00    +0.000 C 
ATOM      5  C   UNL     1       7.267  -4.478  24.424  0.00  0.00    +0.000 C 
ATOM      6 CL   UNL     1       4.735  -1.948  26.088  0.00  0.00    +0.000 Cl
ENDROOT
BRANCH   5   7
ATOM      7  C   UNL     1       8.656  -4.621  24.317  0.00  0.00    +0.000 C 
ATOM      8  O   UNL     1       9.289  -5.689  24.404  0.00  0.00    +0.000 OA
ATOM      9  N   UNL     1       9.420  -3.478  24.297  0.00  0.00    +0.000 NA
BRANCH   9  10
ATOM     10  C   UNL     1       8.846  -2.190  24.406  0.00  0.00    +0.000 C 
ATOM     11  C   UNL     1       9.209  -1.238  23.310  0.00  0.00    +0.000 C 
ATOM     12  C   UNL     1      10.362  -0.336  23.689  0.00  0.00    +0.000 C 
ATOM     13  C   UNL     1      10.033   0.533  24.876  0.00  0.00    +0.000 C 
ATOM     14  C   UNL     1       8.875  -0.052  25.664  0.00  0.00    +0.000 C 
ATOM     15  C   UNL     1       9.055  -1.568  25.771  0.00  0.00    +0.000 C 
ATOM     16  O   UNL     1       9.652   1.799  24.407  0.00  0.00    +0.000 OA
ENDBRANCH   9  10
ENDBRANCH   5   7
BRANCH   4  17
ATOM     17  C   UNL     1       6.860  -5.025  26.800  0.00  0.00    +0.000 C 
ATOM     18  O   UNL     1       7.921  -5.077  27.355  0.00  0.00    +0.000 OA
ATOM     19  N   UNL     1       6.221  -6.085  26.306  0.00  0.00    +0.000 NA
ENDBRANCH   4  17
BRANCH   1  20
ATOM     20  N   UNL     1       6.752  -3.756  22.150  0.00  0.00    +0.000 NA
BRANCH  20  21
ATOM     21  C   UNL     1       5.780  -2.871  21.583  0.00  0.00    +0.000 C 
BRANCH  21  23
ATOM     22  O   UNL     1       5.784  -1.367  19.763  0.00  0.00    +0.000 OA
ATOM     23  C   UNL     1       6.482  -1.679  20.945  0.00  0.00    +0.000 C 
ENDBRANCH  21  23
ENDBRANCH  20  21
ENDBRANCH   1  20
TORSDOF 6
ENDMDL
MODEL 8
REMARK VINA RESULT:      -5.7      3.289      6.729
REMARK  Name = 
REMARK  6 active torsions:
REMARK  status: ('A' for Active; 'I' for Inactive)
REMARK    1  A    between atoms: C_2  and  C_3
REMARK    2  A    between atoms: C_3  and  N_4
REMARK    3  A    between atoms: N_4  and  C_5
REMARK    4  A    between atoms: C_8  and  C_20
REMARK    5  A    between atoms: C_9  and  C_10
REMARK    6  A    between atoms: N_12  and  C_13
REMARK                            x       y       z     vdW  Elec       q    Type
REMARK                         _______ _______ _______ _____ _____    ______ ____
ROOT
ATOM      1  C   UNL     1       6.226  -3.458  25.295  0.00  0.00    +0.000 C 
ATOM      2  C   UNL     1       5.094  -4.488  25.618  0.00  0.00    +0.000 C 
ATOM      3  C   UNL     1       5.049  -5.360  24.243  0.00  0.00    +0.000 C 
ATOM      4  C   UNL     1       6.227  -5.098  23.474  0.00  0.00    +0.000 C 
ATOM      5  C   UNL     1       6.933  -3.813  24.102  0.00  0.00    +0.000 C 
ATOM      6 CL   UNL     1       4.727  -7.018  24.772  0.00  0.00    +0.000 Cl
ENDROOT
BRANCH   5   7
ATOM      7  C   UNL     1       8.263  -3.532  23.769  0.00  0.00    +0.000 C 
ATOM      8  O   UNL     1       9.261  -4.169  24.150  0.00  0.00    +0.000 OA
ATOM      9  N   UNL     1       8.526  -2.351  23.115  0.00  0.00    +0.000 NA
BRANCH   9  10
ATOM     10  C   UNL     1       7.506  -1.422  22.804  0.00  0.00    +0.000 C 
ATOM     11  C   UNL     1       7.192  -1.289  21.347  0.00  0.00    +0.000 C 
ATOM     12  C   UNL     1       7.915  -0.127  20.706  0.00  0.00    +0.000 C 
ATOM     13  C   UNL     1       7.519   1.192  21.320  0.00  0.00    +0.000 C 
ATOM     14  C   UNL     1       6.912   0.984  22.695  0.00  0.00    +0.000 C 
ATOM     15  C   UNL     1       7.726  -0.069  23.449  0.00  0.00    +0.000 C 
ATOM     16  O   UNL     1       6.553   1.791  20.498  0.00  0.00    +0.000 OA
ENDBRANCH   9  10
ENDBRANCH   5   7
BRANCH   4  17
ATOM     17  C   UNL     1       6.049  -4.768  22.000  0.00  0.00    +0.000 C 
ATOM     18  O   UNL     1       5.154  -4.030  21.697  0.00  0.00    +0.000 OA
ATOM     19  N   UNL     1       6.344  -5.892  21.350  0.00  0.00    +0.000 NA
ENDBRANCH   4  17
BRANCH   1  20
ATOM     20  N   UNL     1       6.943  -3.126  26.445  0.00  0.00    +0.000 NA
BRANCH  20  21
ATOM     21  C   UNL     1       6.906  -1.715  26.685  0.00  0.00    +0.000 C 
BRANCH  21  23
ATOM     22  O   UNL     1       8.320  -0.164  27.766  0.00  0.00    +0.000 OA
ATOM     23  C   UNL     1       8.327  -1.174  26.785  0.00  0.00    +0.000 C 
ENDBRANCH  21  23
ENDBRANCH  20  21
ENDBRANCH   1  20
TORSDOF 6
ENDMDL
MODEL 9
REMARK VINA RESULT:      -5.6      2.348      4.875
REMARK  Name = 
REMARK  6 active torsions:
REMARK  status: ('A' for Active; 'I' for Inactive)
REMARK    1  A    between atoms: C_2  and  C_3
REMARK    2  A    between atoms: C_3  and  N_4
REMARK    3  A    between atoms: N_4  and  C_5
REMARK    4  A    between atoms: C_8  and  C_20
REMARK    5  A    between atoms: C_9  and  C_10
REMARK    6  A    between atoms: N_12  and  C_13
REMARK                            x       y       z     vdW  Elec       q    Type
REMARK                         _______ _______ _______ _____ _____    ______ ____
ROOT
ATOM      1  C   UNL     1       7.520  -1.883  21.688  0.00  0.00    +0.000 C 
ATOM      2  C   UNL     1       6.134  -2.074  22.388  0.00  0.00    +0.000 C 
ATOM      3  C   UNL     1       6.587  -2.500  23.893  0.00  0.00    +0.000 C 
ATOM      4  C   UNL     1       7.974  -2.198  24.075  0.00  0.00    +0.000 C 
ATOM      5  C   UNL     1       8.591  -1.892  22.637  0.00  0.00    +0.000 C 
ATOM      6 CL   UNL     1       5.401  -1.730  24.956  0.00  0.00    +0.000 Cl
ENDROOT
BRANCH   5   7
ATOM      7  C   UNL     1       9.831  -1.247  22.548  0.00  0.00    +0.000 C 
ATOM      8  O   UNL     1      10.915  -1.787  22.261  0.00  0.00    +0.000 OA
ATOM      9  N   UNL     1       9.912   0.053  22.987  0.00  0.00    +0.000 NA
BRANCH   9  10
ATOM     10  C   UNL     1       8.799   0.729  23.540  0.00  0.00    +0.000 C 
ATOM     11  C   UNL     1       8.326   1.916  22.761  0.00  0.00    +0.000 C 
ATOM     12  C   UNL     1       8.891   3.214  23.289  0.00  0.00    +0.000 C 
ATOM     13  C   UNL     1       8.466   3.478  24.712  0.00  0.00    +0.000 C 
ATOM     14  C   UNL     1       8.022   2.193  25.386  0.00  0.00    +0.000 C 
ATOM     15  C   UNL     1       8.986   1.067  25.005  0.00  0.00    +0.000 C 
ATOM     16  O   UNL     1       7.377   4.363  24.692  0.00  0.00    +0.000 OA
ENDBRANCH   9  10
ENDBRANCH   5   7
BRANCH   4  17
ATOM     17  C   UNL     1       8.862  -3.286  24.660  0.00  0.00    +0.000 C 
ATOM     18  O   UNL     1       8.986  -4.302  24.036  0.00  0.00    +0.000 OA
ATOM     19  N   UNL     1       8.658  -3.237  25.976  0.00  0.00    +0.000 NA
ENDBRANCH   4  17
BRANCH   1  20
ATOM     20  N   UNL     1       7.460  -0.873  20.729  0.00  0.00    +0.000 NA
BRANCH  20  21
ATOM     21  C   UNL     1       6.189  -0.863  20.071  0.00  0.00    +0.000 C 
BRANCH  21  23
ATOM     22  O   UNL     1       7.701   0.017  18.484  0.00  0.00    +0.000 OA
ATOM     23  C   UNL     1       6.356  -0.370  18.639  0.00  0.00    +0.000 C 
ENDBRANCH  21  23
ENDBRANCH  20  21
ENDBRANCH   1  20
TORSDOF 6
ENDMDL
