MODEL 1
REMARK VINA RESULT:      -7.3      0.000      0.000
REMARK  Name = 
REMARK  1 active torsions:
REMARK  status: ('A' for Active; 'I' for Inactive)
REMARK    1  A    between atoms: C_13  and  C_17
REMARK                            x       y       z     vdW  Elec       q    Type
REMARK                         _______ _______ _______ _____ _____    ______ ____
ROOT
ATOM      1  O   UNL     1       6.314  -1.477  20.978  0.00  0.00    +0.000 OA
ATOM      2  C   UNL     1       7.087  -0.966  22.112  0.00  0.00    +0.000 C 
ATOM      3  S   UNL     1       8.503  -0.195  21.096  0.00  0.00    +0.000 S 
ATOM      4  O   UNL     1       8.991   0.866  21.855  0.00  0.00    +0.000 OA
ATOM      5  O   UNL     1       8.454  -0.418  19.798  0.00  0.00    +0.000 OA
ATOM      6  N   UNL     1       9.653  -1.532  21.626  0.00  0.00    +0.000 NA
ATOM      7  C   UNL     1       8.918  -1.627  22.586  0.00  0.00    +0.000 C 
ATOM      8  C   UNL     1       7.617  -2.277  22.770  0.00  0.00    +0.000 C 
ATOM      9  C   UNL     1       6.308  -2.894  22.960  0.00  0.00    +0.000 C 
ATOM     10  C   UNL     1       6.303  -3.427  24.677  0.00  0.00    +0.000 C 
ATOM     11  C   UNL     1       7.631  -3.899  24.683  0.00  0.00    +0.000 C 
ATOM     12  C   UNL     1       8.240  -2.541  24.064  0.00  0.00    +0.000 C 
ATOM     13  C   UNL     1       9.686  -3.063  24.287  0.00  0.00    +0.000 C 
ATOM     14  C   UNL     1       8.884  -3.905  25.584  0.00  0.00    +0.000 C 
ATOM     15  C   UNL     1       9.624  -5.214  25.457  0.00  0.00    +0.000 C 
ATOM     16  C   UNL     1       7.876  -5.016  23.637  0.00  0.00    +0.000 C 
ATOM     17  C   UNL     1       6.453  -5.434  23.186  0.00  0.00    +0.000 C 
ATOM     18  C   UNL     1       5.926  -4.188  22.404  0.00  0.00    +0.000 C 
ATOM     19  C   UNL     1       6.084  -4.440  20.952  0.00  0.00    +0.000 C 
ATOM     20  O   UNL     1       4.485  -4.304  22.672  0.00  0.00    +0.000 OA
ENDROOT
BRANCH  12  21
ATOM     21  C   UNL     1       8.030  -1.455  25.070  0.00  0.00    +0.000 C 
ATOM     22  O   UNL     1       7.196  -0.683  24.605  0.00  0.00    +0.000 OA
ATOM     23  O   UNL     1       9.253  -0.903  25.353  0.00  0.00    +0.000 OA
ENDBRANCH  12  21
TORSDOF 1
ENDMDL
MODEL 2
REMARK VINA RESULT:      -7.1      3.577      5.128
REMARK  Name = 
REMARK  1 active torsions:
REMARK  status: ('A' for Active; 'I' for Inactive)
REMARK    1  A    between atoms: C_13  and  C_17
REMARK                            x       y       z     vdW  Elec       q    Type
REMARK                         _______ _______ _______ _____ _____    ______ ____
ROOT
ATOM      1  O   UNL     1       4.734  -6.260  25.695  0.00  0.00    +0.000 OA
ATOM      2  C   UNL     1       6.088  -5.975  26.176  0.00  0.00    +0.000 C 
ATOM      3  S   UNL     1       5.600  -5.470  27.948  0.00  0.00    +0.000 S 
ATOM      4  O   UNL     1       6.693  -5.779  28.753  0.00  0.00    +0.000 OA
ATOM      5  O   UNL     1       4.304  -5.411  28.182  0.00  0.00    +0.000 OA
ATOM      6  N   UNL     1       5.956  -3.703  27.575  0.00  0.00    +0.000 NA
ATOM      7  C   UNL     1       6.700  -4.150  26.728  0.00  0.00    +0.000 C 
ATOM      8  C   UNL     1       6.456  -4.683  25.385  0.00  0.00    +0.000 C 
ATOM      9  C   UNL     1       6.224  -5.244  24.057  0.00  0.00    +0.000 C 
ATOM     10  C   UNL     1       7.703  -4.825  23.125  0.00  0.00    +0.000 C 
ATOM     11  C   UNL     1       7.830  -3.519  23.639  0.00  0.00    +0.000 C 
ATOM     12  C   UNL     1       7.724  -3.990  25.177  0.00  0.00    +0.000 C 
ATOM     13  C   UNL     1       8.066  -2.554  25.662  0.00  0.00    +0.000 C 
ATOM     14  C   UNL     1       8.914  -2.542  24.142  0.00  0.00    +0.000 C 
ATOM     15  C   UNL     1       8.581  -1.127  23.740  0.00  0.00    +0.000 C 
ATOM     16  C   UNL     1       6.588  -2.638  23.355  0.00  0.00    +0.000 C 
ATOM     17  C   UNL     1       5.782  -3.442  22.302  0.00  0.00    +0.000 C 
ATOM     18  C   UNL     1       5.280  -4.694  23.090  0.00  0.00    +0.000 C 
ATOM     19  C   UNL     1       3.870  -4.467  23.487  0.00  0.00    +0.000 C 
ATOM     20  O   UNL     1       5.232  -5.683  22.004  0.00  0.00    +0.000 OA
ENDROOT
BRANCH  12  21
ATOM     21  C   UNL     1       8.927  -4.827  25.475  0.00  0.00    +0.000 C 
ATOM     22  O   UNL     1       9.246  -4.606  26.640  0.00  0.00    +0.000 OA
ATOM     23  O   UNL     1       9.883  -4.536  24.536  0.00  0.00    +0.000 OA
ENDBRANCH  12  21
TORSDOF 1
ENDMDL
MODEL 3
REMARK VINA RESULT:      -7.0      2.693      4.284
REMARK  Name = 
REMARK  1 active torsions:
REMARK  status: ('A' for Active; 'I' for Inactive)
REMARK    1  A    between atoms: C_13  and  C_17
REMARK                            x       y       z     vdW  Elec       q    Type
REMARK                         _______ _______ _______ _____ _____    ______ ____
ROOT
ATOM      1  O   UNL     1       6.693   2.293  21.437  0.00  0.00    +0.000 OA
ATOM      2  C   UNL     1       7.762   1.325  21.182  0.00  0.00    +0.000 C 
ATOM      3  S   UNL     1       6.917   0.427  19.730  0.00  0.00    +0.000 S 
ATOM      4  O   UNL     1       7.944  -0.067  18.929  0.00  0.00    +0.000 OA
ATOM      5  O   UNL     1       5.684   0.812  19.467  0.00  0.00    +0.000 OA
ATOM      6  N   UNL     1       6.592  -1.044  20.789  0.00  0.00    +0.000 NA
ATOM      7  C   UNL     1       7.543  -0.650  21.430  0.00  0.00    +0.000 C 
ATOM      8  C   UNL     1       7.683   0.405  22.438  0.00  0.00    +0.000 C 
ATOM      9  C   UNL     1       7.842   1.472  23.422  0.00  0.00    +0.000 C 
ATOM     10  C   UNL     1       9.134   0.882  24.524  0.00  0.00    +0.000 C 
ATOM     11  C   UNL     1       8.680  -0.451  24.574  0.00  0.00    +0.000 C 
ATOM     12  C   UNL     1       8.593  -0.605  22.972  0.00  0.00    +0.000 C 
ATOM     13  C   UNL     1       8.287  -2.121  23.112  0.00  0.00    +0.000 C 
ATOM     14  C   UNL     1       9.230  -1.894  24.558  0.00  0.00    +0.000 C 
ATOM     15  C   UNL     1       8.417  -2.782  25.467  0.00  0.00    +0.000 C 
ATOM     16  C   UNL     1       7.233  -0.573  25.114  0.00  0.00    +0.000 C 
ATOM     17  C   UNL     1       6.933   0.823  25.718  0.00  0.00    +0.000 C 
ATOM     18  C   UNL     1       6.875   1.766  24.474  0.00  0.00    +0.000 C 
ATOM     19  C   UNL     1       5.453   1.996  24.122  0.00  0.00    +0.000 C 
ATOM     20  O   UNL     1       7.342   3.022  25.078  0.00  0.00    +0.000 OA
ENDROOT
BRANCH  12  21
ATOM     21  C   UNL     1       9.985  -0.509  22.434  0.00  0.00    +0.000 C 
ATOM     22  O   UNL     1      10.002   0.415  21.627  0.00  0.00    +0.000 OA
ATOM     23  O   UNL     1      10.325  -1.738  21.932  0.00  0.00    +0.000 OA
ENDBRANCH  12  21
TORSDOF 1
ENDMDL
MODEL 4
REMARK VINA RESULT:      -7.0      1.920      3.967
REMARK  Name = 
REMARK  1 active torsions:
REMARK  status: ('A' for Active; 'I' for Inactive)
REMARK    1  A    between atoms: C_13  and  C_17
REMARK                            x       y       z     vdW  Elec       q    Type
REMARK                         _______ _______ _______ _____ _____    ______ ____
ROOT
ATOM      1  O   UNL     1       9.545  -1.783  23.891  0.00  0.00    +0.000 OA
ATOM      2  C   UNL     1       8.503  -1.896  22.868  0.00  0.00    +0.000 C 
ATOM      3  S   UNL     1       7.866  -0.104  22.991  0.00  0.00    +0.000 S 
ATOM      4  O   UNL     1       7.359   0.213  21.733  0.00  0.00    +0.000 OA
ATOM      5  O   UNL     1       8.408   0.624  23.947  0.00  0.00    +0.000 OA
ATOM      6  N   UNL     1       6.330  -0.675  23.830  0.00  0.00    +0.000 NA
ATOM      7  C   UNL     1       6.547  -1.725  23.263  0.00  0.00    +0.000 C 
ATOM      8  C   UNL     1       7.463  -2.831  23.556  0.00  0.00    +0.000 C 
ATOM      9  C   UNL     1       8.391  -3.928  23.819  0.00  0.00    +0.000 C 
ATOM     10  C   UNL     1       7.547  -5.391  23.205  0.00  0.00    +0.000 C 
ATOM     11  C   UNL     1       6.273  -5.035  23.690  0.00  0.00    +0.000 C 
ATOM     12  C   UNL     1       6.309  -3.562  23.038  0.00  0.00    +0.000 C 
ATOM     13  C   UNL     1       4.827  -3.324  23.441  0.00  0.00    +0.000 C 
ATOM     14  C   UNL     1       4.791  -5.056  23.258  0.00  0.00    +0.000 C 
ATOM     15  C   UNL     1       3.899  -5.360  24.436  0.00  0.00    +0.000 C 
ATOM     16  C   UNL     1       6.246  -4.844  25.227  0.00  0.00    +0.000 C 
ATOM     17  C   UNL     1       7.591  -5.448  25.709  0.00  0.00    +0.000 C 
ATOM     18  C   UNL     1       8.667  -4.464  25.148  0.00  0.00    +0.000 C 
ATOM     19  C   UNL     1       9.085  -3.550  26.237  0.00  0.00    +0.000 C 
ATOM     20  O   UNL     1       9.791  -5.391  24.955  0.00  0.00    +0.000 OA
ENDROOT
BRANCH  12  21
ATOM     21  C   UNL     1       6.314  -3.726  21.552  0.00  0.00    +0.000 C 
ATOM     22  O   UNL     1       5.580  -2.861  21.086  0.00  0.00    +0.000 OA
ATOM     23  O   UNL     1       5.955  -5.019  21.273  0.00  0.00    +0.000 OA
ENDBRANCH  12  21
TORSDOF 1
ENDMDL
MODEL 5
REMARK VINA RESULT:      -7.0      2.789      4.950
REMARK  Name = 
REMARK  1 active torsions:
REMARK  status: ('A' for Active; 'I' for Inactive)
REMARK    1  A    between atoms: C_13  and  C_17
REMARK                            x       y       z     vdW  Elec       q    Type
REMARK                         _______ _______ _______ _____ _____    ______ ____
ROOT
ATOM      1  O   UNL     1       7.980  -2.918  21.931  0.00  0.00    +0.000 OA
ATOM      2  C   UNL     1       8.813  -2.306  22.968  0.00  0.00    +0.000 C 
ATOM      3  S   UNL     1       8.065  -3.245  24.448  0.00  0.00    +0.000 S 
ATOM      4  O   UNL     1       9.075  -3.331  25.403  0.00  0.00    +0.000 OA
ATOM      5  O   UNL     1       7.032  -4.015  24.166  0.00  0.00    +0.000 OA
ATOM      6  N   UNL     1       7.204  -1.721  25.019  0.00  0.00    +0.000 NA
ATOM      7  C   UNL     1       8.084  -1.138  24.422  0.00  0.00    +0.000 C 
ATOM      8  C   UNL     1       8.281  -0.841  23.000  0.00  0.00    +0.000 C 
ATOM      9  C   UNL     1       8.505  -0.565  21.584  0.00  0.00    +0.000 C 
ATOM     10  C   UNL     1       9.387   1.001  21.563  0.00  0.00    +0.000 C 
ATOM     11  C   UNL     1       8.625   1.607  22.582  0.00  0.00    +0.000 C 
ATOM     12  C   UNL     1       8.805   0.378  23.609  0.00  0.00    +0.000 C 
ATOM     13  C   UNL     1       8.124   1.195  24.740  0.00  0.00    +0.000 C 
ATOM     14  C   UNL     1       8.806   2.509  23.822  0.00  0.00    +0.000 C 
ATOM     15  C   UNL     1       7.648   3.466  23.956  0.00  0.00    +0.000 C 
ATOM     16  C   UNL     1       7.117   1.685  22.239  0.00  0.00    +0.000 C 
ATOM     17  C   UNL     1       7.053   1.353  20.726  0.00  0.00    +0.000 C 
ATOM     18  C   UNL     1       7.457  -0.155  20.655  0.00  0.00    +0.000 C 
ATOM     19  C   UNL     1       6.224  -0.969  20.533  0.00  0.00    +0.000 C 
ATOM     20  O   UNL     1       8.091  -0.193  19.329  0.00  0.00    +0.000 OA
ENDROOT
BRANCH  12  21
ATOM     21  C   UNL     1      10.255   0.300  23.967  0.00  0.00    +0.000 C 
ATOM     22  O   UNL     1      10.742  -0.623  23.322  0.00  0.00    +0.000 OA
ATOM     23  O   UNL     1      10.344   0.181  25.330  0.00  0.00    +0.000 OA
ENDBRANCH  12  21
TORSDOF 1
ENDMDL
MODEL 6
REMARK VINA RESULT:      -7.0      1.754      2.024
REMARK  Name = 
REMARK  1 active torsions:
REMARK  status: ('A' for Active; 'I' for Inactive)
REMARK    1  A    between atoms: C_13  and  C_17
REMARK                            x       y       z     vdW  Elec       q    Type
REMARK                         _______ _______ _______ _____ _____    ______ ____
ROOT
ATOM      1  O   UNL     1       7.708  -2.212  21.819  0.00  0.00    +0.000 OA
ATOM      2  C   UNL     1       7.927  -1.683  23.167  0.00  0.00    +0.000 C 
ATOM      3  S   UNL     1       9.819  -1.497  23.035  0.00  0.00    +0.000 S 
ATOM      4  O   UNL     1      10.166  -0.453  23.889  0.00  0.00    +0.000 OA
ATOM      5  O   UNL     1      10.357  -1.960  21.924  0.00  0.00    +0.000 OA
ATOM      6  N   UNL     1      10.070  -2.935  24.157  0.00  0.00    +0.000 NA
ATOM      7  C   UNL     1       8.967  -2.654  24.576  0.00  0.00    +0.000 C 
ATOM      8  C   UNL     1       7.620  -2.921  24.063  0.00  0.00    +0.000 C 
ATOM      9  C   UNL     1       6.274  -3.154  23.548  0.00  0.00    +0.000 C 
ATOM     10  C   UNL     1       5.249  -3.311  25.017  0.00  0.00    +0.000 C 
ATOM     11  C   UNL     1       6.174  -4.077  25.754  0.00  0.00    +0.000 C 
ATOM     12  C   UNL     1       7.398  -3.060  25.499  0.00  0.00    +0.000 C 
ATOM     13  C   UNL     1       8.294  -3.857  26.486  0.00  0.00    +0.000 C 
ATOM     14  C   UNL     1       6.737  -4.201  27.186  0.00  0.00    +0.000 C 
ATOM     15  C   UNL     1       6.992  -5.647  27.533  0.00  0.00    +0.000 C 
ATOM     16  C   UNL     1       6.546  -5.408  25.054  0.00  0.00    +0.000 C 
ATOM     17  C   UNL     1       5.489  -5.555  23.929  0.00  0.00    +0.000 C 
ATOM     18  C   UNL     1       5.839  -4.403  22.932  0.00  0.00    +0.000 C 
ATOM     19  C   UNL     1       6.612  -4.975  21.804  0.00  0.00    +0.000 C 
ATOM     20  O   UNL     1       4.504  -4.113  22.390  0.00  0.00    +0.000 OA
ENDROOT
BRANCH  12  21
ATOM     21  C   UNL     1       7.064  -1.774  26.186  0.00  0.00    +0.000 C 
ATOM     22  O   UNL     1       6.643  -1.001  25.331  0.00  0.00    +0.000 OA
ATOM     23  O   UNL     1       8.183  -1.357  26.860  0.00  0.00    +0.000 OA
ENDBRANCH  12  21
TORSDOF 1
ENDMDL
MODEL 7
REMARK VINA RESULT:      -7.0      2.917      5.012
REMARK  Name = 
REMARK  1 active torsions:
REMARK  status: ('A' for Active; 'I' for Inactive)
REMARK    1  A    between atoms: C_13  and  C_17
REMARK                            x       y       z     vdW  Elec       q    Type
REMARK                         _______ _______ _______ _____ _____    ______ ____
ROOT
ATOM      1  O   UNL     1       8.865  -0.156  25.942  0.00  0.00    +0.000 OA
ATOM      2  C   UNL     1       8.952   0.924  24.957  0.00  0.00    +0.000 C 
ATOM      3  S   UNL     1       7.695   2.093  25.785  0.00  0.00    +0.000 S 
ATOM      4  O   UNL     1       8.075   3.385  25.429  0.00  0.00    +0.000 OA
ATOM      5  O   UNL     1       7.076   1.601  26.840  0.00  0.00    +0.000 OA
ATOM      6  N   UNL     1       6.455   1.741  24.471  0.00  0.00    +0.000 NA
ATOM      7  C   UNL     1       7.423   1.477  23.788  0.00  0.00    +0.000 C 
ATOM      8  C   UNL     1       8.275   0.288  23.706  0.00  0.00    +0.000 C 
ATOM      9  C   UNL     1       9.150  -0.879  23.634  0.00  0.00    +0.000 C 
ATOM     10  C   UNL     1       9.683  -0.940  21.918  0.00  0.00    +0.000 C 
ATOM     11  C   UNL     1       8.429  -0.607  21.368  0.00  0.00    +0.000 C 
ATOM     12  C   UNL     1       8.232   0.691  22.303  0.00  0.00    +0.000 C 
ATOM     13  C   UNL     1       6.959   1.095  21.511  0.00  0.00    +0.000 C 
ATOM     14  C   UNL     1       7.818   0.261  20.247  0.00  0.00    +0.000 C 
ATOM     15  C   UNL     1       6.631  -0.432  19.626  0.00  0.00    +0.000 C 
ATOM     16  C   UNL     1       7.316  -1.611  21.757  0.00  0.00    +0.000 C 
ATOM     17  C   UNL     1       8.084  -2.818  22.357  0.00  0.00    +0.000 C 
ATOM     18  C   UNL     1       8.679  -2.259  23.689  0.00  0.00    +0.000 C 
ATOM     19  C   UNL     1       7.814  -2.696  24.812  0.00  0.00    +0.000 C 
ATOM     20  O   UNL     1       9.899  -3.072  23.790  0.00  0.00    +0.000 OA
ENDROOT
BRANCH  12  21
ATOM     21  C   UNL     1       9.288   1.681  21.926  0.00  0.00    +0.000 C 
ATOM     22  O   UNL     1      10.248   1.491  22.666  0.00  0.00    +0.000 OA
ATOM     23  O   UNL     1       8.731   2.932  21.990  0.00  0.00    +0.000 OA
ENDBRANCH  12  21
TORSDOF 1
ENDMDL
MODEL 8
REMARK VINA RESULT:      -6.8      2.562      5.166
REMARK  Name = 
REMARK  1 active torsions:
REMARK  status: ('A' for Active; 'I' for Inactive)
REMARK    1  A    between atoms: C_13  and  C_17
REMARK                            x       y       z     vdW  Elec       q    Type
REMARK                         _______ _______ _______ _____ _____    ______ ____
ROOT
ATOM      1  O   UNL     1       7.609  -3.084  26.495  0.00  0.00    +0.000 OA
ATOM      2  C   UNL     1       7.559  -3.315  25.050  0.00  0.00    +0.000 C 
ATOM      3  S   UNL     1       8.891  -4.676  24.990  0.00  0.00    +0.000 S 
ATOM      4  O   UNL     1       8.573  -5.481  23.898  0.00  0.00    +0.000 OA
ATOM      5  O   UNL     1       9.504  -4.919  26.131  0.00  0.00    +0.000 OA
ATOM      6  N   UNL     1      10.085  -3.517  24.204  0.00  0.00    +0.000 NA
ATOM      7  C   UNL     1       9.093  -2.936  23.819  0.00  0.00    +0.000 C 
ATOM      8  C   UNL     1       8.178  -2.002  24.482  0.00  0.00    +0.000 C 
ATOM      9  C   UNL     1       7.242  -1.094  25.138  0.00  0.00    +0.000 C 
ATOM     10  C   UNL     1       6.674  -0.004  23.827  0.00  0.00    +0.000 C 
ATOM     11  C   UNL     1       7.933   0.146  23.211  0.00  0.00    +0.000 C 
ATOM     12  C   UNL     1       8.215  -1.438  23.135  0.00  0.00    +0.000 C 
ATOM     13  C   UNL     1       9.493  -1.192  22.287  0.00  0.00    +0.000 C 
ATOM     14  C   UNL     1       8.567   0.202  21.805  0.00  0.00    +0.000 C 
ATOM     15  C   UNL     1       9.704   1.193  21.774  0.00  0.00    +0.000 C 
ATOM     16  C   UNL     1       8.999   0.745  24.163  0.00  0.00    +0.000 C 
ATOM     17  C   UNL     1       8.180   1.271  25.370  0.00  0.00    +0.000 C 
ATOM     18  C   UNL     1       7.641  -0.028  26.052  0.00  0.00    +0.000 C 
ATOM     19  C   UNL     1       8.503  -0.342  27.217  0.00  0.00    +0.000 C 
ATOM     20  O   UNL     1       6.382   0.478  26.616  0.00  0.00    +0.000 OA
ENDROOT
BRANCH  12  21
ATOM     21  C   UNL     1       7.206  -2.031  22.204  0.00  0.00    +0.000 C 
ATOM     22  O   UNL     1       7.636  -3.123  21.846  0.00  0.00    +0.000 OA
ATOM     23  O   UNL     1       6.981  -1.126  21.199  0.00  0.00    +0.000 OA
ENDBRANCH  12  21
TORSDOF 1
ENDMDL
MODEL 9
REMARK VINA RESULT:      -6.7      2.622      3.831
REMARK  Name = 
REMARK  1 active torsions:
REMARK  status: ('A' for Active; 'I' for Inactive)
REMARK    1  A    between atoms: C_13  and  C_17
REMARK                            x       y       z     vdW  Elec       q    Type
REMARK                         _______ _______ _______ _____ _____    ______ ____
ROOT
ATOM      1  O   UNL     1       7.121  -1.008  27.057  0.00  0.00    +0.000 OA
ATOM      2  C   UNL     1       8.228  -1.592  26.297  0.00  0.00    +0.000 C 
ATOM      3  S   UNL     1       8.734  -0.005  25.372  0.00  0.00    +0.000 S 
ATOM      4  O   UNL     1      10.097  -0.128  25.109  0.00  0.00    +0.000 OA
ATOM      5  O   UNL     1       7.951   1.037  25.566  0.00  0.00    +0.000 OA
ATOM      6  N   UNL     1       8.038  -0.663  23.799  0.00  0.00    +0.000 NA
ATOM      7  C   UNL     1       8.234  -1.750  24.301  0.00  0.00    +0.000 C 
ATOM      8  C   UNL     1       7.486  -2.526  25.294  0.00  0.00    +0.000 C 
ATOM      9  C   UNL     1       6.768  -3.298  26.304  0.00  0.00    +0.000 C 
ATOM     10  C   UNL     1       7.068  -5.014  25.860  0.00  0.00    +0.000 C 
ATOM     11  C   UNL     1       6.928  -4.829  24.470  0.00  0.00    +0.000 C 
ATOM     12  C   UNL     1       7.959  -3.592  24.413  0.00  0.00    +0.000 C 
ATOM     13  C   UNL     1       7.896  -3.583  22.861  0.00  0.00    +0.000 C 
ATOM     14  C   UNL     1       7.578  -5.272  23.142  0.00  0.00    +0.000 C 
ATOM     15  C   UNL     1       6.530  -5.456  22.073  0.00  0.00    +0.000 C 
ATOM     16  C   UNL     1       5.538  -4.270  24.076  0.00  0.00    +0.000 C 
ATOM     17  C   UNL     1       4.683  -4.433  25.360  0.00  0.00    +0.000 C 
ATOM     18  C   UNL     1       5.314  -3.414  26.363  0.00  0.00    +0.000 C 
ATOM     19  C   UNL     1       4.479  -2.189  26.379  0.00  0.00    +0.000 C 
ATOM     20  O   UNL     1       5.041  -4.098  27.635  0.00  0.00    +0.000 OA
ENDROOT
BRANCH  12  21
ATOM     21  C   UNL     1       9.312  -4.117  24.772  0.00  0.00    +0.000 C 
ATOM     22  O   UNL     1      10.135  -3.481  24.120  0.00  0.00    +0.000 OA
ATOM     23  O   UNL     1       9.306  -5.471  24.558  0.00  0.00    +0.000 OA
ENDBRANCH  12  21
TORSDOF 1
ENDMDL
