MODEL 1
REMARK VINA RESULT:      -7.9      0.000      0.000
REMARK  Name = 
REMARK  4 active torsions:
REMARK  status: ('A' for Active; 'I' for Inactive)
REMARK    1  A    between atoms: N_13  and  C_16
REMARK    2  A    between atoms: C_16  and  N_17
REMARK    3  A    between atoms: N_20  and  C_23
REMARK    4  A    between atoms: C_23  and  N_24
REMARK                            x       y       z     vdW  Elec       q    Type
REMARK                         _______ _______ _______ _____ _____    ______ ____
ROOT
ATOM      1  C   UNL     1       7.235  -4.238  25.770  0.00  0.00    +0.000 C 
ENDROOT
BRANCH   1  14
ATOM      2  O   UNL     1       5.686  -6.516  26.054  0.00  0.00    +0.000 OA
ATOM      3  C   UNL     1       4.510  -6.029  25.641  0.00  0.00    +0.000 C 
ATOM      4  C   UNL     1       3.332  -6.923  25.951  0.00  0.00    +0.000 C 
ATOM      5  C   UNL     1       2.057  -6.300  25.371  0.00  0.00    +0.000 C 
ATOM      6  N   UNL     1       2.468  -5.169  24.502  0.00  0.00    +0.000 N 
ATOM      7  C   UNL     1       3.087  -4.033  25.221  0.00  0.00    +0.000 C 
ATOM      8  C   UNL     1       4.219  -4.610  26.066  0.00  0.00    +0.000 C 
ATOM      9  C   UNL     1       3.049  -5.511  23.319  0.00  0.00    +0.000 C 
ATOM     10  O   UNL     1       2.686  -6.506  22.732  0.00  0.00    +0.000 OA
ATOM     11  N   UNL     1       4.342  -5.125  23.330  0.00  0.00    +0.000 N 
ATOM     12  C   UNL     1       5.386  -6.136  23.248  0.00  0.00    +0.000 C 
ATOM     13  C   UNL     1       6.649  -5.603  23.940  0.00  0.00    +0.000 C 
ATOM     14  N   UNL     1       6.325  -4.504  24.753  0.00  0.00    +0.000 NA
ATOM     15  C   UNL     1       5.922  -3.390  24.004  0.00  0.00    +0.000 C 
ATOM     16  C   UNL     1       4.681  -3.725  23.170  0.00  0.00    +0.000 C 
ENDBRANCH   1  14
BRANCH   1  17
ATOM     17  N   UNL     1       8.158  -3.300  25.677  0.00  0.00    +0.000 NA
ATOM     18  C   UNL     1       9.374  -3.467  25.027  0.00  0.00    +0.000 C 
ATOM     19  C   UNL     1       9.595  -2.364  23.980  0.00  0.00    +0.000 C 
ATOM     20  N   UNL     1       9.436  -1.087  24.533  0.00  0.00    +0.000 NA
ATOM     21  C   UNL     1       9.308  -1.220  25.984  0.00  0.00    +0.000 C 
ATOM     22  C   UNL     1       8.015  -2.029  26.248  0.00  0.00    +0.000 C 
BRANCH  20  23
ATOM     23  C   UNL     1       8.384  -0.328  24.072  0.00  0.00    +0.000 C 
BRANCH  23  24
ATOM     24  N   UNL     1       8.169  -0.170  22.668  0.00  0.00    +0.000 NA
ATOM     25  C   UNL     1       8.056   1.207  22.356  0.00  0.00    +0.000 C 
ATOM     26  C   UNL     1       7.175   1.512  21.184  0.00  0.00    +0.000 C 
ATOM     27  N   UNL     1       7.015   0.383  20.304  0.00  0.00    +0.000 N 
ATOM     28  C   UNL     1       6.716  -0.926  20.879  0.00  0.00    +0.000 C 
ATOM     29  C   UNL     1       6.901  -0.823  22.388  0.00  0.00    +0.000 C 
ATOM     30  C   UNL     1       6.946   0.544  18.967  0.00  0.00    +0.000 C 
ATOM     31  O   UNL     1       7.699  -0.068  18.232  0.00  0.00    +0.000 OA
ATOM     32  C   UNL     1       5.660   1.147  18.437  0.00  0.00    +0.000 C 
ENDBRANCH  23  24
ENDBRANCH  20  23
ENDBRANCH   1  17
TORSDOF 4
ENDMDL
MODEL 2
REMARK VINA RESULT:      -7.7      1.904      7.090
REMARK  Name = 
REMARK  4 active torsions:
REMARK  status: ('A' for Active; 'I' for Inactive)
REMARK    1  A    between atoms: N_13  and  C_16
REMARK    2  A    between atoms: C_16  and  N_17
REMARK    3  A    between atoms: N_20  and  C_23
REMARK    4  A    between atoms: C_23  and  N_24
REMARK                            x       y       z     vdW  Elec       q    Type
REMARK                         _______ _______ _______ _____ _____    ______ ____
ROOT
ATOM      1  C   UNL     1       9.525  -1.532  24.637  0.00  0.00    +0.000 C 
ENDROOT
BRANCH   1  14
ATOM      2  O   UNL     1       7.421   0.268  24.670  0.00  0.00    +0.000 OA
ATOM      3  C   UNL     1       7.744   0.997  23.596  0.00  0.00    +0.000 C 
ATOM      4  C   UNL     1       6.973   2.290  23.476  0.00  0.00    +0.000 C 
ATOM      5  C   UNL     1       7.375   3.001  22.178  0.00  0.00    +0.000 C 
ATOM      6  N   UNL     1       8.194   2.052  21.384  0.00  0.00    +0.000 N 
ATOM      7  C   UNL     1       9.502   1.712  21.987  0.00  0.00    +0.000 C 
ATOM      8  C   UNL     1       9.222   1.248  23.414  0.00  0.00    +0.000 C 
ATOM      9  C   UNL     1       7.516   1.017  20.813  0.00  0.00    +0.000 C 
ATOM     10  O   UNL     1       6.386   1.182  20.412  0.00  0.00    +0.000 OA
ATOM     11  N   UNL     1       7.904  -0.141  21.390  0.00  0.00    +0.000 N 
ATOM     12  C   UNL     1       6.929  -0.926  22.132  0.00  0.00    +0.000 C 
ATOM     13  C   UNL     1       7.662  -1.740  23.208  0.00  0.00    +0.000 C 
ATOM     14  N   UNL     1       8.951  -1.220  23.409  0.00  0.00    +0.000 NA
ATOM     15  C   UNL     1       9.781  -1.411  22.296  0.00  0.00    +0.000 C 
ATOM     16  C   UNL     1       9.193  -0.716  21.064  0.00  0.00    +0.000 C 
ENDBRANCH   1  14
BRANCH   1  17
ATOM     17  N   UNL     1       9.186  -2.599  25.335  0.00  0.00    +0.000 NA
ATOM     18  C   UNL     1       8.414  -2.562  26.489  0.00  0.00    +0.000 C 
ATOM     19  C   UNL     1       7.205  -3.505  26.374  0.00  0.00    +0.000 C 
ATOM     20  N   UNL     1       7.594  -4.801  26.013  0.00  0.00    +0.000 NA
ATOM     21  C   UNL     1       9.054  -4.880  26.060  0.00  0.00    +0.000 C 
ATOM     22  C   UNL     1       9.591  -3.896  24.992  0.00  0.00    +0.000 C 
BRANCH  20  23
ATOM     23  C   UNL     1       7.172  -5.265  24.787  0.00  0.00    +0.000 C 
BRANCH  23  24
ATOM     24  N   UNL     1       5.779  -5.322  24.477  0.00  0.00    +0.000 NA
ATOM     25  C   UNL     1       5.170  -6.371  25.208  0.00  0.00    +0.000 C 
ATOM     26  C   UNL     1       3.996  -7.005  24.529  0.00  0.00    +0.000 C 
ATOM     27  N   UNL     1       3.399  -6.147  23.538  0.00  0.00    +0.000 N 
ATOM     28  C   UNL     1       4.265  -5.456  22.587  0.00  0.00    +0.000 C 
ATOM     29  C   UNL     1       5.703  -5.629  23.058  0.00  0.00    +0.000 C 
ATOM     30  C   UNL     1       2.064  -6.119  23.351  0.00  0.00    +0.000 C 
ATOM     31  O   UNL     1       1.456  -5.065  23.402  0.00  0.00    +0.000 OA
ATOM     32  C   UNL     1       1.464  -7.332  22.670  0.00  0.00    +0.000 C 
ENDBRANCH  23  24
ENDBRANCH  20  23
ENDBRANCH   1  17
TORSDOF 4
ENDMDL
MODEL 3
REMARK VINA RESULT:      -7.7      2.592      8.452
REMARK  Name = 
REMARK  4 active torsions:
REMARK  status: ('A' for Active; 'I' for Inactive)
REMARK    1  A    between atoms: N_13  and  C_16
REMARK    2  A    between atoms: C_16  and  N_17
REMARK    3  A    between atoms: N_20  and  C_23
REMARK    4  A    between atoms: C_23  and  N_24
REMARK                            x       y       z     vdW  Elec       q    Type
REMARK                         _______ _______ _______ _____ _____    ______ ____
ROOT
ATOM      1  C   UNL     1       7.096  -1.489  23.495  0.00  0.00    +0.000 C 
ENDROOT
BRANCH   1  14
ATOM      2  O   UNL     1       7.099   0.818  21.964  0.00  0.00    +0.000 OA
ATOM      3  C   UNL     1       7.694   1.649  22.827  0.00  0.00    +0.000 C 
ATOM      4  C   UNL     1       7.593   3.107  22.446  0.00  0.00    +0.000 C 
ATOM      5  C   UNL     1       8.367   3.952  23.465  0.00  0.00    +0.000 C 
ATOM      6  N   UNL     1       9.142   3.020  24.321  0.00  0.00    +0.000 N 
ATOM      7  C   UNL     1       8.318   2.145  25.184  0.00  0.00    +0.000 C 
ATOM      8  C   UNL     1       7.305   1.456  24.273  0.00  0.00    +0.000 C 
ATOM      9  C   UNL     1      10.218   2.429  23.730  0.00  0.00    +0.000 C 
ATOM     10  O   UNL     1      10.869   3.038  22.911  0.00  0.00    +0.000 OA
ATOM     11  N   UNL     1       9.990   1.103  23.614  0.00  0.00    +0.000 N 
ATOM     12  C   UNL     1       9.911   0.510  22.288  0.00  0.00    +0.000 C 
ATOM     13  C   UNL     1       9.014  -0.734  22.352  0.00  0.00    +0.000 C 
ATOM     14  N   UNL     1       8.252  -0.717  23.532  0.00  0.00    +0.000 NA
ATOM     15  C   UNL     1       9.043  -0.880  24.678  0.00  0.00    +0.000 C 
ATOM     16  C   UNL     1      10.074   0.249  24.781  0.00  0.00    +0.000 C 
ENDBRANCH   1  14
BRANCH   1  17
ATOM     17  N   UNL     1       7.019  -2.632  22.842  0.00  0.00    +0.000 NA
ATOM     18  C   UNL     1       8.055  -3.554  22.763  0.00  0.00    +0.000 C 
ATOM     19  C   UNL     1       7.587  -4.948  23.212  0.00  0.00    +0.000 C 
ATOM     20  N   UNL     1       6.435  -5.352  22.526  0.00  0.00    +0.000 NA
ATOM     21  C   UNL     1       6.169  -4.393  21.454  0.00  0.00    +0.000 C 
ATOM     22  C   UNL     1       5.879  -3.032  22.134  0.00  0.00    +0.000 C 
BRANCH  20  23
ATOM     23  C   UNL     1       5.284  -5.509  23.265  0.00  0.00    +0.000 C 
BRANCH  23  24
ATOM     24  N   UNL     1       5.348  -6.001  24.605  0.00  0.00    +0.000 NA
ATOM     25  C   UNL     1       4.323  -6.957  24.810  0.00  0.00    +0.000 C 
ATOM     26  C   UNL     1       3.807  -7.027  26.214  0.00  0.00    +0.000 C 
ATOM     27  N   UNL     1       4.745  -6.507  27.176  0.00  0.00    +0.000 N 
ATOM     28  C   UNL     1       5.401  -5.231  26.904  0.00  0.00    +0.000 C 
ATOM     29  C   UNL     1       5.100  -4.852  25.459  0.00  0.00    +0.000 C 
ATOM     30  C   UNL     1       4.883  -7.071  28.392  0.00  0.00    +0.000 C 
ATOM     31  O   UNL     1       5.978  -7.430  28.785  0.00  0.00    +0.000 OA
ATOM     32  C   UNL     1       3.746  -6.835  29.366  0.00  0.00    +0.000 C 
ENDBRANCH  23  24
ENDBRANCH  20  23
ENDBRANCH   1  17
TORSDOF 4
ENDMDL
MODEL 4
REMARK VINA RESULT:      -7.6      3.155      4.687
REMARK  Name = 
REMARK  4 active torsions:
REMARK  status: ('A' for Active; 'I' for Inactive)
REMARK    1  A    between atoms: N_13  and  C_16
REMARK    2  A    between atoms: C_16  and  N_17
REMARK    3  A    between atoms: N_20  and  C_23
REMARK    4  A    between atoms: C_23  and  N_24
REMARK                            x       y       z     vdW  Elec       q    Type
REMARK                         _______ _______ _______ _____ _____    ______ ____
ROOT
ATOM      1  C   UNL     1       9.903  -0.923  23.939  0.00  0.00    +0.000 C 
ENDROOT
BRANCH   1  14
ATOM      2  O   UNL     1      10.087  -3.670  24.236  0.00  0.00    +0.000 OA
ATOM      3  C   UNL     1       8.980  -3.884  24.957  0.00  0.00    +0.000 C 
ATOM      4  C   UNL     1       8.907  -5.258  25.579  0.00  0.00    +0.000 C 
ATOM      5  C   UNL     1       7.571  -5.411  26.315  0.00  0.00    +0.000 C 
ATOM      6  N   UNL     1       6.724  -4.248  25.950  0.00  0.00    +0.000 N 
ATOM      7  C   UNL     1       7.220  -2.944  26.443  0.00  0.00    +0.000 C 
ATOM      8  C   UNL     1       8.672  -2.824  25.987  0.00  0.00    +0.000 C 
ATOM      9  C   UNL     1       6.226  -4.253  24.681  0.00  0.00    +0.000 C 
ATOM     10  O   UNL     1       5.919  -5.299  24.157  0.00  0.00    +0.000 OA
ATOM     11  N   UNL     1       6.784  -3.243  23.981  0.00  0.00    +0.000 N 
ATOM     12  C   UNL     1       7.616  -3.553  22.827  0.00  0.00    +0.000 C 
ATOM     13  C   UNL     1       8.637  -2.423  22.633  0.00  0.00    +0.000 C 
ATOM     14  N   UNL     1       8.723  -1.646  23.801  0.00  0.00    +0.000 NA
ATOM     15  C   UNL     1       7.547  -0.925  24.047  0.00  0.00    +0.000 C 
ATOM     16  C   UNL     1       6.359  -1.878  24.216  0.00  0.00    +0.000 C 
ENDBRANCH   1  14
BRANCH   1  17
ATOM     17  N   UNL     1      10.040   0.313  23.500  0.00  0.00    +0.000 NA
ATOM     18  C   UNL     1      10.038   0.667  22.157  0.00  0.00    +0.000 C 
ATOM     19  C   UNL     1       8.998   1.763  21.878  0.00  0.00    +0.000 C 
ATOM     20  N   UNL     1       9.158   2.858  22.736  0.00  0.00    +0.000 NA
ATOM     21  C   UNL     1      10.400   2.683  23.489  0.00  0.00    +0.000 C 
ATOM     22  C   UNL     1      10.224   1.410  24.352  0.00  0.00    +0.000 C 
BRANCH  20  23
ATOM     23  C   UNL     1       8.141   3.113  23.628  0.00  0.00    +0.000 C 
BRANCH  23  24
ATOM     24  N   UNL     1       6.790   3.211  23.174  0.00  0.00    +0.000 NA
ATOM     25  C   UNL     1       6.529   4.534  22.738  0.00  0.00    +0.000 C 
ATOM     26  C   UNL     1       5.109   4.979  22.911  0.00  0.00    +0.000 C 
ATOM     27  N   UNL     1       4.190   3.875  23.004  0.00  0.00    +0.000 N 
ATOM     28  C   UNL     1       4.516   2.756  23.884  0.00  0.00    +0.000 C 
ATOM     29  C   UNL     1       5.962   2.924  24.333  0.00  0.00    +0.000 C 
ATOM     30  C   UNL     1       2.962   3.940  22.452  0.00  0.00    +0.000 C 
ATOM     31  O   UNL     1       2.589   3.081  21.673  0.00  0.00    +0.000 OA
ATOM     32  C   UNL     1       1.964   4.838  23.156  0.00  0.00    +0.000 C 
ENDBRANCH  23  24
ENDBRANCH  20  23
ENDBRANCH   1  17
TORSDOF 4
ENDMDL
MODEL 5
REMARK VINA RESULT:      -7.5      1.648      2.279
REMARK  Name = 
REMARK  4 active torsions:
REMARK  status: ('A' for Active; 'I' for Inactive)
REMARK    1  A    between atoms: N_13  and  C_16
REMARK    2  A    between atoms: C_16  and  N_17
REMARK    3  A    between atoms: N_20  and  C_23
REMARK    4  A    between atoms: C_23  and  N_24
REMARK                            x       y       z     vdW  Elec       q    Type
REMARK                         _______ _______ _______ _____ _____    ______ ____
ROOT
ATOM      1  C   UNL     1       7.914  -2.798  26.117  0.00  0.00    +0.000 C 
ENDROOT
BRANCH   1  14
ATOM      2  O   UNL     1       6.553  -5.209  26.135  0.00  0.00    +0.000 OA
ATOM      3  C   UNL     1       5.968  -5.136  24.935  0.00  0.00    +0.000 C 
ATOM      4  C   UNL     1       4.879  -6.160  24.718  0.00  0.00    +0.000 C 
ATOM      5  C   UNL     1       4.335  -6.026  23.290  0.00  0.00    +0.000 C 
ATOM      6  N   UNL     1       5.237  -5.107  22.552  0.00  0.00    +0.000 N 
ATOM      7  C   UNL     1       5.224  -3.709  23.037  0.00  0.00    +0.000 C 
ATOM      8  C   UNL     1       5.483  -3.762  24.541  0.00  0.00    +0.000 C 
ATOM      9  C   UNL     1       6.461  -5.612  22.227  0.00  0.00    +0.000 C 
ATOM     10  O   UNL     1       6.576  -6.783  21.945  0.00  0.00    +0.000 OA
ATOM     11  N   UNL     1       7.413  -4.949  22.918  0.00  0.00    +0.000 N 
ATOM     12  C   UNL     1       8.227  -5.676  23.881  0.00  0.00    +0.000 C 
ATOM     13  C   UNL     1       8.699  -4.702  24.968  0.00  0.00    +0.000 C 
ATOM     14  N   UNL     1       7.925  -3.530  24.934  0.00  0.00    +0.000 NA
ATOM     15  C   UNL     1       8.145  -2.781  23.770  0.00  0.00    +0.000 C 
ATOM     16  C   UNL     1       7.787  -3.605  22.528  0.00  0.00    +0.000 C 
ENDBRANCH   1  14
BRANCH   1  17
ATOM     17  N   UNL     1       8.120  -1.496  26.155  0.00  0.00    +0.000 NA
ATOM     18  C   UNL     1       9.345  -0.894  25.895  0.00  0.00    +0.000 C 
ATOM     19  C   UNL     1       9.210   0.185  24.809  0.00  0.00    +0.000 C 
ATOM     20  N   UNL     1       8.198   1.103  25.115  0.00  0.00    +0.000 NA
ATOM     21  C   UNL     1       7.733   0.847  26.478  0.00  0.00    +0.000 C 
ATOM     22  C   UNL     1       7.119  -0.574  26.484  0.00  0.00    +0.000 C 
BRANCH  20  23
ATOM     23  C   UNL     1       7.103   1.134  24.281  0.00  0.00    +0.000 C 
BRANCH  23  24
ATOM     24  N   UNL     1       7.257   0.919  22.877  0.00  0.00    +0.000 NA
ATOM     25  C   UNL     1       6.850   2.077  22.170  0.00  0.00    +0.000 C 
ATOM     26  C   UNL     1       6.288   1.811  20.808  0.00  0.00    +0.000 C 
ATOM     27  N   UNL     1       6.713   0.544  20.272  0.00  0.00    +0.000 N 
ATOM     28  C   UNL     1       6.649  -0.641  21.123  0.00  0.00    +0.000 C 
ATOM     29  C   UNL     1       6.362  -0.176  22.545  0.00  0.00    +0.000 C 
ATOM     30  C   UNL     1       6.982   0.396  18.959  0.00  0.00    +0.000 C 
ATOM     31  O   UNL     1       8.054  -0.052  18.596  0.00  0.00    +0.000 OA
ATOM     32  C   UNL     1       5.783   0.393  18.032  0.00  0.00    +0.000 C 
ENDBRANCH  23  24
ENDBRANCH  20  23
ENDBRANCH   1  17
TORSDOF 4
ENDMDL
MODEL 6
REMARK VINA RESULT:      -7.4      2.908      4.283
REMARK  Name = 
REMARK  4 active torsions:
REMARK  status: ('A' for Active; 'I' for Inactive)
REMARK    1  A    between atoms: N_13  and  C_16
REMARK    2  A    between atoms: C_16  and  N_17
REMARK    3  A    between atoms: N_20  and  C_23
REMARK    4  A    between atoms: C_23  and  N_24
REMARK                            x       y       z     vdW  Elec       q    Type
REMARK                         _______ _______ _______ _____ _____    ______ ____
ROOT
ATOM      1  C   UNL     1       9.628  -1.702  24.184  0.00  0.00    +0.000 C 
ENDROOT
BRANCH   1  14
ATOM      2  O   UNL     1       8.019  -2.871  22.258  0.00  0.00    +0.000 OA
ATOM      3  C   UNL     1       7.385  -3.768  23.022  0.00  0.00    +0.000 C 
ATOM      4  C   UNL     1       6.630  -4.818  22.241  0.00  0.00    +0.000 C 
ATOM      5  C   UNL     1       5.891  -5.741  23.217  0.00  0.00    +0.000 C 
ATOM      6  N   UNL     1       5.980  -5.130  24.566  0.00  0.00    +0.000 N 
ATOM      7  C   UNL     1       7.347  -5.085  25.133  0.00  0.00    +0.000 C 
ATOM      8  C   UNL     1       8.236  -4.417  24.087  0.00  0.00    +0.000 C 
ATOM      9  C   UNL     1       5.218  -4.018  24.765  0.00  0.00    +0.000 C 
ATOM     10  O   UNL     1       4.138  -3.921  24.227  0.00  0.00    +0.000 OA
ATOM     11  N   UNL     1       6.025  -2.950  24.938  0.00  0.00    +0.000 N 
ATOM     12  C   UNL     1       5.980  -1.862  23.971  0.00  0.00    +0.000 C 
ATOM     13  C   UNL     1       7.345  -1.162  23.948  0.00  0.00    +0.000 C 
ATOM     14  N   UNL     1       8.316  -1.979  24.552  0.00  0.00    +0.000 NA
ATOM     15  C   UNL     1       8.100  -2.130  25.928  0.00  0.00    +0.000 C 
ATOM     16  C   UNL     1       6.733  -2.772  26.189  0.00  0.00    +0.000 C 
ENDBRANCH   1  14
BRANCH   1  17
ATOM     17  N   UNL     1      10.031  -0.500  23.820  0.00  0.00    +0.000 NA
ATOM     18  C   UNL     1      10.233  -0.113  22.501  0.00  0.00    +0.000 C 
ATOM     19  C   UNL     1       9.443   1.163  22.173  0.00  0.00    +0.000 C 
ATOM     20  N   UNL     1       9.706   2.185  23.094  0.00  0.00    +0.000 NA
ATOM     21  C   UNL     1      10.810   1.763  23.956  0.00  0.00    +0.000 C 
ATOM     22  C   UNL     1      10.319   0.520  24.737  0.00  0.00    +0.000 C 
BRANCH  20  23
ATOM     23  C   UNL     1       8.663   2.597  23.893  0.00  0.00    +0.000 C 
BRANCH  23  24
ATOM     24  N   UNL     1       7.372   2.834  23.330  0.00  0.00    +0.000 NA
ATOM     25  C   UNL     1       7.275   4.185  22.914  0.00  0.00    +0.000 C 
ATOM     26  C   UNL     1       5.894   4.761  22.980  0.00  0.00    +0.000 C 
ATOM     27  N   UNL     1       4.870   3.748  22.962  0.00  0.00    +0.000 N 
ATOM     28  C   UNL     1       5.012   2.583  23.832  0.00  0.00    +0.000 C 
ATOM     29  C   UNL     1       6.423   2.602  24.406  0.00  0.00    +0.000 C 
ATOM     30  C   UNL     1       3.707   3.943  22.310  0.00  0.00    +0.000 C 
ATOM     31  O   UNL     1       3.325   3.141  21.477  0.00  0.00    +0.000 OA
ATOM     32  C   UNL     1       2.740   4.916  22.955  0.00  0.00    +0.000 C 
ENDBRANCH  23  24
ENDBRANCH  20  23
ENDBRANCH   1  17
TORSDOF 4
ENDMDL
MODEL 7
REMARK VINA RESULT:      -7.3      1.466      2.320
REMARK  Name = 
REMARK  4 active torsions:
REMARK  status: ('A' for Active; 'I' for Inactive)
REMARK    1  A    between atoms: N_13  and  C_16
REMARK    2  A    between atoms: C_16  and  N_17
REMARK    3  A    between atoms: N_20  and  C_23
REMARK    4  A    between atoms: C_23  and  N_24
REMARK                            x       y       z     vdW  Elec       q    Type
REMARK                         _______ _______ _______ _____ _____    ______ ____
ROOT
ATOM      1  C   UNL     1       6.467  -2.451  26.842  0.00  0.00    +0.000 C 
ENDROOT
BRANCH   1  14
ATOM      2  O   UNL     1       4.048  -3.798  26.889  0.00  0.00    +0.000 OA
ATOM      3  C   UNL     1       4.013  -4.223  25.621  0.00  0.00    +0.000 C 
ATOM      4  C   UNL     1       2.666  -4.749  25.186  0.00  0.00    +0.000 C 
ATOM      5  C   UNL     1       2.767  -5.271  23.747  0.00  0.00    +0.000 C 
ATOM      6  N   UNL     1       4.204  -5.299  23.381  0.00  0.00    +0.000 N 
ATOM      7  C   UNL     1       4.843  -3.967  23.290  0.00  0.00    +0.000 C 
ATOM      8  C   UNL     1       4.550  -3.246  24.603  0.00  0.00    +0.000 C 
ATOM      9  C   UNL     1       4.948  -6.275  23.974  0.00  0.00    +0.000 C 
ATOM     10  O   UNL     1       4.454  -7.356  24.203  0.00  0.00    +0.000 OA
ATOM     11  N   UNL     1       5.839  -5.708  24.814  0.00  0.00    +0.000 N 
ATOM     12  C   UNL     1       5.749  -5.987  26.239  0.00  0.00    +0.000 C 
ATOM     13  C   UNL     1       6.331  -4.799  27.017  0.00  0.00    +0.000 C 
ATOM     14  N   UNL     1       6.420  -3.674  26.180  0.00  0.00    +0.000 NA
ATOM     15  C   UNL     1       7.373  -3.841  25.165  0.00  0.00    +0.000 C 
ATOM     16  C   UNL     1       7.011  -5.041  24.284  0.00  0.00    +0.000 C 
ENDBRANCH   1  14
BRANCH   1  17
ATOM     17  N   UNL     1       7.083  -1.394  26.350  0.00  0.00    +0.000 NA
ATOM     18  C   UNL     1       8.288  -0.900  26.832  0.00  0.00    +0.000 C 
ATOM     19  C   UNL     1       9.320  -0.764  25.701  0.00  0.00    +0.000 C 
ATOM     20  N   UNL     1       8.812  -0.025  24.625  0.00  0.00    +0.000 NA
ATOM     21  C   UNL     1       7.526   0.550  25.019  0.00  0.00    +0.000 C 
ATOM     22  C   UNL     1       6.569  -0.636  25.290  0.00  0.00    +0.000 C 
BRANCH  20  23
ATOM     23  C   UNL     1       8.644  -0.688  23.430  0.00  0.00    +0.000 C 
BRANCH  23  24
ATOM     24  N   UNL     1       7.740  -0.183  22.446  0.00  0.00    +0.000 NA
ATOM     25  C   UNL     1       7.096  -1.262  21.792  0.00  0.00    +0.000 C 
ATOM     26  C   UNL     1       6.713  -0.992  20.369  0.00  0.00    +0.000 C 
ATOM     27  N   UNL     1       6.603   0.416  20.084  0.00  0.00    +0.000 N 
ATOM     28  C   UNL     1       7.660   1.315  20.539  0.00  0.00    +0.000 C 
ATOM     29  C   UNL     1       8.563   0.529  21.483  0.00  0.00    +0.000 C 
ATOM     30  C   UNL     1       5.654   0.887  19.250  0.00  0.00    +0.000 C 
ATOM     31  O   UNL     1       4.895   1.766  19.614  0.00  0.00    +0.000 OA
ATOM     32  C   UNL     1       5.862   0.599  17.777  0.00  0.00    +0.000 C 
ENDBRANCH  23  24
ENDBRANCH  20  23
ENDBRANCH   1  17
TORSDOF 4
ENDMDL
MODEL 8
REMARK VINA RESULT:      -7.3      2.709      3.715
REMARK  Name = 
REMARK  4 active torsions:
REMARK  status: ('A' for Active; 'I' for Inactive)
REMARK    1  A    between atoms: N_13  and  C_16
REMARK    2  A    between atoms: C_16  and  N_17
REMARK    3  A    between atoms: N_20  and  C_23
REMARK    4  A    between atoms: C_23  and  N_24
REMARK                            x       y       z     vdW  Elec       q    Type
REMARK                         _______ _______ _______ _____ _____    ______ ____
ROOT
ATOM      1  C   UNL     1       7.263  -2.483  23.989  0.00  0.00    +0.000 C 
ENDROOT
BRANCH   1  14
ATOM      2  O   UNL     1       7.553  -4.727  25.585  0.00  0.00    +0.000 OA
ATOM      3  C   UNL     1       6.264  -5.047  25.744  0.00  0.00    +0.000 C 
ATOM      4  C   UNL     1       6.012  -6.066  26.831  0.00  0.00    +0.000 C 
ATOM      5  C   UNL     1       4.517  -6.405  26.871  0.00  0.00    +0.000 C 
ATOM      6  N   UNL     1       3.889  -5.799  25.671  0.00  0.00    +0.000 N 
ATOM      7  C   UNL     1       3.887  -4.319  25.657  0.00  0.00    +0.000 C 
ATOM      8  C   UNL     1       5.327  -3.873  25.897  0.00  0.00    +0.000 C 
ATOM      9  C   UNL     1       4.174  -6.404  24.483  0.00  0.00    +0.000 C 
ATOM     10  O   UNL     1       4.322  -7.604  24.436  0.00  0.00    +0.000 OA
ATOM     11  N   UNL     1       4.910  -5.566  23.722  0.00  0.00    +0.000 N 
ATOM     12  C   UNL     1       6.267  -5.946  23.357  0.00  0.00    +0.000 C 
ATOM     13  C   UNL     1       7.095  -4.674  23.133  0.00  0.00    +0.000 C 
ATOM     14  N   UNL     1       6.441  -3.567  23.698  0.00  0.00    +0.000 NA
ATOM     15  C   UNL     1       5.252  -3.251  23.025  0.00  0.00    +0.000 C 
ATOM     16  C   UNL     1       4.280  -4.434  23.073  0.00  0.00    +0.000 C 
ENDBRANCH   1  14
BRANCH   1  17
ATOM     17  N   UNL     1       8.233  -2.086  23.188  0.00  0.00    +0.000 NA
ATOM     18  C   UNL     1       8.041  -1.691  21.871  0.00  0.00    +0.000 C 
ATOM     19  C   UNL     1       8.642  -0.299  21.620  0.00  0.00    +0.000 C 
ATOM     20  N   UNL     1       9.980  -0.232  22.027  0.00  0.00    +0.000 NA
ATOM     21  C   UNL     1      10.430  -1.580  22.374  0.00  0.00    +0.000 C 
ATOM     22  C   UNL     1       9.577  -2.040  23.581  0.00  0.00    +0.000 C 
BRANCH  20  23
ATOM     23  C   UNL     1      10.278   0.609  23.075  0.00  0.00    +0.000 C 
BRANCH  23  24
ATOM     24  N   UNL     1       9.389   1.672  23.423  0.00  0.00    +0.000 NA
ATOM     25  C   UNL     1      10.044   2.917  23.249  0.00  0.00    +0.000 C 
ATOM     26  C   UNL     1       9.583   3.999  24.176  0.00  0.00    +0.000 C 
ATOM     27  N   UNL     1       8.266   3.752  24.705  0.00  0.00    +0.000 N 
ATOM     28  C   UNL     1       7.952   2.424  25.226  0.00  0.00    +0.000 C 
ATOM     29  C   UNL     1       9.090   1.490  24.833  0.00  0.00    +0.000 C 
ATOM     30  C   UNL     1       7.393   4.759  24.903  0.00  0.00    +0.000 C 
ATOM     31  O   UNL     1       6.279   4.715  24.413  0.00  0.00    +0.000 OA
ATOM     32  C   UNL     1       7.695   5.680  26.068  0.00  0.00    +0.000 C 
ENDBRANCH  23  24
ENDBRANCH  20  23
ENDBRANCH   1  17
TORSDOF 4
ENDMDL
MODEL 9
REMARK VINA RESULT:      -7.3      3.234      7.548
REMARK  Name = 
REMARK  4 active torsions:
REMARK  status: ('A' for Active; 'I' for Inactive)
REMARK    1  A    between atoms: N_13  and  C_16
REMARK    2  A    between atoms: C_16  and  N_17
REMARK    3  A    between atoms: N_20  and  C_23
REMARK    4  A    between atoms: C_23  and  N_24
REMARK                            x       y       z     vdW  Elec       q    Type
REMARK                         _______ _______ _______ _____ _____    ______ ____
ROOT
ATOM      1  C   UNL     1       8.375  -2.694  22.747  0.00  0.00    +0.000 C 
ENDROOT
BRANCH   1  14
ATOM      2  O   UNL     1       9.804  -1.153  24.551  0.00  0.00    +0.000 OA
ATOM      3  C   UNL     1       9.825   0.003  23.878  0.00  0.00    +0.000 C 
ATOM      4  C   UNL     1      10.800   1.017  24.427  0.00  0.00    +0.000 C 
ATOM      5  C   UNL     1      10.684   2.318  23.625  0.00  0.00    +0.000 C 
ATOM      6  N   UNL     1       9.487   2.202  22.755  0.00  0.00    +0.000 N 
ATOM      7  C   UNL     1       9.593   1.174  21.695  0.00  0.00    +0.000 C 
ATOM      8  C   UNL     1       9.991  -0.129  22.383  0.00  0.00    +0.000 C 
ATOM      9  C   UNL     1       8.284   2.280  23.389  0.00  0.00    +0.000 C 
ATOM     10  O   UNL     1       8.153   3.003  24.351  0.00  0.00    +0.000 OA
ATOM     11  N   UNL     1       7.659   1.086  23.306  0.00  0.00    +0.000 N 
ATOM     12  C   UNL     1       7.382   0.343  24.527  0.00  0.00    +0.000 C 
ATOM     13  C   UNL     1       7.333  -1.155  24.198  0.00  0.00    +0.000 C 
ATOM     14  N   UNL     1       7.928  -1.392  22.947  0.00  0.00    +0.000 NA
ATOM     15  C   UNL     1       7.184  -0.847  21.893  0.00  0.00    +0.000 C 
ATOM     16  C   UNL     1       7.052   0.671  22.058  0.00  0.00    +0.000 C 
ENDBRANCH   1  14
BRANCH   1  17
ATOM     17  N   UNL     1       7.854  -3.733  23.370  0.00  0.00    +0.000 NA
ATOM     18  C   UNL     1       8.478  -4.411  24.408  0.00  0.00    +0.000 C 
ATOM     19  C   UNL     1       7.561  -4.499  25.639  0.00  0.00    +0.000 C 
ATOM     20  N   UNL     1       6.306  -5.027  25.311  0.00  0.00    +0.000 NA
ATOM     21  C   UNL     1       6.350  -5.513  23.932  0.00  0.00    +0.000 C 
ATOM     22  C   UNL     1       6.610  -4.281  23.031  0.00  0.00    +0.000 C 
BRANCH  20  23
ATOM     23  C   UNL     1       5.219  -4.194  25.445  0.00  0.00    +0.000 C 
BRANCH  23  24
ATOM     24  N   UNL     1       5.245  -3.116  26.382  0.00  0.00    +0.000 NA
ATOM     25  C   UNL     1       4.830  -3.582  27.655  0.00  0.00    +0.000 C 
ATOM     26  C   UNL     1       4.144  -2.555  28.502  0.00  0.00    +0.000 C 
ATOM     27  N   UNL     1       4.467  -1.207  28.108  0.00  0.00    +0.000 N 
ATOM     28  C   UNL     1       4.425  -0.855  26.691  0.00  0.00    +0.000 C 
ATOM     29  C   UNL     1       4.278  -2.146  25.896  0.00  0.00    +0.000 C 
ATOM     30  C   UNL     1       4.618  -0.230  29.024  0.00  0.00    +0.000 C 
ATOM     31  O   UNL     1       5.636   0.439  29.051  0.00  0.00    +0.000 OA
ATOM     32  C   UNL     1       3.346   0.262  29.685  0.00  0.00    +0.000 C 
ENDBRANCH  23  24
ENDBRANCH  20  23
ENDBRANCH   1  17
TORSDOF 4
ENDMDL
