MODEL 1
REMARK VINA RESULT:      -6.8      0.000      0.000
REMARK  Name = 
REMARK  5 active torsions:
REMARK  status: ('A' for Active; 'I' for Inactive)
REMARK    1  A    between atoms: C_2  and  C_3
REMARK    2  A    between atoms: C_3  and  C_4
REMARK    3  A    between atoms: C_5  and  C_6
REMARK    4  A    between atoms: C_6  and  C_7
REMARK    5  A    between atoms: C_13  and  N_19
REMARK                            x       y       z     vdW  Elec       q    Type
REMARK                         _______ _______ _______ _____ _____    ______ ____
ROOT
ATOM      1  C   UNL     1       9.068   0.107  23.219  0.00  0.00    +0.000 C 
ATOM      2  C   UNL     1      10.411  -0.263  23.707  0.00  0.00    +0.000 C 
ATOM      3  C   UNL     1       8.038  -1.023  23.430  0.00  0.00    +0.000 C 
ATOM      4  C   UNL     1       6.796  -0.191  23.936  0.00  0.00    +0.000 C 
ATOM      5  C   UNL     1       7.612   0.813  24.843  0.00  0.00    +0.000 C 
ATOM      6  C   UNL     1       8.716   1.362  23.816  0.00  0.00    +0.000 C 
ATOM      7  C   UNL     1       7.652   2.408  23.020  0.00  0.00    +0.000 C 
ATOM      8  C   UNL     1       6.896   2.998  24.141  0.00  0.00    +0.000 C 
ATOM      9  C   UNL     1       6.650   1.895  25.148  0.00  0.00    +0.000 C 
ATOM     10  C   UNL     1       5.195   1.403  24.997  0.00  0.00    +0.000 C 
ATOM     11  C   UNL     1       8.167   0.155  25.976  0.00  0.00    +0.000 C 
ATOM     12  C   UNL     1       8.975  -1.085  25.730  0.00  0.00    +0.000 C 
ATOM     13  C   UNL     1       8.403  -1.889  24.603  0.00  0.00    +0.000 C 
ATOM     14  C   UNL     1       9.248  -3.031  24.161  0.00  0.00    +0.000 C 
ATOM     15  O   UNL     1       7.134  -2.390  25.029  0.00  0.00    +0.000 OA
ENDROOT
BRANCH   6  16
ATOM     16  N   UNL     1       9.582   2.219  24.436  0.00  0.00    +0.000 NA
ATOM     17  C   UNL     1      10.227   3.167  23.647  0.00  0.00    +0.000 C 
ATOM     18  O   UNL     1       9.598   4.216  23.455  0.00  0.00    +0.000 OA
ATOM     19  O   UNL     1      10.578   2.482  22.508  0.00  0.00    +0.000 OA
ENDBRANCH   6  16
BRANCH   1  20
ATOM     20  C   UNL     1       8.378   0.699  22.146  0.00  0.00    +0.000 C 
BRANCH  20  22
ATOM     21  C   UNL     1       7.633   0.607  20.086  0.00  0.00    +0.000 C 
ATOM     22  C   UNL     1       8.531   0.102  20.894  0.00  0.00    +0.000 C 
ATOM     23  F   UNL     1       9.306  -0.855  20.453  0.00  0.00    +0.000 F 
BRANCH  21  24
ATOM     24  C   UNL     1       6.134   0.659  19.721  0.00  0.00    +0.000 C 
BRANCH  24  26
ATOM     25  O   UNL     1       5.955  -0.516  17.719  0.00  0.00    +0.000 OA
ATOM     26  C   UNL     1       6.053   0.811  18.205  0.00  0.00    +0.000 C 
ENDBRANCH  24  26
ENDBRANCH  21  24
ENDBRANCH  20  22
ENDBRANCH   1  20
TORSDOF 5
ENDMDL
MODEL 2
REMARK VINA RESULT:      -6.7      3.062      5.280
REMARK  Name = 
REMARK  5 active torsions:
REMARK  status: ('A' for Active; 'I' for Inactive)
REMARK    1  A    between atoms: C_2  and  C_3
REMARK    2  A    between atoms: C_3  and  C_4
REMARK    3  A    between atoms: C_5  and  C_6
REMARK    4  A    between atoms: C_6  and  C_7
REMARK    5  A    between atoms: C_13  and  N_19
REMARK                            x       y       z     vdW  Elec       q    Type
REMARK                         _______ _______ _______ _____ _____    ______ ____
ROOT
ATOM      1  C   UNL     1       7.098  -1.604  23.618  0.00  0.00    +0.000 C 
ATOM      2  C   UNL     1       7.032  -0.130  23.594  0.00  0.00    +0.000 C 
ATOM      3  C   UNL     1       8.227  -2.153  22.719  0.00  0.00    +0.000 C 
ATOM      4  C   UNL     1       8.813  -3.284  23.650  0.00  0.00    +0.000 C 
ATOM      5  C   UNL     1       8.702  -2.476  25.004  0.00  0.00    +0.000 C 
ATOM      6  C   UNL     1       7.165  -2.017  24.989  0.00  0.00    +0.000 C 
ATOM      7  C   UNL     1       6.567  -3.532  25.445  0.00  0.00    +0.000 C 
ATOM      8  C   UNL     1       7.517  -3.938  26.499  0.00  0.00    +0.000 C 
ATOM      9  C   UNL     1       8.896  -3.497  26.057  0.00  0.00    +0.000 C 
ATOM     10  C   UNL     1       9.655  -4.724  25.507  0.00  0.00    +0.000 C 
ATOM     11  C   UNL     1       9.619  -1.389  25.035  0.00  0.00    +0.000 C 
ATOM     12  C   UNL     1       9.612  -0.441  23.871  0.00  0.00    +0.000 C 
ATOM     13  C   UNL     1       9.353  -1.166  22.586  0.00  0.00    +0.000 C 
ATOM     14  C   UNL     1       9.133  -0.284  21.408  0.00  0.00    +0.000 C 
ATOM     15  O   UNL     1      10.479  -2.009  22.330  0.00  0.00    +0.000 OA
ENDROOT
BRANCH   6  16
ATOM     16  N   UNL     1       6.874  -1.234  26.071  0.00  0.00    +0.000 NA
ATOM     17  C   UNL     1       5.546  -1.170  26.482  0.00  0.00    +0.000 C 
ATOM     18  O   UNL     1       5.184  -2.069  27.253  0.00  0.00    +0.000 OA
ATOM     19  O   UNL     1       4.830  -1.082  25.312  0.00  0.00    +0.000 OA
ENDBRANCH   6  16
BRANCH   1  20
ATOM     20  C   UNL     1       6.318  -2.772  23.555  0.00  0.00    +0.000 C 
BRANCH  20  22
ATOM     21  C   UNL     1       5.205  -4.259  22.391  0.00  0.00    +0.000 C 
ATOM     22  C   UNL     1       5.689  -3.044  22.340  0.00  0.00    +0.000 C 
ATOM     23  F   UNL     1       5.580  -2.371  21.224  0.00  0.00    +0.000 F 
BRANCH  21  24
ATOM     24  C   UNL     1       5.544  -5.766  22.391  0.00  0.00    +0.000 C 
BRANCH  24  26
ATOM     25  O   UNL     1       5.955  -5.757  20.099  0.00  0.00    +0.000 OA
ATOM     26  C   UNL     1       6.620  -5.977  21.330  0.00  0.00    +0.000 C 
ENDBRANCH  24  26
ENDBRANCH  21  24
ENDBRANCH  20  22
ENDBRANCH   1  20
TORSDOF 5
ENDMDL
MODEL 3
REMARK VINA RESULT:      -6.7      1.719      3.969
REMARK  Name = 
REMARK  5 active torsions:
REMARK  status: ('A' for Active; 'I' for Inactive)
REMARK    1  A    between atoms: C_2  and  C_3
REMARK    2  A    between atoms: C_3  and  C_4
REMARK    3  A    between atoms: C_5  and  C_6
REMARK    4  A    between atoms: C_6  and  C_7
REMARK    5  A    between atoms: C_13  and  N_19
REMARK                            x       y       z     vdW  Elec       q    Type
REMARK                         _______ _______ _______ _____ _____    ______ ____
ROOT
ATOM      1  C   UNL     1       7.061   0.147  23.382  0.00  0.00    +0.000 C 
ATOM      2  C   UNL     1       6.088  -0.304  24.397  0.00  0.00    +0.000 C 
ATOM      3  C   UNL     1       6.820   1.609  22.952  0.00  0.00    +0.000 C 
ATOM      4  C   UNL     1       8.303   2.146  22.909  0.00  0.00    +0.000 C 
ATOM      5  C   UNL     1       8.804   1.389  24.203  0.00  0.00    +0.000 C 
ATOM      6  C   UNL     1       8.375  -0.124  23.887  0.00  0.00    +0.000 C 
ATOM      7  C   UNL     1       9.652  -0.404  22.813  0.00  0.00    +0.000 C 
ATOM      8  C   UNL     1      10.789   0.227  23.509  0.00  0.00    +0.000 C 
ATOM      9  C   UNL     1      10.278   1.501  24.146  0.00  0.00    +0.000 C 
ATOM     10  C   UNL     1      10.710   2.698  23.273  0.00  0.00    +0.000 C 
ATOM     11  C   UNL     1       8.199   1.917  25.378  0.00  0.00    +0.000 C 
ATOM     12  C   UNL     1       6.703   2.030  25.397  0.00  0.00    +0.000 C 
ATOM     13  C   UNL     1       6.172   2.407  24.049  0.00  0.00    +0.000 C 
ATOM     14  C   UNL     1       4.690   2.350  23.925  0.00  0.00    +0.000 C 
ATOM     15  O   UNL     1       6.609   3.738  23.768  0.00  0.00    +0.000 OA
ENDROOT
BRANCH   6  16
ATOM     16  N   UNL     1       8.671  -0.949  24.936  0.00  0.00    +0.000 NA
ATOM     17  C   UNL     1       8.774  -2.312  24.675  0.00  0.00    +0.000 C 
ATOM     18  O   UNL     1       9.884  -2.697  24.284  0.00  0.00    +0.000 OA
ATOM     19  O   UNL     1       7.732  -2.576  23.818  0.00  0.00    +0.000 OA
ENDBRANCH   6  16
BRANCH   1  20
ATOM     20  C   UNL     1       7.705  -0.225  22.189  0.00  0.00    +0.000 C 
BRANCH  20  22
ATOM     21  C   UNL     1       7.196  -0.424  20.066  0.00  0.00    +0.000 C 
ATOM     22  C   UNL     1       6.939  -0.918  21.251  0.00  0.00    +0.000 C 
ATOM     23  F   UNL     1       6.025  -1.848  21.360  0.00  0.00    +0.000 F 
BRANCH  21  24
ATOM     24  C   UNL     1       7.006   0.782  19.120  0.00  0.00    +0.000 C 
BRANCH  24  26
ATOM     25  O   UNL     1       5.894  -0.513  17.538  0.00  0.00    +0.000 OA
ATOM     26  C   UNL     1       5.671   0.581  18.410  0.00  0.00    +0.000 C 
ENDBRANCH  24  26
ENDBRANCH  21  24
ENDBRANCH  20  22
ENDBRANCH   1  20
TORSDOF 5
ENDMDL
MODEL 4
REMARK VINA RESULT:      -6.6      2.574      4.952
REMARK  Name = 
REMARK  5 active torsions:
REMARK  status: ('A' for Active; 'I' for Inactive)
REMARK    1  A    between atoms: C_2  and  C_3
REMARK    2  A    between atoms: C_3  and  C_4
REMARK    3  A    between atoms: C_5  and  C_6
REMARK    4  A    between atoms: C_6  and  C_7
REMARK    5  A    between atoms: C_13  and  N_19
REMARK                            x       y       z     vdW  Elec       q    Type
REMARK                         _______ _______ _______ _____ _____    ______ ____
ROOT
ATOM      1  C   UNL     1       7.565  -1.455  23.588  0.00  0.00    +0.000 C 
ATOM      2  C   UNL     1       6.409  -0.552  23.746  0.00  0.00    +0.000 C 
ATOM      3  C   UNL     1       8.690  -1.145  24.599  0.00  0.00    +0.000 C 
ATOM      4  C   UNL     1       9.102  -2.606  25.030  0.00  0.00    +0.000 C 
ATOM      5  C   UNL     1       7.638  -3.198  25.076  0.00  0.00    +0.000 C 
ATOM      6  C   UNL     1       7.077  -2.803  23.626  0.00  0.00    +0.000 C 
ATOM      7  C   UNL     1       7.915  -4.029  22.817  0.00  0.00    +0.000 C 
ATOM      8  C   UNL     1       7.732  -5.181  23.720  0.00  0.00    +0.000 C 
ATOM      9  C   UNL     1       7.837  -4.663  25.139  0.00  0.00    +0.000 C 
ATOM     10  C   UNL     1       9.236  -5.010  25.689  0.00  0.00    +0.000 C 
ATOM     11  C   UNL     1       6.886  -2.640  26.148  0.00  0.00    +0.000 C 
ATOM     12  C   UNL     1       6.838  -1.144  26.255  0.00  0.00    +0.000 C 
ATOM     13  C   UNL     1       8.145  -0.531  25.858  0.00  0.00    +0.000 C 
ATOM     14  C   UNL     1       8.127   0.953  25.746  0.00  0.00    +0.000 C 
ATOM     15  O   UNL     1       9.115  -0.910  26.837  0.00  0.00    +0.000 OA
ENDROOT
BRANCH   6  16
ATOM     16  N   UNL     1       5.771  -3.180  23.484  0.00  0.00    +0.000 NA
ATOM     17  C   UNL     1       5.305  -3.418  22.194  0.00  0.00    +0.000 C 
ATOM     18  O   UNL     1       5.502  -4.560  21.760  0.00  0.00    +0.000 OA
ATOM     19  O   UNL     1       5.852  -2.406  21.441  0.00  0.00    +0.000 OA
ENDBRANCH   6  16
BRANCH   1  20
ATOM     20  C   UNL     1       8.418  -2.047  22.639  0.00  0.00    +0.000 C 
BRANCH  20  22
ATOM     21  C   UNL     1       8.806  -0.346  21.312  0.00  0.00    +0.000 C 
ATOM     22  C   UNL     1       9.397  -1.228  22.077  0.00  0.00    +0.000 C 
ATOM     23  F   UNL     1      10.705  -1.244  22.124  0.00  0.00    +0.000 F 
BRANCH  21  24
ATOM     24  C   UNL     1       8.051  -0.113  19.985  0.00  0.00    +0.000 C 
BRANCH  24  26
ATOM     25  O   UNL     1       7.411   1.728  21.257  0.00  0.00    +0.000 OA
ATOM     26  C   UNL     1       6.891   0.828  20.295  0.00  0.00    +0.000 C 
ENDBRANCH  24  26
ENDBRANCH  21  24
ENDBRANCH  20  22
ENDBRANCH   1  20
TORSDOF 5
ENDMDL
MODEL 5
REMARK VINA RESULT:      -6.6      1.526      1.719
REMARK  Name = 
REMARK  5 active torsions:
REMARK  status: ('A' for Active; 'I' for Inactive)
REMARK    1  A    between atoms: C_2  and  C_3
REMARK    2  A    between atoms: C_3  and  C_4
REMARK    3  A    between atoms: C_5  and  C_6
REMARK    4  A    between atoms: C_6  and  C_7
REMARK    5  A    between atoms: C_13  and  N_19
REMARK                            x       y       z     vdW  Elec       q    Type
REMARK                         _______ _______ _______ _____ _____    ______ ____
ROOT
ATOM      1  C   UNL     1       8.178  -1.367  22.965  0.00  0.00    +0.000 C 
ATOM      2  C   UNL     1       9.497  -2.025  22.890  0.00  0.00    +0.000 C 
ATOM      3  C   UNL     1       7.111  -2.272  23.618  0.00  0.00    +0.000 C 
ATOM      4  C   UNL     1       6.374  -1.227  24.542  0.00  0.00    +0.000 C 
ATOM      5  C   UNL     1       7.671  -0.450  25.003  0.00  0.00    +0.000 C 
ATOM      6  C   UNL     1       8.359  -0.094  23.598  0.00  0.00    +0.000 C 
ATOM      7  C   UNL     1       7.304   1.181  23.250  0.00  0.00    +0.000 C 
ATOM      8  C   UNL     1       7.197   1.863  24.554  0.00  0.00    +0.000 C 
ATOM      9  C   UNL     1       7.154   0.791  25.622  0.00  0.00    +0.000 C 
ATOM     10  C   UNL     1       5.693   0.613  26.086  0.00  0.00    +0.000 C 
ATOM     11  C   UNL     1       8.485  -1.257  25.847  0.00  0.00    +0.000 C 
ATOM     12  C   UNL     1       8.855  -2.624  25.352  0.00  0.00    +0.000 C 
ATOM     13  C   UNL     1       7.729  -3.244  24.583  0.00  0.00    +0.000 C 
ATOM     14  C   UNL     1       8.075  -4.515  23.890  0.00  0.00    +0.000 C 
ATOM     15  O   UNL     1       6.663  -3.493  25.502  0.00  0.00    +0.000 OA
ENDROOT
BRANCH   6  16
ATOM     16  N   UNL     1       9.555   0.540  23.783  0.00  0.00    +0.000 NA
ATOM     17  C   UNL     1      10.052   1.299  22.728  0.00  0.00    +0.000 C 
ATOM     18  O   UNL     1       9.640   2.465  22.671  0.00  0.00    +0.000 OA
ATOM     19  O   UNL     1       9.801   0.538  21.611  0.00  0.00    +0.000 OA
ENDBRANCH   6  16
BRANCH   1  20
ATOM     20  C   UNL     1       7.253  -0.601  22.233  0.00  0.00    +0.000 C 
BRANCH  20  22
ATOM     21  C   UNL     1       7.104  -0.590  20.046  0.00  0.00    +0.000 C 
ATOM     22  C   UNL     1       6.676  -1.209  21.117  0.00  0.00    +0.000 C 
ATOM     23  F   UNL     1       5.793  -2.163  20.981  0.00  0.00    +0.000 F 
BRANCH  21  24
ATOM     24  C   UNL     1       7.027   0.703  19.205  0.00  0.00    +0.000 C 
BRANCH  24  26
ATOM     25  O   UNL     1       5.883  -0.406  17.508  0.00  0.00    +0.000 OA
ATOM     26  C   UNL     1       5.711   0.651  18.435  0.00  0.00    +0.000 C 
ENDBRANCH  24  26
ENDBRANCH  21  24
ENDBRANCH  20  22
ENDBRANCH   1  20
TORSDOF 5
ENDMDL
MODEL 6
REMARK VINA RESULT:      -6.4      2.382      5.211
REMARK  Name = 
REMARK  5 active torsions:
REMARK  status: ('A' for Active; 'I' for Inactive)
REMARK    1  A    between atoms: C_2  and  C_3
REMARK    2  A    between atoms: C_3  and  C_4
REMARK    3  A    between atoms: C_5  and  C_6
REMARK    4  A    between atoms: C_6  and  C_7
REMARK    5  A    between atoms: C_13  and  N_19
REMARK                            x       y       z     vdW  Elec       q    Type
REMARK                         _______ _______ _______ _____ _____    ______ ____
ROOT
ATOM      1  C   UNL     1       8.036   0.652  24.116  0.00  0.00    +0.000 C 
ATOM      2  C   UNL     1       9.074   1.061  25.083  0.00  0.00    +0.000 C 
ATOM      3  C   UNL     1       7.367   1.864  23.431  0.00  0.00    +0.000 C 
ATOM      4  C   UNL     1       7.292   1.349  21.942  0.00  0.00    +0.000 C 
ATOM      5  C   UNL     1       8.709   0.648  21.925  0.00  0.00    +0.000 C 
ATOM      6  C   UNL     1       8.624  -0.298  23.218  0.00  0.00    +0.000 C 
ATOM      7  C   UNL     1       7.656  -1.465  22.470  0.00  0.00    +0.000 C 
ATOM      8  C   UNL     1       8.282  -1.584  21.139  0.00  0.00    +0.000 C 
ATOM      9  C   UNL     1       8.687  -0.191  20.705  0.00  0.00    +0.000 C 
ATOM     10  C   UNL     1       7.649   0.332  19.690  0.00  0.00    +0.000 C 
ATOM     11  C   UNL     1       9.761   1.603  21.986  0.00  0.00    +0.000 C 
ATOM     12  C   UNL     1       9.707   2.623  23.086  0.00  0.00    +0.000 C 
ATOM     13  C   UNL     1       8.298   3.043  23.367  0.00  0.00    +0.000 C 
ATOM     14  C   UNL     1       8.131   3.901  24.571  0.00  0.00    +0.000 C 
ATOM     15  O   UNL     1       7.822   3.754  22.221  0.00  0.00    +0.000 OA
ENDROOT
BRANCH   6  16
ATOM     16  N   UNL     1       9.802  -0.960  23.421  0.00  0.00    +0.000 NA
ATOM     17  C   UNL     1       9.769  -2.108  24.207  0.00  0.00    +0.000 C 
ATOM     18  O   UNL     1       9.483  -3.155  23.609  0.00  0.00    +0.000 OA
ATOM     19  O   UNL     1       8.932  -1.786  25.248  0.00  0.00    +0.000 OA
ENDBRANCH   6  16
BRANCH   1  20
ATOM     20  C   UNL     1       6.942  -0.210  23.928  0.00  0.00    +0.000 C 
BRANCH  20  22
ATOM     21  C   UNL     1       5.570  -1.264  25.275  0.00  0.00    +0.000 C 
ATOM     22  C   UNL     1       5.875  -0.076  24.818  0.00  0.00    +0.000 C 
ATOM     23  F   UNL     1       5.141   0.944  25.179  0.00  0.00    +0.000 F 
BRANCH  21  24
ATOM     24  C   UNL     1       4.937  -2.632  24.943  0.00  0.00    +0.000 C 
BRANCH  24  26
ATOM     25  O   UNL     1       6.351  -4.313  24.170  0.00  0.00    +0.000 OA
ATOM     26  C   UNL     1       5.937  -3.700  25.378  0.00  0.00    +0.000 C 
ENDBRANCH  24  26
ENDBRANCH  21  24
ENDBRANCH  20  22
ENDBRANCH   1  20
TORSDOF 5
ENDMDL
MODEL 7
REMARK VINA RESULT:      -6.1      4.160      6.936
REMARK  Name = 
REMARK  5 active torsions:
REMARK  status: ('A' for Active; 'I' for Inactive)
REMARK    1  A    between atoms: C_2  and  C_3
REMARK    2  A    between atoms: C_3  and  C_4
REMARK    3  A    between atoms: C_5  and  C_6
REMARK    4  A    between atoms: C_6  and  C_7
REMARK    5  A    between atoms: C_13  and  N_19
REMARK                            x       y       z     vdW  Elec       q    Type
REMARK                         _______ _______ _______ _____ _____    ______ ____
ROOT
ATOM      1  C   UNL     1       6.158  -3.411  24.189  0.00  0.00    +0.000 C 
ATOM      2  C   UNL     1       5.446  -2.119  24.226  0.00  0.00    +0.000 C 
ATOM      3  C   UNL     1       7.317  -3.410  23.170  0.00  0.00    +0.000 C 
ATOM      4  C   UNL     1       8.432  -4.157  24.000  0.00  0.00    +0.000 C 
ATOM      5  C   UNL     1       8.112  -3.471  25.387  0.00  0.00    +0.000 C 
ATOM      6  C   UNL     1       6.537  -3.741  25.532  0.00  0.00    +0.000 C 
ATOM      7  C   UNL     1       6.718  -5.360  25.986  0.00  0.00    +0.000 C 
ATOM      8  C   UNL     1       7.849  -5.294  26.931  0.00  0.00    +0.000 C 
ATOM      9  C   UNL     1       8.841  -4.292  26.379  0.00  0.00    +0.000 C 
ATOM     10  C   UNL     1      10.004  -5.060  25.716  0.00  0.00    +0.000 C 
ATOM     11  C   UNL     1       8.453  -2.089  25.372  0.00  0.00    +0.000 C 
ATOM     12  C   UNL     1       7.911  -1.253  24.250  0.00  0.00    +0.000 C 
ATOM     13  C   UNL     1       7.872  -2.028  22.969  0.00  0.00    +0.000 C 
ATOM     14  C   UNL     1       7.170  -1.344  21.849  0.00  0.00    +0.000 C 
ATOM     15  O   UNL     1       9.223  -2.287  22.578  0.00  0.00    +0.000 OA
ENDROOT
BRANCH   6  16
ATOM     16  N   UNL     1       6.040  -3.158  26.664  0.00  0.00    +0.000 NA
ATOM     17  C   UNL     1       4.849  -3.662  27.179  0.00  0.00    +0.000 C 
ATOM     18  O   UNL     1       4.965  -4.633  27.937  0.00  0.00    +0.000 OA
ATOM     19  O   UNL     1       4.063  -3.878  26.072  0.00  0.00    +0.000 OA
ENDBRANCH   6  16
BRANCH   1  20
ATOM     20  C   UNL     1       5.972  -4.805  24.157  0.00  0.00    +0.000 C 
BRANCH  20  22
ATOM     21  C   UNL     1       4.148  -5.424  23.109  0.00  0.00    +0.000 C 
ATOM     22  C   UNL     1       5.448  -5.342  22.980  0.00  0.00    +0.000 C 
ATOM     23  F   UNL     1       6.002  -5.811  21.892  0.00  0.00    +0.000 F 
BRANCH  21  24
ATOM     24  C   UNL     1       2.981  -6.162  23.799  0.00  0.00    +0.000 C 
BRANCH  24  26
ATOM     25  O   UNL     1       2.810  -8.416  24.359  0.00  0.00    +0.000 OA
ATOM     26  C   UNL     1       3.598  -7.273  24.643  0.00  0.00    +0.000 C 
ENDBRANCH  24  26
ENDBRANCH  21  24
ENDBRANCH  20  22
ENDBRANCH   1  20
TORSDOF 5
ENDMDL
MODEL 8
REMARK VINA RESULT:      -6.1      2.317      4.893
REMARK  Name = 
REMARK  5 active torsions:
REMARK  status: ('A' for Active; 'I' for Inactive)
REMARK    1  A    between atoms: C_2  and  C_3
REMARK    2  A    between atoms: C_3  and  C_4
REMARK    3  A    between atoms: C_5  and  C_6
REMARK    4  A    between atoms: C_6  and  C_7
REMARK    5  A    between atoms: C_13  and  N_19
REMARK                            x       y       z     vdW  Elec       q    Type
REMARK                         _______ _______ _______ _____ _____    ______ ____
ROOT
ATOM      1  C   UNL     1       7.718   1.241  24.253  0.00  0.00    +0.000 C 
ATOM      2  C   UNL     1       6.277   1.296  24.567  0.00  0.00    +0.000 C 
ATOM      3  C   UNL     1       8.547   0.657  25.417  0.00  0.00    +0.000 C 
ATOM      4  C   UNL     1       9.538  -0.281  24.624  0.00  0.00    +0.000 C 
ATOM      5  C   UNL     1       8.480  -0.812  23.577  0.00  0.00    +0.000 C 
ATOM      6  C   UNL     1       7.868   0.555  23.003  0.00  0.00    +0.000 C 
ATOM      7  C   UNL     1       9.194   0.891  22.009  0.00  0.00    +0.000 C 
ATOM      8  C   UNL     1       9.494  -0.433  21.431  0.00  0.00    +0.000 C 
ATOM      9  C   UNL     1       9.298  -1.459  22.526  0.00  0.00    +0.000 C 
ATOM     10  C   UNL     1      10.682  -1.868  23.074  0.00  0.00    +0.000 C 
ATOM     11  C   UNL     1       7.513  -1.652  24.197  0.00  0.00    +0.000 C 
ATOM     12  C   UNL     1       6.810  -1.119  25.411  0.00  0.00    +0.000 C 
ATOM     13  C   UNL     1       7.732  -0.292  26.252  0.00  0.00    +0.000 C 
ATOM     14  C   UNL     1       7.072   0.436  27.369  0.00  0.00    +0.000 C 
ATOM     15  O   UNL     1       8.726  -1.166  26.792  0.00  0.00    +0.000 OA
ENDROOT
BRANCH   6  16
ATOM     16  N   UNL     1       6.867   0.308  22.106  0.00  0.00    +0.000 NA
ATOM     17  C   UNL     1       6.648   1.253  21.108  0.00  0.00    +0.000 C 
ATOM     18  O   UNL     1       7.350   1.130  20.096  0.00  0.00    +0.000 OA
ATOM     19  O   UNL     1       6.761   2.463  21.751  0.00  0.00    +0.000 OA
ENDBRANCH   6  16
BRANCH   1  20
ATOM     20  C   UNL     1       8.785   1.974  23.703  0.00  0.00    +0.000 C 
BRANCH  20  22
ATOM     21  C   UNL     1      10.073   3.746  23.648  0.00  0.00    +0.000 C 
ATOM     22  C   UNL     1       9.075   3.203  24.296  0.00  0.00    +0.000 C 
ATOM     23  F   UNL     1       8.605   3.814  25.353  0.00  0.00    +0.000 F 
BRANCH  21  24
ATOM     24  C   UNL     1      11.590   3.686  23.361  0.00  0.00    +0.000 C 
BRANCH  24  26
ATOM     25  O   UNL     1      11.240   5.853  24.139  0.00  0.00    +0.000 OA
ATOM     26  C   UNL     1      12.076   5.129  23.254  0.00  0.00    +0.000 C 
ENDBRANCH  24  26
ENDBRANCH  21  24
ENDBRANCH  20  22
ENDBRANCH   1  20
TORSDOF 5
ENDMDL
MODEL 9
REMARK VINA RESULT:      -6.0      1.603      2.294
REMARK  Name = 
REMARK  5 active torsions:
REMARK  status: ('A' for Active; 'I' for Inactive)
REMARK    1  A    between atoms: C_2  and  C_3
REMARK    2  A    between atoms: C_3  and  C_4
REMARK    3  A    between atoms: C_5  and  C_6
REMARK    4  A    between atoms: C_6  and  C_7
REMARK    5  A    between atoms: C_13  and  N_19
REMARK                            x       y       z     vdW  Elec       q    Type
REMARK                         _______ _______ _______ _____ _____    ______ ____
ROOT
ATOM      1  C   UNL     1       7.624   0.327  24.038  0.00  0.00    +0.000 C 
ATOM      2  C   UNL     1       8.365  -0.396  25.091  0.00  0.00    +0.000 C 
ATOM      3  C   UNL     1       6.098   0.290  24.267  0.00  0.00    +0.000 C 
ATOM      4  C   UNL     1       5.717   1.780  23.918  0.00  0.00    +0.000 C 
ATOM      5  C   UNL     1       6.973   2.451  24.603  0.00  0.00    +0.000 C 
ATOM      6  C   UNL     1       8.186   1.642  23.933  0.00  0.00    +0.000 C 
ATOM      7  C   UNL     1       8.111   2.479  22.465  0.00  0.00    +0.000 C 
ATOM      8  C   UNL     1       7.915   3.872  22.909  0.00  0.00    +0.000 C 
ATOM      9  C   UNL     1       6.971   3.840  24.092  0.00  0.00    +0.000 C 
ATOM     10  C   UNL     1       5.563   4.253  23.613  0.00  0.00    +0.000 C 
ATOM     11  C   UNL     1       6.919   2.325  26.019  0.00  0.00    +0.000 C 
ATOM     12  C   UNL     1       6.698   0.953  26.585  0.00  0.00    +0.000 C 
ATOM     13  C   UNL     1       5.764   0.158  25.727  0.00  0.00    +0.000 C 
ATOM     14  C   UNL     1       5.641  -1.277  26.103  0.00  0.00    +0.000 C 
ATOM     15  O   UNL     1       4.475   0.770  25.809  0.00  0.00    +0.000 OA
ENDROOT
BRANCH   6  16
ATOM     16  N   UNL     1       9.387   2.039  24.451  0.00  0.00    +0.000 NA
ATOM     17  C   UNL     1      10.526   1.813  23.683  0.00  0.00    +0.000 C 
ATOM     18  O   UNL     1      10.790   2.693  22.852  0.00  0.00    +0.000 OA
ATOM     19  O   UNL     1      10.342   0.555  23.161  0.00  0.00    +0.000 OA
ENDBRANCH   6  16
BRANCH   1  20
ATOM     20  C   UNL     1       7.532   0.518  22.648  0.00  0.00    +0.000 C 
BRANCH  20  22
ATOM     21  C   UNL     1       7.735  -0.335  20.639  0.00  0.00    +0.000 C 
ATOM     22  C   UNL     1       7.380  -0.627  21.865  0.00  0.00    +0.000 C 
ATOM     23  F   UNL     1       6.908  -1.820  22.116  0.00  0.00    +0.000 F 
BRANCH  21  24
ATOM     24  C   UNL     1       7.355   0.425  19.350  0.00  0.00    +0.000 C 
BRANCH  24  26
ATOM     25  O   UNL     1       6.114  -0.837  17.838  0.00  0.00    +0.000 OA
ATOM     26  C   UNL     1       5.942  -0.015  18.978  0.00  0.00    +0.000 C 
ENDBRANCH  24  26
ENDBRANCH  21  24
ENDBRANCH  20  22
ENDBRANCH   1  20
TORSDOF 5
ENDMDL
