MODEL 1
REMARK VINA RESULT:      -7.7      0.000      0.000
REMARK  Name = 
REMARK  5 active torsions:
REMARK  status: ('A' for Active; 'I' for Inactive)
REMARK    1  A    between atoms: C_2  and  C_4
REMARK    2  A    between atoms: C_4  and  N_5
REMARK    3  A    between atoms: N_5  and  C_6
REMARK    4  A    between atoms: C_10  and  C_12
REMARK    5  A    between atoms: N_18  and  C_19
REMARK                            x       y       z     vdW  Elec       q    Type
REMARK                         _______ _______ _______ _____ _____    ______ ____
ROOT
ATOM      1  N   UNL     1       8.232  -0.394  21.353  0.00  0.00    +0.000 N 
ATOM      2  C   UNL     1       7.879  -1.249  22.356  0.00  0.00    +0.000 C 
ATOM      3  O   UNL     1       7.344  -0.796  23.354  0.00  0.00    +0.000 OA
ATOM      4  N   UNL     1       7.467  -2.383  21.803  0.00  0.00    +0.000 NA
ENDROOT
BRANCH   4   5
ATOM      5  C   UNL     1       7.016  -3.303  22.693  0.00  0.00    +0.000 A 
ATOM      6  C   UNL     1       5.343  -3.331  22.429  0.00  0.00    +0.000 A 
ATOM      7  N   UNL     1       5.113  -4.604  21.993  0.00  0.00    +0.000 NA
ATOM      8  C   UNL     1       5.527  -5.823  22.137  0.00  0.00    +0.000 A 
ATOM      9  C   UNL     1       7.097  -5.987  22.308  0.00  0.00    +0.000 A 
ATOM     10  C   UNL     1       7.541  -4.629  22.918  0.00  0.00    +0.000 A 
ATOM     11  C   UNL     1       8.166  -4.987  24.313  0.00  0.00    +0.000 C 
ENDBRANCH   4   5
BRANCH   1  12
ATOM     12  C   UNL     1       9.247   0.386  21.717  0.00  0.00    +0.000 A 
ATOM     13  C   UNL     1      10.432  -0.450  22.478  0.00  0.00    +0.000 A 
ATOM     14  C   UNL     1      10.747   0.249  23.774  0.00  0.00    +0.000 A 
ATOM     15  C   UNL     1      10.385   1.545  24.423  0.00  0.00    +0.000 A 
ATOM     16  C   UNL     1       9.173   2.241  23.709  0.00  0.00    +0.000 A 
ATOM     17  C   UNL     1       8.953   1.622  22.382  0.00  0.00    +0.000 A 
BRANCH  16  18
ATOM     18  C   UNL     1       9.210   3.722  23.720  0.00  0.00    +0.000 C 
ATOM     19  F   UNL     1       8.316   4.228  22.806  0.00  0.00    +0.000 F 
ATOM     20  F   UNL     1      10.480   4.159  23.415  0.00  0.00    +0.000 F 
ATOM     21  F   UNL     1       8.873   4.167  24.985  0.00  0.00    +0.000 F 
ENDBRANCH  16  18
ENDBRANCH   1  12
BRANCH   1  22
ATOM     22  C   UNL     1       7.059   0.310  20.731  0.00  0.00    +0.000 C 
BRANCH  22  24
ATOM     23  O   UNL     1       5.727  -0.719  19.173  0.00  0.00    +0.000 OA
ATOM     24  C   UNL     1       6.959  -0.184  19.293  0.00  0.00    +0.000 C 
ATOM     25  O   UNL     1       7.388   0.514  18.380  0.00  0.00    +0.000 OA
ENDBRANCH  22  24
ENDBRANCH   1  22
TORSDOF 5
ENDMDL
MODEL 2
REMARK VINA RESULT:      -7.3      3.720      5.159
REMARK  Name = 
REMARK  5 active torsions:
REMARK  status: ('A' for Active; 'I' for Inactive)
REMARK    1  A    between atoms: C_2  and  C_4
REMARK    2  A    between atoms: C_4  and  N_5
REMARK    3  A    between atoms: N_5  and  C_6
REMARK    4  A    between atoms: C_10  and  C_12
REMARK    5  A    between atoms: N_18  and  C_19
REMARK                            x       y       z     vdW  Elec       q    Type
REMARK                         _______ _______ _______ _____ _____    ______ ____
ROOT
ATOM      1  N   UNL     1       8.318  -2.315  23.896  0.00  0.00    +0.000 N 
ATOM      2  C   UNL     1       8.037  -3.637  24.086  0.00  0.00    +0.000 C 
ATOM      3  O   UNL     1       8.939  -4.451  23.982  0.00  0.00    +0.000 OA
ATOM      4  N   UNL     1       7.127  -3.729  25.046  0.00  0.00    +0.000 NA
ENDROOT
BRANCH   4   5
ATOM      5  C   UNL     1       6.805  -5.003  25.387  0.00  0.00    +0.000 A 
ATOM      6  C   UNL     1       7.889  -5.371  26.636  0.00  0.00    +0.000 A 
ATOM      7  N   UNL     1       7.073  -5.574  27.711  0.00  0.00    +0.000 NA
ATOM      8  C   UNL     1       5.904  -6.026  28.035  0.00  0.00    +0.000 A 
ATOM      9  C   UNL     1       4.742  -5.691  27.008  0.00  0.00    +0.000 A 
ATOM     10  C   UNL     1       5.488  -5.528  25.655  0.00  0.00    +0.000 A 
ATOM     11  C   UNL     1       4.894  -6.641  24.719  0.00  0.00    +0.000 C 
ENDBRANCH   4   5
BRANCH   1  12
ATOM     12  C   UNL     1       8.597  -2.058  22.620  0.00  0.00    +0.000 A 
ATOM     13  C   UNL     1       9.990  -1.214  22.446  0.00  0.00    +0.000 A 
ATOM     14  C   UNL     1       9.712  -0.015  21.579  0.00  0.00    +0.000 A 
ATOM     15  C   UNL     1       8.578   0.477  20.740  0.00  0.00    +0.000 A 
ATOM     16  C   UNL     1       7.248  -0.303  21.034  0.00  0.00    +0.000 A 
ATOM     17  C   UNL     1       7.552  -1.543  21.783  0.00  0.00    +0.000 A 
BRANCH  16  18
ATOM     18  C   UNL     1       6.353  -0.471  19.866  0.00  0.00    +0.000 C 
ATOM     19  F   UNL     1       7.088  -0.552  18.708  0.00  0.00    +0.000 F 
ATOM     20  F   UNL     1       5.483   0.595  19.788  0.00  0.00    +0.000 F 
ATOM     21  F   UNL     1       5.623  -1.635  20.028  0.00  0.00    +0.000 F 
ENDBRANCH  16  18
ENDBRANCH   1  12
BRANCH   1  22
ATOM     22  C   UNL     1       9.291  -1.764  24.900  0.00  0.00    +0.000 C 
BRANCH  22  24
ATOM     23  O   UNL     1       8.915  -0.869  26.978  0.00  0.00    +0.000 OA
ATOM     24  C   UNL     1       8.550  -0.693  25.692  0.00  0.00    +0.000 C 
ATOM     25  O   UNL     1       8.481   0.449  25.250  0.00  0.00    +0.000 OA
ENDBRANCH  22  24
ENDBRANCH   1  22
TORSDOF 5
ENDMDL
MODEL 3
REMARK VINA RESULT:      -6.9      2.868      4.147
REMARK  Name = 
REMARK  5 active torsions:
REMARK  status: ('A' for Active; 'I' for Inactive)
REMARK    1  A    between atoms: C_2  and  C_4
REMARK    2  A    between atoms: C_4  and  N_5
REMARK    3  A    between atoms: N_5  and  C_6
REMARK    4  A    between atoms: C_10  and  C_12
REMARK    5  A    between atoms: N_18  and  C_19
REMARK                            x       y       z     vdW  Elec       q    Type
REMARK                         _______ _______ _______ _____ _____    ______ ____
ROOT
ATOM      1  N   UNL     1       8.198  -1.742  23.790  0.00  0.00    +0.000 N 
ATOM      2  C   UNL     1       7.823  -3.042  23.614  0.00  0.00    +0.000 C 
ATOM      3  O   UNL     1       8.544  -3.779  22.961  0.00  0.00    +0.000 OA
ATOM      4  N   UNL     1       7.238  -3.455  24.730  0.00  0.00    +0.000 NA
ENDROOT
BRANCH   4   5
ATOM      5  C   UNL     1       6.875  -4.763  24.717  0.00  0.00    +0.000 A 
ATOM      6  C   UNL     1       7.644  -5.407  26.081  0.00  0.00    +0.000 A 
ATOM      7  N   UNL     1       6.605  -5.805  26.871  0.00  0.00    +0.000 NA
ATOM      8  C   UNL     1       5.403  -6.284  26.812  0.00  0.00    +0.000 A 
ATOM      9  C   UNL     1       4.506  -5.715  25.632  0.00  0.00    +0.000 A 
ATOM     10  C   UNL     1       5.544  -5.298  24.555  0.00  0.00    +0.000 A 
ATOM     11  C   UNL     1       5.212  -6.179  23.298  0.00  0.00    +0.000 C 
ENDBRANCH   4   5
BRANCH   1  12
ATOM     12  C   UNL     1       8.114  -1.055  22.652  0.00  0.00    +0.000 A 
ATOM     13  C   UNL     1       9.573  -0.851  21.939  0.00  0.00    +0.000 A 
ATOM     14  C   UNL     1       9.751   0.613  21.633  0.00  0.00    +0.000 A 
ATOM     15  C   UNL     1       8.897   1.837  21.663  0.00  0.00    +0.000 A 
ATOM     16  C   UNL     1       7.561   1.604  22.454  0.00  0.00    +0.000 A 
ATOM     17  C   UNL     1       7.339   0.152  22.640  0.00  0.00    +0.000 A 
BRANCH  16  18
ATOM     18  C   UNL     1       6.395   2.364  21.947  0.00  0.00    +0.000 C 
ATOM     19  F   UNL     1       5.935   1.808  20.777  0.00  0.00    +0.000 F 
ATOM     20  F   UNL     1       6.753   3.676  21.726  0.00  0.00    +0.000 F 
ATOM     21  F   UNL     1       5.391   2.326  22.899  0.00  0.00    +0.000 F 
ENDBRANCH  16  18
ENDBRANCH   1  12
BRANCH   1  22
ATOM     22  C   UNL     1       9.489  -1.593  24.547  0.00  0.00    +0.000 C 
BRANCH  22  24
ATOM     23  O   UNL     1       9.923   0.554  25.226  0.00  0.00    +0.000 OA
ATOM     24  C   UNL     1       9.248  -0.543  25.625  0.00  0.00    +0.000 C 
ATOM     25  O   UNL     1       8.124  -0.404  26.096  0.00  0.00    +0.000 OA
ENDBRANCH  22  24
ENDBRANCH   1  22
TORSDOF 5
ENDMDL
MODEL 4
REMARK VINA RESULT:      -6.9      2.927      4.030
REMARK  Name = 
REMARK  5 active torsions:
REMARK  status: ('A' for Active; 'I' for Inactive)
REMARK    1  A    between atoms: C_2  and  C_4
REMARK    2  A    between atoms: C_4  and  N_5
REMARK    3  A    between atoms: N_5  and  C_6
REMARK    4  A    between atoms: C_10  and  C_12
REMARK    5  A    between atoms: N_18  and  C_19
REMARK                            x       y       z     vdW  Elec       q    Type
REMARK                         _______ _______ _______ _____ _____    ______ ____
ROOT
ATOM      1  N   UNL     1       8.241  -1.734  24.725  0.00  0.00    +0.000 N 
ATOM      2  C   UNL     1       8.236  -3.001  24.218  0.00  0.00    +0.000 C 
ATOM      3  O   UNL     1       9.277  -3.636  24.211  0.00  0.00    +0.000 OA
ATOM      4  N   UNL     1       7.081  -3.568  24.541  0.00  0.00    +0.000 NA
ENDROOT
BRANCH   4   5
ATOM      5  C   UNL     1       6.971  -4.865  24.155  0.00  0.00    +0.000 A 
ATOM      6  C   UNL     1       6.523  -5.670  25.577  0.00  0.00    +0.000 A 
ATOM      7  N   UNL     1       5.284  -6.162  25.284  0.00  0.00    +0.000 NA
ATOM      8  C   UNL     1       4.577  -6.630  24.306  0.00  0.00    +0.000 A 
ATOM      9  C   UNL     1       4.809  -5.922  22.904  0.00  0.00    +0.000 A 
ATOM     10  C   UNL     1       6.259  -5.376  23.008  0.00  0.00    +0.000 A 
ATOM     11  C   UNL     1       7.055  -6.097  21.863  0.00  0.00    +0.000 C 
ENDBRANCH   4   5
BRANCH   1  12
ATOM     12  C   UNL     1       8.913  -0.899  23.935  0.00  0.00    +0.000 A 
ATOM     13  C   UNL     1      10.219  -0.252  24.681  0.00  0.00    +0.000 A 
ATOM     14  C   UNL     1      10.162   1.244  24.522  0.00  0.00    +0.000 A 
ATOM     15  C   UNL     1       9.342   2.221  23.745  0.00  0.00    +0.000 A 
ATOM     16  C   UNL     1       8.050   1.561  23.147  0.00  0.00    +0.000 A 
ATOM     17  C   UNL     1       8.174   0.086  23.200  0.00  0.00    +0.000 A 
BRANCH  16  18
ATOM     18  C   UNL     1       7.612   2.114  21.845  0.00  0.00    +0.000 C 
ATOM     19  F   UNL     1       6.274   1.870  21.649  0.00  0.00    +0.000 F 
ATOM     20  F   UNL     1       8.341   1.540  20.826  0.00  0.00    +0.000 F 
ATOM     21  F   UNL     1       7.834   3.479  21.843  0.00  0.00    +0.000 F 
ENDBRANCH  16  18
ENDBRANCH   1  12
BRANCH   1  22
ATOM     22  C   UNL     1       8.598  -1.680  26.185  0.00  0.00    +0.000 C 
BRANCH  22  24
ATOM     23  O   UNL     1       8.035  -0.005  27.647  0.00  0.00    +0.000 OA
ATOM     24  C   UNL     1       7.456  -0.961  26.892  0.00  0.00    +0.000 C 
ATOM     25  O   UNL     1       6.437  -0.681  26.268  0.00  0.00    +0.000 OA
ENDBRANCH  22  24
ENDBRANCH   1  22
TORSDOF 5
ENDMDL
MODEL 5
REMARK VINA RESULT:      -6.9      3.177      6.025
REMARK  Name = 
REMARK  5 active torsions:
REMARK  status: ('A' for Active; 'I' for Inactive)
REMARK    1  A    between atoms: C_2  and  C_4
REMARK    2  A    between atoms: C_4  and  N_5
REMARK    3  A    between atoms: N_5  and  C_6
REMARK    4  A    between atoms: C_10  and  C_12
REMARK    5  A    between atoms: N_18  and  C_19
REMARK                            x       y       z     vdW  Elec       q    Type
REMARK                         _______ _______ _______ _____ _____    ______ ____
ROOT
ATOM      1  N   UNL     1       7.337  -0.098  20.695  0.00  0.00    +0.000 N 
ATOM      2  C   UNL     1       8.143   0.702  21.452  0.00  0.00    +0.000 C 
ATOM      3  O   UNL     1       9.351   0.634  21.297  0.00  0.00    +0.000 OA
ATOM      4  N   UNL     1       7.529   1.866  21.615  0.00  0.00    +0.000 NA
ENDROOT
BRANCH   4   5
ATOM      5  C   UNL     1       8.257   2.788  22.295  0.00  0.00    +0.000 A 
ATOM      6  C   UNL     1       7.294   4.181  22.239  0.00  0.00    +0.000 A 
ATOM      7  N   UNL     1       6.996   4.411  23.550  0.00  0.00    +0.000 NA
ATOM      8  C   UNL     1       7.484   4.297  24.744  0.00  0.00    +0.000 A 
ATOM      9  C   UNL     1       8.348   2.990  24.998  0.00  0.00    +0.000 A 
ATOM     10  C   UNL     1       8.882   2.626  23.586  0.00  0.00    +0.000 A 
ATOM     11  C   UNL     1      10.446   2.704  23.703  0.00  0.00    +0.000 C 
ENDBRANCH   4   5
BRANCH   1  12
ATOM     12  C   UNL     1       7.455  -1.376  21.048  0.00  0.00    +0.000 A 
ATOM     13  C   UNL     1       6.026  -2.173  20.988  0.00  0.00    +0.000 A 
ATOM     14  C   UNL     1       5.819  -2.876  22.304  0.00  0.00    +0.000 A 
ATOM     15  C   UNL     1       6.634  -3.151  23.525  0.00  0.00    +0.000 A 
ATOM     16  C   UNL     1       7.937  -2.277  23.572  0.00  0.00    +0.000 A 
ATOM     17  C   UNL     1       8.193  -1.690  22.238  0.00  0.00    +0.000 A 
BRANCH  16  18
ATOM     18  C   UNL     1       9.103  -2.928  24.213  0.00  0.00    +0.000 C 
ATOM     19  F   UNL     1      10.267  -2.540  23.593  0.00  0.00    +0.000 F 
ATOM     20  F   UNL     1       8.972  -4.298  24.136  0.00  0.00    +0.000 F 
ATOM     21  F   UNL     1       9.146  -2.554  25.544  0.00  0.00    +0.000 F 
ENDBRANCH  16  18
ENDBRANCH   1  12
BRANCH   1  22
ATOM     22  C   UNL     1       7.434   0.183  19.221  0.00  0.00    +0.000 C 
BRANCH  22  24
ATOM     23  O   UNL     1       5.484   1.356  18.932  0.00  0.00    +0.000 OA
ATOM     24  C   UNL     1       6.013   0.143  18.671  0.00  0.00    +0.000 C 
ATOM     25  O   UNL     1       5.802  -0.368  17.575  0.00  0.00    +0.000 OA
ENDBRANCH  22  24
ENDBRANCH   1  22
TORSDOF 5
ENDMDL
MODEL 6
REMARK VINA RESULT:      -6.8      3.958      6.553
REMARK  Name = 
REMARK  5 active torsions:
REMARK  status: ('A' for Active; 'I' for Inactive)
REMARK    1  A    between atoms: C_2  and  C_4
REMARK    2  A    between atoms: C_4  and  N_5
REMARK    3  A    between atoms: N_5  and  C_6
REMARK    4  A    between atoms: C_10  and  C_12
REMARK    5  A    between atoms: N_18  and  C_19
REMARK                            x       y       z     vdW  Elec       q    Type
REMARK                         _______ _______ _______ _____ _____    ______ ____
ROOT
ATOM      1  N   UNL     1       7.055  -3.186  22.971  0.00  0.00    +0.000 N 
ATOM      2  C   UNL     1       7.573  -2.089  22.346  0.00  0.00    +0.000 C 
ATOM      3  O   UNL     1       8.764  -2.071  22.080  0.00  0.00    +0.000 OA
ATOM      4  N   UNL     1       6.666  -1.637  21.490  0.00  0.00    +0.000 NA
ENDROOT
BRANCH   4   5
ATOM      5  C   UNL     1       7.082  -0.582  20.744  0.00  0.00    +0.000 A 
ATOM      6  C   UNL     1       6.315  -0.817  19.252  0.00  0.00    +0.000 A 
ATOM      7  N   UNL     1       5.496   0.269  19.144  0.00  0.00    +0.000 NA
ATOM      8  C   UNL     1       5.419   1.524  19.452  0.00  0.00    +0.000 A 
ATOM      9  C   UNL     1       6.016   1.909  20.871  0.00  0.00    +0.000 A 
ATOM     10  C   UNL     1       7.083   0.810  21.128  0.00  0.00    +0.000 A 
ATOM     11  C   UNL     1       8.448   1.578  21.246  0.00  0.00    +0.000 C 
ENDBRANCH   4   5
BRANCH   1  12
ATOM     12  C   UNL     1       7.483  -3.274  24.228  0.00  0.00    +0.000 A 
ATOM     13  C   UNL     1       8.744  -4.307  24.386  0.00  0.00    +0.000 A 
ATOM     14  C   UNL     1       8.424  -5.279  25.490  0.00  0.00    +0.000 A 
ATOM     15  C   UNL     1       7.370  -5.420  26.538  0.00  0.00    +0.000 A 
ATOM     16  C   UNL     1       6.143  -4.480  26.269  0.00  0.00    +0.000 A 
ATOM     17  C   UNL     1       6.512  -3.453  25.268  0.00  0.00    +0.000 A 
BRANCH  16  18
ATOM     18  C   UNL     1       5.470  -3.967  27.485  0.00  0.00    +0.000 C 
ATOM     19  F   UNL     1       5.670  -2.612  27.606  0.00  0.00    +0.000 F 
ATOM     20  F   UNL     1       5.967  -4.609  28.598  0.00  0.00    +0.000 F 
ATOM     21  F   UNL     1       4.114  -4.224  27.386  0.00  0.00    +0.000 F 
ENDBRANCH  16  18
ENDBRANCH   1  12
BRANCH   1  22
ATOM     22  C   UNL     1       7.167  -4.444  22.155  0.00  0.00    +0.000 C 
BRANCH  22  24
ATOM     23  O   UNL     1       5.897  -6.163  22.985  0.00  0.00    +0.000 OA
ATOM     24  C   UNL     1       5.791  -5.099  22.164  0.00  0.00    +0.000 C 
ATOM     25  O   UNL     1       4.786  -4.398  22.234  0.00  0.00    +0.000 OA
ENDBRANCH  22  24
ENDBRANCH   1  22
TORSDOF 5
ENDMDL
MODEL 7
REMARK VINA RESULT:      -6.6      2.760      3.933
REMARK  Name = 
REMARK  5 active torsions:
REMARK  status: ('A' for Active; 'I' for Inactive)
REMARK    1  A    between atoms: C_2  and  C_4
REMARK    2  A    between atoms: C_4  and  N_5
REMARK    3  A    between atoms: N_5  and  C_6
REMARK    4  A    between atoms: C_10  and  C_12
REMARK    5  A    between atoms: N_18  and  C_19
REMARK                            x       y       z     vdW  Elec       q    Type
REMARK                         _______ _______ _______ _____ _____    ______ ____
ROOT
ATOM      1  N   UNL     1       7.447  -1.707  23.453  0.00  0.00    +0.000 N 
ATOM      2  C   UNL     1       6.354  -2.406  23.875  0.00  0.00    +0.000 C 
ATOM      3  O   UNL     1       5.596  -2.873  23.040  0.00  0.00    +0.000 OA
ATOM      4  N   UNL     1       6.696  -3.089  24.959  0.00  0.00    +0.000 NA
ENDROOT
BRANCH   4   5
ATOM      5  C   UNL     1       5.713  -3.889  25.446  0.00  0.00    +0.000 A 
ATOM      6  C   UNL     1       6.331  -5.453  25.245  0.00  0.00    +0.000 A 
ATOM      7  N   UNL     1       6.439  -5.917  26.524  0.00  0.00    +0.000 NA
ATOM      8  C   UNL     1       5.875  -5.844  27.687  0.00  0.00    +0.000 A 
ATOM      9  C   UNL     1       5.313  -4.412  28.077  0.00  0.00    +0.000 A 
ATOM     10  C   UNL     1       5.018  -3.750  26.704  0.00  0.00    +0.000 A 
ATOM     11  C   UNL     1       3.474  -3.463  26.707  0.00  0.00    +0.000 C 
ENDBRANCH   4   5
BRANCH   1  12
ATOM     12  C   UNL     1       7.098  -0.543  22.910  0.00  0.00    +0.000 A 
ATOM     13  C   UNL     1       7.297  -0.531  21.284  0.00  0.00    +0.000 A 
ATOM     14  C   UNL     1       8.102   0.687  20.915  0.00  0.00    +0.000 A 
ATOM     15  C   UNL     1       8.592   1.914  21.611  0.00  0.00    +0.000 A 
ATOM     16  C   UNL     1       8.471   1.794  23.171  0.00  0.00    +0.000 A 
ATOM     17  C   UNL     1       7.578   0.665  23.517  0.00  0.00    +0.000 A 
BRANCH  16  18
ATOM     18  C   UNL     1       8.187   3.065  23.875  0.00  0.00    +0.000 C 
ATOM     19  F   UNL     1       7.004   2.972  24.570  0.00  0.00    +0.000 F 
ATOM     20  F   UNL     1       8.108   4.096  22.964  0.00  0.00    +0.000 F 
ATOM     21  F   UNL     1       9.219   3.325  24.760  0.00  0.00    +0.000 F 
ENDBRANCH  16  18
ENDBRANCH   1  12
BRANCH   1  22
ATOM     22  C   UNL     1       8.411  -2.537  22.652  0.00  0.00    +0.000 C 
BRANCH  22  24
ATOM     23  O   UNL     1      10.118  -3.238  24.014  0.00  0.00    +0.000 OA
ATOM     24  C   UNL     1       9.806  -2.225  23.180  0.00  0.00    +0.000 C 
ATOM     25  O   UNL     1      10.667  -1.810  22.410  0.00  0.00    +0.000 OA
ENDBRANCH  22  24
ENDBRANCH   1  22
TORSDOF 5
ENDMDL
MODEL 8
REMARK VINA RESULT:      -6.5      3.680      4.952
REMARK  Name = 
REMARK  5 active torsions:
REMARK  status: ('A' for Active; 'I' for Inactive)
REMARK    1  A    between atoms: C_2  and  C_4
REMARK    2  A    between atoms: C_4  and  N_5
REMARK    3  A    between atoms: N_5  and  C_6
REMARK    4  A    between atoms: C_10  and  C_12
REMARK    5  A    between atoms: N_18  and  C_19
REMARK                            x       y       z     vdW  Elec       q    Type
REMARK                         _______ _______ _______ _____ _____    ______ ____
ROOT
ATOM      1  N   UNL     1       6.683  -3.374  23.743  0.00  0.00    +0.000 N 
ATOM      2  C   UNL     1       5.737  -3.478  24.721  0.00  0.00    +0.000 C 
ATOM      3  O   UNL     1       4.605  -3.087  24.488  0.00  0.00    +0.000 OA
ATOM      4  N   UNL     1       5.957  -4.604  25.387  0.00  0.00    +0.000 NA
ENDROOT
BRANCH   4   5
ATOM      5  C   UNL     1       5.038  -4.869  26.351  0.00  0.00    +0.000 A 
ATOM      6  C   UNL     1       4.772  -6.535  26.205  0.00  0.00    +0.000 A 
ATOM      7  N   UNL     1       5.204  -7.029  27.402  0.00  0.00    +0.000 NA
ATOM      8  C   UNL     1       5.282  -6.734  28.660  0.00  0.00    +0.000 A 
ATOM      9  C   UNL     1       5.617  -5.215  28.978  0.00  0.00    +0.000 A 
ATOM     10  C   UNL     1       5.081  -4.456  27.734  0.00  0.00    +0.000 A 
ATOM     11  C   UNL     1       3.977  -3.486  28.285  0.00  0.00    +0.000 C 
ENDBRANCH   4   5
BRANCH   1  12
ATOM     12  C   UNL     1       7.014  -2.104  23.523  0.00  0.00    +0.000 A 
ATOM     13  C   UNL     1       7.213  -1.780  21.931  0.00  0.00    +0.000 A 
ATOM     14  C   UNL     1       8.548  -1.106  21.747  0.00  0.00    +0.000 A 
ATOM     15  C   UNL     1       9.604  -0.536  22.635  0.00  0.00    +0.000 A 
ATOM     16  C   UNL     1       9.415  -0.972  24.131  0.00  0.00    +0.000 A 
ATOM     17  C   UNL     1       8.054  -1.521  24.322  0.00  0.00    +0.000 A 
BRANCH  16  18
ATOM     18  C   UNL     1       9.840   0.032  25.133  0.00  0.00    +0.000 C 
ATOM     19  F   UNL     1       9.597  -0.429  26.405  0.00  0.00    +0.000 F 
ATOM     20  F   UNL     1       9.155   1.211  24.931  0.00  0.00    +0.000 F 
ATOM     21  F   UNL     1      11.195   0.267  24.982  0.00  0.00    +0.000 F 
ENDBRANCH  16  18
ENDBRANCH   1  12
BRANCH   1  22
ATOM     22  C   UNL     1       6.365  -4.187  22.519  0.00  0.00    +0.000 C 
BRANCH  22  24
ATOM     23  O   UNL     1       7.278  -5.907  21.308  0.00  0.00    +0.000 OA
ATOM     24  C   UNL     1       7.254  -5.423  22.567  0.00  0.00    +0.000 C 
ATOM     25  O   UNL     1       8.302  -5.393  23.205  0.00  0.00    +0.000 OA
ENDBRANCH  22  24
ENDBRANCH   1  22
TORSDOF 5
ENDMDL
MODEL 9
REMARK VINA RESULT:      -6.4      3.336      4.423
REMARK  Name = 
REMARK  5 active torsions:
REMARK  status: ('A' for Active; 'I' for Inactive)
REMARK    1  A    between atoms: C_2  and  C_4
REMARK    2  A    between atoms: C_4  and  N_5
REMARK    3  A    between atoms: N_5  and  C_6
REMARK    4  A    between atoms: C_10  and  C_12
REMARK    5  A    between atoms: N_18  and  C_19
REMARK                            x       y       z     vdW  Elec       q    Type
REMARK                         _______ _______ _______ _____ _____    ______ ____
ROOT
ATOM      1  N   UNL     1       7.271  -3.801  22.897  0.00  0.00    +0.000 N 
ATOM      2  C   UNL     1       6.593  -3.603  24.065  0.00  0.00    +0.000 C 
ATOM      3  O   UNL     1       5.983  -2.558  24.221  0.00  0.00    +0.000 OA
ATOM      4  N   UNL     1       6.083  -4.766  24.446  0.00  0.00    +0.000 NA
ENDROOT
BRANCH   4   5
ATOM      5  C   UNL     1       5.319  -4.698  25.566  0.00  0.00    +0.000 A 
ATOM      6  C   UNL     1       4.337  -6.074  25.466  0.00  0.00    +0.000 A 
ATOM      7  N   UNL     1       4.708  -6.806  26.556  0.00  0.00    +0.000 NA
ATOM      8  C   UNL     1       5.119  -6.682  27.778  0.00  0.00    +0.000 A 
ATOM      9  C   UNL     1       6.127  -5.484  28.033  0.00  0.00    +0.000 A 
ATOM     10  C   UNL     1       5.771  -4.464  26.917  0.00  0.00    +0.000 A 
ATOM     11  C   UNL     1       5.308  -3.168  27.674  0.00  0.00    +0.000 C 
ENDBRANCH   4   5
BRANCH   1  12
ATOM     12  C   UNL     1       8.332  -3.002  22.812  0.00  0.00    +0.000 A 
ATOM     13  C   UNL     1       9.069  -2.789  24.259  0.00  0.00    +0.000 A 
ATOM     14  C   UNL     1       9.235  -1.310  24.493  0.00  0.00    +0.000 A 
ATOM     15  C   UNL     1       9.057  -0.060  23.695  0.00  0.00    +0.000 A 
ATOM     16  C   UNL     1       8.251  -0.315  22.373  0.00  0.00    +0.000 A 
ATOM     17  C   UNL     1       8.200  -1.768  22.092  0.00  0.00    +0.000 A 
BRANCH  16  18
ATOM     18  C   UNL     1       8.642   0.539  21.229  0.00  0.00    +0.000 C 
ATOM     19  F   UNL     1       7.776   1.599  21.105  0.00  0.00    +0.000 F 
ATOM     20  F   UNL     1       8.632  -0.203  20.068  0.00  0.00    +0.000 F 
ATOM     21  F   UNL     1       9.923   1.016  21.446  0.00  0.00    +0.000 F 
ENDBRANCH  16  18
ENDBRANCH   1  12
BRANCH   1  22
ATOM     22  C   UNL     1       6.377  -3.830  21.688  0.00  0.00    +0.000 C 
BRANCH  22  24
ATOM     23  O   UNL     1       7.499  -5.821  21.501  0.00  0.00    +0.000 OA
ATOM     24  C   UNL     1       6.291  -5.283  21.238  0.00  0.00    +0.000 C 
ATOM     25  O   UNL     1       5.286  -5.939  21.496  0.00  0.00    +0.000 OA
ENDBRANCH  22  24
ENDBRANCH   1  22
TORSDOF 5
ENDMDL
