MODEL 1
REMARK VINA RESULT:      -6.4      0.000      0.000
REMARK  Name = 
REMARK  5 active torsions:
REMARK  status: ('A' for Active; 'I' for Inactive)
REMARK    1  A    between atoms: C_2  and  S_3
REMARK    2  A    between atoms: C_2  and  C_7
REMARK    3  A    between atoms: C_11  and  C_22
REMARK    4  A    between atoms: C_12  and  N_13
REMARK    5  A    between atoms: N_16  and  C_19
REMARK                            x       y       z     vdW  Elec       q    Type
REMARK                         _______ _______ _______ _____ _____    ______ ____
ROOT
ATOM      1  C   UNL     1       6.362  -4.363  24.642  0.00  0.00    +0.000 C 
ATOM      2  C   UNL     1       7.323  -5.445  24.211  0.00  0.00    +0.000 C 
ATOM      3  C   UNL     1       7.090  -5.725  22.728  0.00  0.00    +0.000 C 
ATOM      4  C   UNL     1       7.041  -4.666  21.813  0.00  0.00    +0.000 C 
ATOM      5  C   UNL     1       6.760  -3.345  22.343  0.00  0.00    +0.000 C 
ATOM      6  C   UNL     1       6.627  -3.114  23.706  0.00  0.00    +0.000 C 
ATOM      7  F   UNL     1       6.339  -4.916  20.731  0.00  0.00    +0.000 F 
ENDROOT
BRANCH   6   8
ATOM      8  N   UNL     1       7.547  -2.265  24.425  0.00  0.00    +0.000 N 
ATOM      9  C   UNL     1       7.014  -0.943  24.737  0.00  0.00    +0.000 C 
ATOM     10  C   UNL     1       7.730   0.069  23.845  0.00  0.00    +0.000 C 
ATOM     11  N   UNL     1       9.170  -0.122  23.988  0.00  0.00    +0.000 N 
ATOM     12  C   UNL     1       9.676  -1.393  23.884  0.00  0.00    +0.000 C 
ATOM     13  C   UNL     1       8.863  -2.470  24.358  0.00  0.00    +0.000 C 
BRANCH  11  14
ATOM     14  C   UNL     1       9.927   0.871  24.736  0.00  0.00    +0.000 C 
ATOM     15  O   UNL     1      11.301   0.641  24.554  0.00  0.00    +0.000 OA
ATOM     16  C   UNL     1       9.614   2.257  24.192  0.00  0.00    +0.000 C 
ENDBRANCH  11  14
ENDBRANCH   6   8
BRANCH   1  18
ATOM     17  O   UNL     1       5.263  -3.273  26.432  0.00  0.00    +0.000 OA
ATOM     18  C   UNL     1       6.400  -3.998  26.043  0.00  0.00    +0.000 C 
BRANCH  18  19
ATOM     19  S   UNL     1       6.655  -5.367  27.139  0.00  0.00    +0.000 S 
ATOM     20  O   UNL     1       8.070  -5.587  27.248  0.00  0.00    +0.000 OA
ATOM     21  O   UNL     1       5.883  -6.475  26.646  0.00  0.00    +0.000 OA
ATOM     22  N   UNL     1       6.076  -4.964  28.635  0.00  0.00    +0.000 NA
ENDBRANCH  18  19
ENDBRANCH   1  18
BRANCH   5  23
ATOM     23  C   UNL     1       5.896  -2.803  21.488  0.00  0.00    +0.000 C 
ATOM     24  N   UNL     1       6.300  -1.776  21.143  0.00  0.00    +0.000 NA
ENDBRANCH   5  23
TORSDOF 5
ENDMDL
MODEL 2
REMARK VINA RESULT:      -6.2      4.165      6.541
REMARK  Name = 
REMARK  5 active torsions:
REMARK  status: ('A' for Active; 'I' for Inactive)
REMARK    1  A    between atoms: C_2  and  S_3
REMARK    2  A    between atoms: C_2  and  C_7
REMARK    3  A    between atoms: C_11  and  C_22
REMARK    4  A    between atoms: C_12  and  N_13
REMARK    5  A    between atoms: N_16  and  C_19
REMARK                            x       y       z     vdW  Elec       q    Type
REMARK                         _______ _______ _______ _____ _____    ______ ____
ROOT
ATOM      1  C   UNL     1       7.124   0.266  21.400  0.00  0.00    +0.000 C 
ATOM      2  C   UNL     1       8.442   0.971  21.195  0.00  0.00    +0.000 C 
ATOM      3  C   UNL     1       8.526   2.124  22.194  0.00  0.00    +0.000 C 
ATOM      4  C   UNL     1       8.250   1.899  23.548  0.00  0.00    +0.000 C 
ATOM      5  C   UNL     1       7.471   0.722  23.880  0.00  0.00    +0.000 C 
ATOM      6  C   UNL     1       7.080  -0.196  22.914  0.00  0.00    +0.000 C 
ATOM      7  F   UNL     1       7.831   2.960  24.199  0.00  0.00    +0.000 F 
ENDROOT
BRANCH   6   8
ATOM      8  N   UNL     1       7.551  -1.560  22.929  0.00  0.00    +0.000 N 
ATOM      9  C   UNL     1       6.660  -2.488  23.618  0.00  0.00    +0.000 C 
ATOM     10  C   UNL     1       7.330  -2.885  24.932  0.00  0.00    +0.000 C 
ATOM     11  N   UNL     1       8.684  -3.348  24.644  0.00  0.00    +0.000 N 
ATOM     12  C   UNL     1       9.482  -2.577  23.837  0.00  0.00    +0.000 C 
ATOM     13  C   UNL     1       8.847  -1.839  22.789  0.00  0.00    +0.000 C 
BRANCH  11  14
ATOM     14  C   UNL     1       8.961  -4.773  24.741  0.00  0.00    +0.000 C 
ATOM     15  O   UNL     1      10.336  -4.965  24.960  0.00  0.00    +0.000 OA
ATOM     16  C   UNL     1       8.217  -5.350  25.937  0.00  0.00    +0.000 C 
ENDBRANCH  11  14
ENDBRANCH   6   8
BRANCH   1  18
ATOM     17  O   UNL     1       5.814  -1.660  20.977  0.00  0.00    +0.000 OA
ATOM     18  C   UNL     1       6.841  -0.833  20.499  0.00  0.00    +0.000 C 
BRANCH  18  19
ATOM     19  S   UNL     1       6.495  -0.331  18.835  0.00  0.00    +0.000 S 
ATOM     20  O   UNL     1       5.825  -1.418  18.177  0.00  0.00    +0.000 OA
ATOM     21  O   UNL     1       7.732   0.098  18.239  0.00  0.00    +0.000 OA
ATOM     22  N   UNL     1       5.467   0.964  18.873  0.00  0.00    +0.000 NA
ENDBRANCH  18  19
ENDBRANCH   1  18
BRANCH   5  23
ATOM     23  C   UNL     1       6.602   1.128  24.803  0.00  0.00    +0.000 C 
ATOM     24  N   UNL     1       5.543   0.766  24.511  0.00  0.00    +0.000 NA
ENDBRANCH   5  23
TORSDOF 5
ENDMDL
MODEL 3
REMARK VINA RESULT:      -6.2      4.364      5.630
REMARK  Name = 
REMARK  5 active torsions:
REMARK  status: ('A' for Active; 'I' for Inactive)
REMARK    1  A    between atoms: C_2  and  S_3
REMARK    2  A    between atoms: C_2  and  C_7
REMARK    3  A    between atoms: C_11  and  C_22
REMARK    4  A    between atoms: C_12  and  N_13
REMARK    5  A    between atoms: N_16  and  C_19
REMARK                            x       y       z     vdW  Elec       q    Type
REMARK                         _______ _______ _______ _____ _____    ______ ____
ROOT
ATOM      1  C   UNL     1       7.470  -1.363  21.339  0.00  0.00    +0.000 C 
ATOM      2  C   UNL     1       6.273  -1.797  22.149  0.00  0.00    +0.000 C 
ATOM      3  C   UNL     1       6.723  -2.893  23.113  0.00  0.00    +0.000 C 
ATOM      4  C   UNL     1       7.860  -2.705  23.907  0.00  0.00    +0.000 C 
ATOM      5  C   UNL     1       8.813  -1.701  23.474  0.00  0.00    +0.000 C 
ATOM      6  C   UNL     1       8.578  -0.894  22.369  0.00  0.00    +0.000 C 
ATOM      7  F   UNL     1       8.457  -3.817  24.271  0.00  0.00    +0.000 F 
ENDROOT
BRANCH   6   8
ATOM      8  N   UNL     1       8.430   0.536  22.490  0.00  0.00    +0.000 N 
ATOM      9  C   UNL     1       9.627   1.289  22.131  0.00  0.00    +0.000 C 
ATOM     10  C   UNL     1      10.224   1.854  23.418  0.00  0.00    +0.000 C 
ATOM     11  N   UNL     1       9.176   2.569  24.142  0.00  0.00    +0.000 N 
ATOM     12  C   UNL     1       7.968   1.947  24.329  0.00  0.00    +0.000 C 
ATOM     13  C   UNL     1       7.512   1.064  23.301  0.00  0.00    +0.000 C 
BRANCH  11  14
ATOM     14  C   UNL     1       9.223   4.023  24.165  0.00  0.00    +0.000 C 
ATOM     15  O   UNL     1      10.473   4.454  23.688  0.00  0.00    +0.000 OA
ATOM     16  C   UNL     1       8.157   4.576  23.233  0.00  0.00    +0.000 C 
ENDBRANCH  11  14
ENDBRANCH   6   8
BRANCH   1  18
ATOM     17  O   UNL     1       8.355  -0.120  19.528  0.00  0.00    +0.000 OA
ATOM     18  C   UNL     1       7.224  -0.358  20.326  0.00  0.00    +0.000 C 
BRANCH  18  19
ATOM     19  S   UNL     1       5.816  -0.693  19.303  0.00  0.00    +0.000 S 
ATOM     20  O   UNL     1       4.821   0.305  19.583  0.00  0.00    +0.000 OA
ATOM     21  O   UNL     1       5.421  -2.056  19.532  0.00  0.00    +0.000 OA
ATOM     22  N   UNL     1       6.264  -0.547  17.717  0.00  0.00    +0.000 NA
ENDBRANCH  18  19
ENDBRANCH   1  18
BRANCH   5  23
ATOM     23  C   UNL     1      10.009  -2.255  23.652  0.00  0.00    +0.000 C 
ATOM     24  N   UNL     1      10.630  -2.134  22.683  0.00  0.00    +0.000 NA
ENDBRANCH   5  23
TORSDOF 5
ENDMDL
MODEL 4
REMARK VINA RESULT:      -6.0      3.292      4.754
REMARK  Name = 
REMARK  5 active torsions:
REMARK  status: ('A' for Active; 'I' for Inactive)
REMARK    1  A    between atoms: C_2  and  S_3
REMARK    2  A    between atoms: C_2  and  C_7
REMARK    3  A    between atoms: C_11  and  C_22
REMARK    4  A    between atoms: C_12  and  N_13
REMARK    5  A    between atoms: N_16  and  C_19
REMARK                            x       y       z     vdW  Elec       q    Type
REMARK                         _______ _______ _______ _____ _____    ______ ____
ROOT
ATOM      1  C   UNL     1       7.878  -3.190  24.554  0.00  0.00    +0.000 C 
ATOM      2  C   UNL     1       6.792  -2.793  25.525  0.00  0.00    +0.000 C 
ATOM      3  C   UNL     1       7.419  -1.915  26.606  0.00  0.00    +0.000 C 
ATOM      4  C   UNL     1       8.230  -0.832  26.247  0.00  0.00    +0.000 C 
ATOM      5  C   UNL     1       8.809  -0.849  24.917  0.00  0.00    +0.000 C 
ATOM      6  C   UNL     1       8.512  -1.849  24.000  0.00  0.00    +0.000 C 
ATOM      7  F   UNL     1       9.113  -0.490  27.158  0.00  0.00    +0.000 F 
ENDROOT
BRANCH   6   8
ATOM      8  N   UNL     1       7.826  -1.564  22.763  0.00  0.00    +0.000 N 
ATOM      9  C   UNL     1       8.631  -1.806  21.570  0.00  0.00    +0.000 C 
ATOM     10  C   UNL     1       8.994  -0.448  20.972  0.00  0.00    +0.000 C 
ATOM     11  N   UNL     1       7.771   0.331  20.808  0.00  0.00    +0.000 N 
ATOM     12  C   UNL     1       6.901   0.418  21.865  0.00  0.00    +0.000 C 
ATOM     13  C   UNL     1       6.797  -0.717  22.729  0.00  0.00    +0.000 C 
BRANCH  11  14
ATOM     14  C   UNL     1       7.253   0.526  19.461  0.00  0.00    +0.000 C 
ATOM     15  O   UNL     1       8.012  -0.238  18.558  0.00  0.00    +0.000 OA
ATOM     16  C   UNL     1       5.818   0.026  19.397  0.00  0.00    +0.000 C 
ENDBRANCH  11  14
ENDBRANCH   6   8
BRANCH   1  18
ATOM     17  O   UNL     1       8.356  -5.161  23.333  0.00  0.00    +0.000 OA
ATOM     18  C   UNL     1       7.479  -4.075  23.479  0.00  0.00    +0.000 C 
BRANCH  18  19
ATOM     19  S   UNL     1       5.808  -4.653  23.601  0.00  0.00    +0.000 S 
ATOM     20  O   UNL     1       4.937  -3.526  23.408  0.00  0.00    +0.000 OA
ATOM     21  O   UNL     1       5.672  -5.344  24.855  0.00  0.00    +0.000 OA
ATOM     22  N   UNL     1       5.530  -5.737  22.384  0.00  0.00    +0.000 NA
ENDBRANCH  18  19
ENDBRANCH   1  18
BRANCH   5  23
ATOM     23  C   UNL     1      10.067  -0.447  25.080  0.00  0.00    +0.000 C 
ATOM     24  N   UNL     1      10.288   0.412  24.337  0.00  0.00    +0.000 NA
ENDBRANCH   5  23
TORSDOF 5
ENDMDL
MODEL 5
REMARK VINA RESULT:      -6.0      3.246      4.279
REMARK  Name = 
REMARK  5 active torsions:
REMARK  status: ('A' for Active; 'I' for Inactive)
REMARK    1  A    between atoms: C_2  and  S_3
REMARK    2  A    between atoms: C_2  and  C_7
REMARK    3  A    between atoms: C_11  and  C_22
REMARK    4  A    between atoms: C_12  and  N_13
REMARK    5  A    between atoms: N_16  and  C_19
REMARK                            x       y       z     vdW  Elec       q    Type
REMARK                         _______ _______ _______ _____ _____    ______ ____
ROOT
ATOM      1  C   UNL     1       5.392  -5.173  24.571  0.00  0.00    +0.000 C 
ATOM      2  C   UNL     1       5.005  -4.673  25.941  0.00  0.00    +0.000 C 
ATOM      3  C   UNL     1       6.148  -4.990  26.904  0.00  0.00    +0.000 C 
ATOM      4  C   UNL     1       7.464  -4.648  26.567  0.00  0.00    +0.000 C 
ATOM      5  C   UNL     1       7.753  -4.429  25.163  0.00  0.00    +0.000 C 
ATOM      6  C   UNL     1       6.760  -4.470  24.193  0.00  0.00    +0.000 C 
ATOM      7  F   UNL     1       8.381  -5.391  27.143  0.00  0.00    +0.000 F 
ENDROOT
BRANCH   6   8
ATOM      8  N   UNL     1       6.409  -3.306  23.417  0.00  0.00    +0.000 N 
ATOM      9  C   UNL     1       7.006  -3.278  22.086  0.00  0.00    +0.000 C 
ATOM     10  C   UNL     1       8.088  -2.200  22.085  0.00  0.00    +0.000 C 
ATOM     11  N   UNL     1       7.506  -0.956  22.583  0.00  0.00    +0.000 N 
ATOM     12  C   UNL     1       6.776  -0.993  23.744  0.00  0.00    +0.000 C 
ATOM     13  C   UNL     1       6.020  -2.177  24.012  0.00  0.00    +0.000 C 
BRANCH  11  14
ATOM     14  C   UNL     1       7.251   0.115  21.632  0.00  0.00    +0.000 C 
ATOM     15  O   UNL     1       7.503   1.353  22.249  0.00  0.00    +0.000 OA
ATOM     16  C   UNL     1       8.205  -0.018  20.455  0.00  0.00    +0.000 C 
ENDBRANCH  11  14
ENDBRANCH   6   8
BRANCH   1  18
ATOM     17  O   UNL     1       4.722  -5.734  22.371  0.00  0.00    +0.000 OA
ATOM     18  C   UNL     1       4.401  -5.007  23.528  0.00  0.00    +0.000 C 
BRANCH  18  19
ATOM     19  S   UNL     1       2.745  -5.376  24.040  0.00  0.00    +0.000 S 
ATOM     20  O   UNL     1       2.189  -4.186  24.623  0.00  0.00    +0.000 OA
ATOM     21  O   UNL     1       2.796  -6.530  24.896  0.00  0.00    +0.000 OA
ATOM     22  N   UNL     1       1.850  -5.766  22.705  0.00  0.00    +0.000 NA
ENDBRANCH  18  19
ENDBRANCH   1  18
BRANCH   5  23
ATOM     23  C   UNL     1       8.918  -5.035  24.949  0.00  0.00    +0.000 C 
ATOM     24  N   UNL     1       9.688  -4.255  24.580  0.00  0.00    +0.000 NA
ENDBRANCH   5  23
TORSDOF 5
ENDMDL
MODEL 6
REMARK VINA RESULT:      -5.9      3.545      5.248
REMARK  Name = 
REMARK  5 active torsions:
REMARK  status: ('A' for Active; 'I' for Inactive)
REMARK    1  A    between atoms: C_2  and  S_3
REMARK    2  A    between atoms: C_2  and  C_7
REMARK    3  A    between atoms: C_11  and  C_22
REMARK    4  A    between atoms: C_12  and  N_13
REMARK    5  A    between atoms: N_16  and  C_19
REMARK                            x       y       z     vdW  Elec       q    Type
REMARK                         _______ _______ _______ _____ _____    ______ ____
ROOT
ATOM      1  C   UNL     1       7.434  -1.283  24.395  0.00  0.00    +0.000 C 
ATOM      2  C   UNL     1       7.440  -0.095  25.326  0.00  0.00    +0.000 C 
ATOM      3  C   UNL     1       8.894   0.297  25.586  0.00  0.00    +0.000 C 
ATOM      4  C   UNL     1       9.779   0.459  24.514  0.00  0.00    +0.000 C 
ATOM      5  C   UNL     1       9.425  -0.178  23.259  0.00  0.00    +0.000 C 
ATOM      6  C   UNL     1       8.222  -0.851  23.092  0.00  0.00    +0.000 C 
ATOM      7  F   UNL     1      11.042   0.265  24.819  0.00  0.00    +0.000 F 
ENDROOT
BRANCH   6   8
ATOM      8  N   UNL     1       7.224  -0.400  22.152  0.00  0.00    +0.000 N 
ATOM      9  C   UNL     1       7.153  -1.197  20.933  0.00  0.00    +0.000 C 
ATOM     10  C   UNL     1       7.727  -0.356  19.794  0.00  0.00    +0.000 C 
ATOM     11  N   UNL     1       7.053   0.939  19.786  0.00  0.00    +0.000 N 
ATOM     12  C   UNL     1       6.941   1.627  20.968  0.00  0.00    +0.000 C 
ATOM     13  C   UNL     1       6.791   0.861  22.167  0.00  0.00    +0.000 C 
BRANCH  11  14
ATOM     14  C   UNL     1       6.091   1.209  18.728  0.00  0.00    +0.000 C 
ATOM     15  O   UNL     1       6.042   0.110  17.854  0.00  0.00    +0.000 OA
ATOM     16  C   UNL     1       4.707   1.378  19.337  0.00  0.00    +0.000 C 
ENDBRANCH  11  14
ENDBRANCH   6   8
BRANCH   1  18
ATOM     17  O   UNL     1       6.228  -3.084  23.443  0.00  0.00    +0.000 OA
ATOM     18  C   UNL     1       6.133  -1.834  24.073  0.00  0.00    +0.000 C 
BRANCH  18  19
ATOM     19  S   UNL     1       5.028  -1.929  25.455  0.00  0.00    +0.000 S 
ATOM     20  O   UNL     1       4.500  -0.613  25.689  0.00  0.00    +0.000 OA
ATOM     21  O   UNL     1       5.744  -2.523  26.551  0.00  0.00    +0.000 OA
ATOM     22  N   UNL     1       3.770  -2.929  25.062  0.00  0.00    +0.000 NA
ENDBRANCH  18  19
ENDBRANCH   1  18
BRANCH   5  23
ATOM     23  C   UNL     1      10.557  -0.713  22.809  0.00  0.00    +0.000 C 
ATOM     24  N   UNL     1      10.342  -1.783  22.424  0.00  0.00    +0.000 NA
ENDBRANCH   5  23
TORSDOF 5
ENDMDL
MODEL 7
REMARK VINA RESULT:      -5.8      3.791      6.694
REMARK  Name = 
REMARK  5 active torsions:
REMARK  status: ('A' for Active; 'I' for Inactive)
REMARK    1  A    between atoms: C_2  and  S_3
REMARK    2  A    between atoms: C_2  and  C_7
REMARK    3  A    between atoms: C_11  and  C_22
REMARK    4  A    between atoms: C_12  and  N_13
REMARK    5  A    between atoms: N_16  and  C_19
REMARK                            x       y       z     vdW  Elec       q    Type
REMARK                         _______ _______ _______ _____ _____    ______ ____
ROOT
ATOM      1  C   UNL     1       7.987   0.844  22.453  0.00  0.00    +0.000 C 
ATOM      2  C   UNL     1       9.270   0.800  21.659  0.00  0.00    +0.000 C 
ATOM      3  C   UNL     1      10.437   0.955  22.633  0.00  0.00    +0.000 C 
ATOM      4  C   UNL     1      10.500   0.161  23.784  0.00  0.00    +0.000 C 
ATOM      5  C   UNL     1       9.262  -0.439  24.244  0.00  0.00    +0.000 C 
ATOM      6  C   UNL     1       8.075  -0.309  23.534  0.00  0.00    +0.000 C 
ATOM      7  F   UNL     1      11.179   0.694  24.774  0.00  0.00    +0.000 F 
ENDROOT
BRANCH   6   8
ATOM      8  N   UNL     1       7.408  -1.450  22.955  0.00  0.00    +0.000 N 
ATOM      9  C   UNL     1       6.067  -1.684  23.480  0.00  0.00    +0.000 C 
ATOM     10  C   UNL     1       6.124  -2.932  24.359  0.00  0.00    +0.000 C 
ATOM     11  N   UNL     1       6.741  -4.012  23.596  0.00  0.00    +0.000 N 
ATOM     12  C   UNL     1       7.915  -3.760  22.934  0.00  0.00    +0.000 C 
ATOM     13  C   UNL     1       8.106  -2.445  22.404  0.00  0.00    +0.000 C 
BRANCH  11  14
ATOM     14  C   UNL     1       5.890  -5.093  23.119  0.00  0.00    +0.000 C 
ATOM     15  O   UNL     1       4.832  -4.552  22.368  0.00  0.00    +0.000 OA
ATOM     16  C   UNL     1       6.695  -5.999  22.199  0.00  0.00    +0.000 C 
ENDBRANCH  11  14
ENDBRANCH   6   8
BRANCH   1  18
ATOM     17  O   UNL     1       6.037   1.967  21.720  0.00  0.00    +0.000 OA
ATOM     18  C   UNL     1       6.761   0.766  21.688  0.00  0.00    +0.000 C 
BRANCH  18  19
ATOM     19  S   UNL     1       6.988   0.236  20.011  0.00  0.00    +0.000 S 
ATOM     20  O   UNL     1       8.345  -0.217  19.873  0.00  0.00    +0.000 OA
ATOM     21  O   UNL     1       6.596   1.319  19.151  0.00  0.00    +0.000 OA
ATOM     22  N   UNL     1       5.982  -1.044  19.718  0.00  0.00    +0.000 NA
ENDBRANCH  18  19
ENDBRANCH   1  18
BRANCH   5  23
ATOM     23  C   UNL     1       9.268  -0.282  25.565  0.00  0.00    +0.000 C 
ATOM     24  N   UNL     1       8.867  -1.246  26.062  0.00  0.00    +0.000 NA
ENDBRANCH   5  23
TORSDOF 5
ENDMDL
MODEL 8
REMARK VINA RESULT:      -5.7      3.485      6.099
REMARK  Name = 
REMARK  5 active torsions:
REMARK  status: ('A' for Active; 'I' for Inactive)
REMARK    1  A    between atoms: C_2  and  S_3
REMARK    2  A    between atoms: C_2  and  C_7
REMARK    3  A    between atoms: C_11  and  C_22
REMARK    4  A    between atoms: C_12  and  N_13
REMARK    5  A    between atoms: N_16  and  C_19
REMARK                            x       y       z     vdW  Elec       q    Type
REMARK                         _______ _______ _______ _____ _____    ______ ____
ROOT
ATOM      1  C   UNL     1       7.535   0.788  24.257  0.00  0.00    +0.000 C 
ATOM      2  C   UNL     1       7.068   1.659  23.116  0.00  0.00    +0.000 C 
ATOM      3  C   UNL     1       8.281   2.002  22.252  0.00  0.00    +0.000 C 
ATOM      4  C   UNL     1       9.146   0.988  21.824  0.00  0.00    +0.000 C 
ATOM      5  C   UNL     1       9.129  -0.257  22.570  0.00  0.00    +0.000 C 
ATOM      6  C   UNL     1       8.238  -0.476  23.612  0.00  0.00    +0.000 C 
ATOM      7  F   UNL     1      10.371   1.389  21.575  0.00  0.00    +0.000 F 
ENDROOT
BRANCH   6   8
ATOM      8  N   UNL     1       7.227  -1.503  23.544  0.00  0.00    +0.000 N 
ATOM      9  C   UNL     1       7.545  -2.702  24.312  0.00  0.00    +0.000 C 
ATOM     10  C   UNL     1       7.877  -3.815  23.321  0.00  0.00    +0.000 C 
ATOM     11  N   UNL     1       6.792  -3.912  22.349  0.00  0.00    +0.000 N 
ATOM     12  C   UNL     1       6.345  -2.763  21.748  0.00  0.00    +0.000 C 
ATOM     13  C   UNL     1       6.375  -1.559  22.519  0.00  0.00    +0.000 C 
BRANCH  11  14
ATOM     14  C   UNL     1       5.888  -5.050  22.437  0.00  0.00    +0.000 C 
ATOM     15  O   UNL     1       4.560  -4.590  22.418  0.00  0.00    +0.000 OA
ATOM     16  C   UNL     1       6.085  -5.945  21.223  0.00  0.00    +0.000 C 
ENDBRANCH  11  14
ENDBRANCH   6   8
BRANCH   1  18
ATOM     17  O   UNL     1       7.081  -0.168  26.374  0.00  0.00    +0.000 OA
ATOM     18  C   UNL     1       6.524   0.403  25.220  0.00  0.00    +0.000 C 
BRANCH  18  19
ATOM     19  S   UNL     1       5.412   1.711  25.662  0.00  0.00    +0.000 S 
ATOM     20  O   UNL     1       4.365   1.749  24.679  0.00  0.00    +0.000 OA
ATOM     21  O   UNL     1       6.185   2.915  25.805  0.00  0.00    +0.000 OA
ATOM     22  N   UNL     1       4.734   1.358  27.128  0.00  0.00    +0.000 NA
ENDBRANCH  18  19
ENDBRANCH   1  18
BRANCH   5  23
ATOM     23  C   UNL     1      10.407  -0.601  22.703  0.00  0.00    +0.000 C 
ATOM     24  N   UNL     1      10.542  -1.697  22.360  0.00  0.00    +0.000 NA
ENDBRANCH   5  23
TORSDOF 5
ENDMDL
MODEL 9
REMARK VINA RESULT:      -5.7      3.756      6.646
REMARK  Name = 
REMARK  5 active torsions:
REMARK  status: ('A' for Active; 'I' for Inactive)
REMARK    1  A    between atoms: C_2  and  S_3
REMARK    2  A    between atoms: C_2  and  C_7
REMARK    3  A    between atoms: C_11  and  C_22
REMARK    4  A    between atoms: C_12  and  N_13
REMARK    5  A    between atoms: N_16  and  C_19
REMARK                            x       y       z     vdW  Elec       q    Type
REMARK                         _______ _______ _______ _____ _____    ______ ____
ROOT
ATOM      1  C   UNL     1       8.012   1.930  21.654  0.00  0.00    +0.000 C 
ATOM      2  C   UNL     1       6.713   2.567  22.087  0.00  0.00    +0.000 C 
ATOM      3  C   UNL     1       5.736   2.498  20.916  0.00  0.00    +0.000 C 
ATOM      4  C   UNL     1       5.534   1.288  20.242  0.00  0.00    +0.000 C 
ATOM      5  C   UNL     1       6.565   0.276  20.372  0.00  0.00    +0.000 C 
ATOM      6  C   UNL     1       7.670   0.455  21.194  0.00  0.00    +0.000 C 
ATOM      7  F   UNL     1       5.135   1.420  18.997  0.00  0.00    +0.000 F 
ENDROOT
BRANCH   6   8
ATOM      8  N   UNL     1       7.906  -0.387  22.342  0.00  0.00    +0.000 N 
ATOM      9  C   UNL     1       8.837  -1.482  22.093  0.00  0.00    +0.000 C 
ATOM     10  C   UNL     1       8.032  -2.780  22.071  0.00  0.00    +0.000 C 
ATOM     11  N   UNL     1       7.227  -2.849  23.287  0.00  0.00    +0.000 N 
ATOM     12  C   UNL     1       6.483  -1.754  23.644  0.00  0.00    +0.000 C 
ATOM     13  C   UNL     1       7.014  -0.463  23.330  0.00  0.00    +0.000 C 
BRANCH  11  14
ATOM     14  C   UNL     1       7.624  -3.791  24.323  0.00  0.00    +0.000 C 
ATOM     15  O   UNL     1       8.539  -4.713  23.786  0.00  0.00    +0.000 OA
ATOM     16  C   UNL     1       8.327  -3.040  25.444  0.00  0.00    +0.000 C 
ENDBRANCH  11  14
ENDBRANCH   6   8
BRANCH   1  18
ATOM     17  O   UNL     1      10.338   1.713  22.036  0.00  0.00    +0.000 OA
ATOM     18  C   UNL     1       9.087   1.951  22.625  0.00  0.00    +0.000 C 
BRANCH  18  19
ATOM     19  S   UNL     1       9.145   3.425  23.608  0.00  0.00    +0.000 S 
ATOM     20  O   UNL     1       8.715   3.086  24.936  0.00  0.00    +0.000 OA
ATOM     21  O   UNL     1       8.371   4.432  22.935  0.00  0.00    +0.000 OA
ATOM     22  N   UNL     1      10.712   3.948  23.688  0.00  0.00    +0.000 NA
ENDBRANCH  18  19
ENDBRANCH   1  18
BRANCH   5  23
ATOM     23  C   UNL     1       6.719  -0.223  19.148  0.00  0.00    +0.000 C 
ATOM     24  N   UNL     1       7.798  -0.012  18.786  0.00  0.00    +0.000 NA
ENDBRANCH   5  23
TORSDOF 5
ENDMDL
