MODEL 1
REMARK VINA RESULT:      -6.2      0.000      0.000
REMARK  Name = 
REMARK  5 active torsions:
REMARK  status: ('A' for Active; 'I' for Inactive)
REMARK    1  A    between atoms: C_2  and  C_3
REMARK    2  A    between atoms: C_3  and  C_4
REMARK    3  A    between atoms: C_5  and  N_6
REMARK    4  A    between atoms: N_9  and  C_10
REMARK    5  A    between atoms: C_17  and  C_20
REMARK                            x       y       z     vdW  Elec       q    Type
REMARK                         _______ _______ _______ _____ _____    ______ ____
ROOT
ATOM      1  C   UNL     1       8.165  -3.841  24.796  0.00  0.00    +0.000 C 
ATOM      2  C   UNL     1       7.479  -3.522  23.569  0.00  0.00    +0.000 C 
ATOM      3  C   UNL     1       6.488  -4.725  23.078  0.00  0.00    +0.000 C 
ATOM      4  C   UNL     1       6.222  -5.322  24.585  0.00  0.00    +0.000 C 
ATOM      5  C   UNL     1       7.287  -5.040  25.411  0.00  0.00    +0.000 C 
ATOM      6  O   UNL     1       8.096  -5.819  26.247  0.00  0.00    +0.000 OA
ATOM      7  C   UNL     1       7.488  -5.750  22.522  0.00  0.00    +0.000 C 
ENDROOT
BRANCH   2   8
ATOM      8  N   UNL     1       8.077  -3.073  22.399  0.00  0.00    +0.000 NA
ATOM      9  C   UNL     1       7.599  -1.814  22.239  0.00  0.00    +0.000 C 
ATOM     10  O   UNL     1       6.444  -1.554  22.572  0.00  0.00    +0.000 OA
ATOM     11  N   UNL     1       8.574  -0.949  22.663  0.00  0.00    +0.000 NA
BRANCH  11  12
ATOM     12  C   UNL     1       8.219   0.481  22.600  0.00  0.00    +0.000 C 
ATOM     13  C   UNL     1       9.197   1.169  21.658  0.00  0.00    +0.000 C 
ATOM     14  C   UNL     1      10.216   1.937  22.429  0.00  0.00    +0.000 C 
ATOM     15  C   UNL     1      10.391   1.756  23.822  0.00  0.00    +0.000 C 
ATOM     16  N   UNL     1       9.574   0.984  24.438  0.00  0.00    +0.000 NA
ATOM     17  C   UNL     1       8.384   1.045  23.983  0.00  0.00    +0.000 C 
ENDBRANCH  11  12
ENDBRANCH   2   8
BRANCH   4  18
ATOM     18  C   UNL     1       4.708  -5.125  24.794  0.00  0.00    +0.000 C 
ATOM     19  C   UNL     1       4.086  -6.522  24.623  0.00  0.00    +0.000 C 
ATOM     20  C   UNL     1       4.471  -4.633  26.191  0.00  0.00    +0.000 C 
ATOM     21  C   UNL     1       4.175  -4.200  23.745  0.00  0.00    +0.000 C 
ENDBRANCH   4  18
BRANCH   1  22
ATOM     22  C   UNL     1       8.170  -2.834  26.054  0.00  0.00    +0.000 C 
BRANCH  22  24
ATOM     23  C   UNL     1       6.888  -0.878  26.888  0.00  0.00    +0.000 C 
ATOM     24  C   UNL     1       6.921  -1.985  25.837  0.00  0.00    +0.000 C 
ENDBRANCH  22  24
ENDBRANCH   1  22
TORSDOF 5
ENDMDL
MODEL 2
REMARK VINA RESULT:      -6.2      2.116      6.724
REMARK  Name = 
REMARK  5 active torsions:
REMARK  status: ('A' for Active; 'I' for Inactive)
REMARK    1  A    between atoms: C_2  and  C_3
REMARK    2  A    between atoms: C_3  and  C_4
REMARK    3  A    between atoms: C_5  and  N_6
REMARK    4  A    between atoms: N_9  and  C_10
REMARK    5  A    between atoms: C_17  and  C_20
REMARK                            x       y       z     vdW  Elec       q    Type
REMARK                         _______ _______ _______ _____ _____    ______ ____
ROOT
ATOM      1  C   UNL     1       9.507   0.087  22.141  0.00  0.00    +0.000 C 
ATOM      2  C   UNL     1       9.052  -0.560  23.346  0.00  0.00    +0.000 C 
ATOM      3  C   UNL     1       9.257   0.375  24.671  0.00  0.00    +0.000 C 
ATOM      4  C   UNL     1       9.168   1.802  23.860  0.00  0.00    +0.000 C 
ATOM      5  C   UNL     1       9.569   1.640  22.553  0.00  0.00    +0.000 C 
ATOM      6  O   UNL     1      10.501   2.294  21.739  0.00  0.00    +0.000 OA
ATOM      7  C   UNL     1      10.771   0.259  24.907  0.00  0.00    +0.000 C 
ENDROOT
BRANCH   2   8
ATOM      8  N   UNL     1       9.409  -1.833  23.768  0.00  0.00    +0.000 NA
ATOM      9  C   UNL     1       8.242  -2.391  24.179  0.00  0.00    +0.000 C 
ATOM     10  O   UNL     1       7.392  -1.690  24.727  0.00  0.00    +0.000 OA
ATOM     11  N   UNL     1       7.809  -3.217  23.176  0.00  0.00    +0.000 NA
BRANCH  11  12
ATOM     12  C   UNL     1       6.521  -3.890  23.426  0.00  0.00    +0.000 C 
ATOM     13  C   UNL     1       6.786  -5.384  23.557  0.00  0.00    +0.000 C 
ATOM     14  C   UNL     1       6.384  -6.100  22.313  0.00  0.00    +0.000 C 
ATOM     15  C   UNL     1       6.105  -5.407  21.110  0.00  0.00    +0.000 C 
ATOM     16  N   UNL     1       6.102  -4.125  21.138  0.00  0.00    +0.000 NA
ATOM     17  C   UNL     1       5.647  -3.646  22.228  0.00  0.00    +0.000 C 
ENDBRANCH  11  12
ENDBRANCH   2   8
BRANCH   4  18
ATOM     18  C   UNL     1       7.918   2.480  24.452  0.00  0.00    +0.000 C 
ATOM     19  C   UNL     1       8.386   3.870  24.915  0.00  0.00    +0.000 C 
ATOM     20  C   UNL     1       6.888   2.627  23.371  0.00  0.00    +0.000 C 
ATOM     21  C   UNL     1       7.430   1.692  25.627  0.00  0.00    +0.000 C 
ENDBRANCH   4  18
BRANCH   1  22
ATOM     22  C   UNL     1       8.580   0.189  20.828  0.00  0.00    +0.000 C 
BRANCH  22  24
ATOM     23  C   UNL     1       6.363  -0.654  20.092  0.00  0.00    +0.000 C 
ATOM     24  C   UNL     1       7.224  -0.320  21.307  0.00  0.00    +0.000 C 
ENDBRANCH  22  24
ENDBRANCH   1  22
TORSDOF 5
ENDMDL
MODEL 3
REMARK VINA RESULT:      -6.0      1.993      6.519
REMARK  Name = 
REMARK  5 active torsions:
REMARK  status: ('A' for Active; 'I' for Inactive)
REMARK    1  A    between atoms: C_2  and  C_3
REMARK    2  A    between atoms: C_3  and  C_4
REMARK    3  A    between atoms: C_5  and  N_6
REMARK    4  A    between atoms: N_9  and  C_10
REMARK    5  A    between atoms: C_17  and  C_20
REMARK                            x       y       z     vdW  Elec       q    Type
REMARK                         _______ _______ _______ _____ _____    ______ ____
ROOT
ATOM      1  C   UNL     1       7.479  -0.185  24.723  0.00  0.00    +0.000 C 
ATOM      2  C   UNL     1       7.647  -0.320  23.298  0.00  0.00    +0.000 C 
ATOM      3  C   UNL     1       7.906   1.116  22.562  0.00  0.00    +0.000 C 
ATOM      4  C   UNL     1       8.578   1.837  23.877  0.00  0.00    +0.000 C 
ATOM      5  C   UNL     1       8.107   1.262  25.037  0.00  0.00    +0.000 C 
ATOM      6  O   UNL     1       7.525   1.772  26.203  0.00  0.00    +0.000 OA
ATOM      7  C   UNL     1       6.499   1.733  22.570  0.00  0.00    +0.000 C 
ENDROOT
BRANCH   2   8
ATOM      8  N   UNL     1       6.788  -0.993  22.440  0.00  0.00    +0.000 NA
ATOM      9  C   UNL     1       7.418  -2.167  22.185  0.00  0.00    +0.000 C 
ATOM     10  O   UNL     1       8.645  -2.194  22.102  0.00  0.00    +0.000 OA
ATOM     11  N   UNL     1       6.831  -3.124  22.971  0.00  0.00    +0.000 NA
BRANCH  11  12
ATOM     12  C   UNL     1       7.414  -4.474  22.860  0.00  0.00    +0.000 C 
ATOM     13  C   UNL     1       6.761  -5.175  21.677  0.00  0.00    +0.000 C 
ATOM     14  C   UNL     1       5.746  -6.161  22.144  0.00  0.00    +0.000 C 
ATOM     15  C   UNL     1       5.275  -6.170  23.479  0.00  0.00    +0.000 C 
ATOM     16  N   UNL     1       5.822  -5.372  24.319  0.00  0.00    +0.000 NA
ATOM     17  C   UNL     1       7.073  -5.215  24.123  0.00  0.00    +0.000 C 
ENDBRANCH  11  12
ENDBRANCH   2   8
BRANCH   4  18
ATOM     18  C   UNL     1      10.016   2.154  23.424  0.00  0.00    +0.000 C 
ATOM     19  C   UNL     1      10.923   1.262  24.289  0.00  0.00    +0.000 C 
ATOM     20  C   UNL     1      10.164   1.777  21.980  0.00  0.00    +0.000 C 
ATOM     21  C   UNL     1      10.318   3.595  23.691  0.00  0.00    +0.000 C 
ENDBRANCH   4  18
BRANCH   1  22
ATOM     22  C   UNL     1       8.319  -1.080  25.767  0.00  0.00    +0.000 C 
BRANCH  22  24
ATOM     23  C   UNL     1       5.914  -1.398  26.294  0.00  0.00    +0.000 C 
ATOM     24  C   UNL     1       7.287  -2.064  26.307  0.00  0.00    +0.000 C 
ENDBRANCH  22  24
ENDBRANCH   1  22
TORSDOF 5
ENDMDL
MODEL 4
REMARK VINA RESULT:      -5.8      2.467      6.563
REMARK  Name = 
REMARK  5 active torsions:
REMARK  status: ('A' for Active; 'I' for Inactive)
REMARK    1  A    between atoms: C_2  and  C_3
REMARK    2  A    between atoms: C_3  and  C_4
REMARK    3  A    between atoms: C_5  and  N_6
REMARK    4  A    between atoms: N_9  and  C_10
REMARK    5  A    between atoms: C_17  and  C_20
REMARK                            x       y       z     vdW  Elec       q    Type
REMARK                         _______ _______ _______ _____ _____    ______ ____
ROOT
ATOM      1  C   UNL     1       8.925  -2.282  23.875  0.00  0.00    +0.000 C 
ATOM      2  C   UNL     1       8.198  -1.352  24.703  0.00  0.00    +0.000 C 
ATOM      3  C   UNL     1       8.688   0.191  24.485  0.00  0.00    +0.000 C 
ATOM      4  C   UNL     1       9.198  -0.032  22.939  0.00  0.00    +0.000 C 
ATOM      5  C   UNL     1       9.565  -1.344  22.736  0.00  0.00    +0.000 C 
ATOM      6  O   UNL     1      10.715  -1.959  22.228  0.00  0.00    +0.000 OA
ATOM      7  C   UNL     1      10.025   0.208  25.241  0.00  0.00    +0.000 C 
ENDROOT
BRANCH   2   8
ATOM      8  N   UNL     1       8.012  -1.461  26.075  0.00  0.00    +0.000 NA
ATOM      9  C   UNL     1       6.756  -1.955  26.206  0.00  0.00    +0.000 C 
ATOM     10  O   UNL     1       5.881  -1.613  25.412  0.00  0.00    +0.000 OA
ATOM     11  N   UNL     1       6.869  -3.297  26.461  0.00  0.00    +0.000 NA
BRANCH  11  12
ATOM     12  C   UNL     1       5.593  -4.022  26.598  0.00  0.00    +0.000 C 
ATOM     13  C   UNL     1       5.070  -3.796  28.010  0.00  0.00    +0.000 C 
ATOM     14  C   UNL     1       5.306  -5.000  28.856  0.00  0.00    +0.000 C 
ATOM     15  C   UNL     1       6.174  -6.041  28.447  0.00  0.00    +0.000 C 
ATOM     16  N   UNL     1       6.680  -5.979  27.271  0.00  0.00    +0.000 NA
ATOM     17  C   UNL     1       5.885  -5.484  26.406  0.00  0.00    +0.000 C 
ENDBRANCH  11  12
ENDBRANCH   2   8
BRANCH   4  18
ATOM     18  C   UNL     1       8.282   0.894  22.115  0.00  0.00    +0.000 C 
ATOM     19  C   UNL     1       8.984   2.263  22.108  0.00  0.00    +0.000 C 
ATOM     20  C   UNL     1       8.190   0.365  20.715  0.00  0.00    +0.000 C 
ATOM     21  C   UNL     1       6.951   1.009  22.789  0.00  0.00    +0.000 C 
ENDBRANCH   4  18
BRANCH   1  22
ATOM     22  C   UNL     1       8.172  -3.362  22.947  0.00  0.00    +0.000 C 
BRANCH  22  24
ATOM     23  C   UNL     1       5.732  -3.564  22.539  0.00  0.00    +0.000 C 
ATOM     24  C   UNL     1       6.928  -2.620  22.470  0.00  0.00    +0.000 C 
ENDBRANCH  22  24
ENDBRANCH   1  22
TORSDOF 5
ENDMDL
MODEL 5
REMARK VINA RESULT:      -5.6      2.307      6.938
REMARK  Name = 
REMARK  5 active torsions:
REMARK  status: ('A' for Active; 'I' for Inactive)
REMARK    1  A    between atoms: C_2  and  C_3
REMARK    2  A    between atoms: C_3  and  C_4
REMARK    3  A    between atoms: C_5  and  N_6
REMARK    4  A    between atoms: N_9  and  C_10
REMARK    5  A    between atoms: C_17  and  C_20
REMARK                            x       y       z     vdW  Elec       q    Type
REMARK                         _______ _______ _______ _____ _____    ______ ____
ROOT
ATOM      1  C   UNL     1       8.355   0.244  23.138  0.00  0.00    +0.000 C 
ATOM      2  C   UNL     1       8.816   0.596  24.458  0.00  0.00    +0.000 C 
ATOM      3  C   UNL     1       9.388   2.125  24.532  0.00  0.00    +0.000 C 
ATOM      4  C   UNL     1       8.461   2.689  23.297  0.00  0.00    +0.000 C 
ATOM      5  C   UNL     1       8.148   1.671  22.425  0.00  0.00    +0.000 C 
ATOM      6  O   UNL     1       8.268   1.513  21.039  0.00  0.00    +0.000 OA
ATOM      7  C   UNL     1      10.753   1.986  23.841  0.00  0.00    +0.000 C 
ENDROOT
BRANCH   2   8
ATOM      8  N   UNL     1       9.707  -0.139  25.228  0.00  0.00    +0.000 NA
ATOM      9  C   UNL     1       8.920  -0.810  26.106  0.00  0.00    +0.000 C 
ATOM     10  O   UNL     1       7.902  -0.274  26.543  0.00  0.00    +0.000 OA
ATOM     11  N   UNL     1       8.793  -2.093  25.644  0.00  0.00    +0.000 NA
BRANCH  11  12
ATOM     12  C   UNL     1       7.932  -2.973  26.455  0.00  0.00    +0.000 C 
ATOM     13  C   UNL     1       8.657  -4.298  26.647  0.00  0.00    +0.000 C 
ATOM     14  C   UNL     1       8.085  -5.344  25.753  0.00  0.00    +0.000 C 
ATOM     15  C   UNL     1       7.218  -5.018  24.682  0.00  0.00    +0.000 C 
ATOM     16  N   UNL     1       6.844  -3.799  24.557  0.00  0.00    +0.000 NA
ATOM     17  C   UNL     1       6.669  -3.209  25.674  0.00  0.00    +0.000 C 
ENDBRANCH  11  12
ENDBRANCH   2   8
BRANCH   4  18
ATOM     18  C   UNL     1       7.567   3.750  23.967  0.00  0.00    +0.000 C 
ATOM     19  C   UNL     1       7.581   4.958  23.015  0.00  0.00    +0.000 C 
ATOM     20  C   UNL     1       6.172   3.208  24.078  0.00  0.00    +0.000 C 
ATOM     21  C   UNL     1       8.154   4.137  25.288  0.00  0.00    +0.000 C 
ENDBRANCH   4  18
BRANCH   1  22
ATOM     22  C   UNL     1       6.899  -0.399  22.889  0.00  0.00    +0.000 C 
BRANCH  22  24
ATOM     23  C   UNL     1       8.607  -1.993  22.048  0.00  0.00    +0.000 C 
ATOM     24  C   UNL     1       7.168  -1.514  21.883  0.00  0.00    +0.000 C 
ENDBRANCH  22  24
ENDBRANCH   1  22
TORSDOF 5
ENDMDL
MODEL 6
REMARK VINA RESULT:      -5.5      2.497      4.051
REMARK  Name = 
REMARK  5 active torsions:
REMARK  status: ('A' for Active; 'I' for Inactive)
REMARK    1  A    between atoms: C_2  and  C_3
REMARK    2  A    between atoms: C_3  and  C_4
REMARK    3  A    between atoms: C_5  and  N_6
REMARK    4  A    between atoms: N_9  and  C_10
REMARK    5  A    between atoms: C_17  and  C_20
REMARK                            x       y       z     vdW  Elec       q    Type
REMARK                         _______ _______ _______ _____ _____    ______ ____
ROOT
ATOM      1  C   UNL     1       9.110  -0.809  23.577  0.00  0.00    +0.000 C 
ATOM      2  C   UNL     1       7.716  -0.983  23.899  0.00  0.00    +0.000 C 
ATOM      3  C   UNL     1       7.221  -2.529  23.712  0.00  0.00    +0.000 C 
ATOM      4  C   UNL     1       8.700  -3.192  23.986  0.00  0.00    +0.000 C 
ATOM      5  C   UNL     1       9.697  -2.305  23.645  0.00  0.00    +0.000 C 
ATOM      6  O   UNL     1      10.830  -2.391  22.829  0.00  0.00    +0.000 OA
ATOM      7  C   UNL     1       7.119  -2.646  22.184  0.00  0.00    +0.000 C 
ENDROOT
BRANCH   2   8
ATOM      8  N   UNL     1       6.666  -0.226  23.396  0.00  0.00    +0.000 NA
ATOM      9  C   UNL     1       6.449   0.720  24.343  0.00  0.00    +0.000 C 
ATOM     10  O   UNL     1       6.592   0.435  25.531  0.00  0.00    +0.000 OA
ATOM     11  N   UNL     1       7.040   1.877  23.909  0.00  0.00    +0.000 NA
BRANCH  11  12
ATOM     12  C   UNL     1       6.941   3.021  24.835  0.00  0.00    +0.000 C 
ATOM     13  C   UNL     1       6.017   4.057  24.210  0.00  0.00    +0.000 C 
ATOM     14  C   UNL     1       6.803   5.187  23.641  0.00  0.00    +0.000 C 
ATOM     15  C   UNL     1       8.204   5.102  23.454  0.00  0.00    +0.000 C 
ATOM     16  N   UNL     1       8.809   4.059  23.887  0.00  0.00    +0.000 NA
ATOM     17  C   UNL     1       8.318   3.606  24.974  0.00  0.00    +0.000 C 
ENDBRANCH  11  12
ENDBRANCH   2   8
BRANCH   4  18
ATOM     18  C   UNL     1       8.493  -4.030  25.263  0.00  0.00    +0.000 C 
ATOM     19  C   UNL     1       7.166  -4.779  25.050  0.00  0.00    +0.000 C 
ATOM     20  C   UNL     1       9.617  -5.016  25.382  0.00  0.00    +0.000 C 
ATOM     21  C   UNL     1       8.379  -3.120  26.445  0.00  0.00    +0.000 C 
ENDBRANCH   4  18
BRANCH   1  22
ATOM     22  C   UNL     1      10.129  -0.070  24.582  0.00  0.00    +0.000 C 
BRANCH  22  24
ATOM     23  C   UNL     1      10.080   1.020  22.351  0.00  0.00    +0.000 C 
ATOM     24  C   UNL     1      10.766   1.011  23.714  0.00  0.00    +0.000 C 
ENDBRANCH  22  24
ENDBRANCH   1  22
TORSDOF 5
ENDMDL
MODEL 7
REMARK VINA RESULT:      -5.5      3.040      5.855
REMARK  Name = 
REMARK  5 active torsions:
REMARK  status: ('A' for Active; 'I' for Inactive)
REMARK    1  A    between atoms: C_2  and  C_3
REMARK    2  A    between atoms: C_3  and  C_4
REMARK    3  A    between atoms: C_5  and  N_6
REMARK    4  A    between atoms: N_9  and  C_10
REMARK    5  A    between atoms: C_17  and  C_20
REMARK                            x       y       z     vdW  Elec       q    Type
REMARK                         _______ _______ _______ _____ _____    ______ ____
ROOT
ATOM      1  C   UNL     1       8.972  -0.387  23.664  0.00  0.00    +0.000 C 
ATOM      2  C   UNL     1       8.447   0.949  23.539  0.00  0.00    +0.000 C 
ATOM      3  C   UNL     1       8.565   1.526  22.015  0.00  0.00    +0.000 C 
ATOM      4  C   UNL     1       8.519   0.049  21.294  0.00  0.00    +0.000 C 
ATOM      5  C   UNL     1       9.001  -0.919  22.147  0.00  0.00    +0.000 C 
ATOM      6  O   UNL     1       9.977  -1.914  22.028  0.00  0.00    +0.000 OA
ATOM      7  C   UNL     1      10.062   1.858  21.919  0.00  0.00    +0.000 C 
ENDROOT
BRANCH   2   8
ATOM      8  N   UNL     1       8.783   2.032  24.340  0.00  0.00    +0.000 NA
ATOM      9  C   UNL     1       7.611   2.404  24.914  0.00  0.00    +0.000 C 
ATOM     10  O   UNL     1       6.564   2.312  24.274  0.00  0.00    +0.000 OA
ATOM     11  N   UNL     1       7.603   1.901  26.188  0.00  0.00    +0.000 NA
BRANCH  11  12
ATOM     12  C   UNL     1       6.379   2.172  26.965  0.00  0.00    +0.000 C 
ATOM     13  C   UNL     1       6.555   3.508  27.673  0.00  0.00    +0.000 C 
ATOM     14  C   UNL     1       6.862   3.301  29.117  0.00  0.00    +0.000 C 
ATOM     15  C   UNL     1       7.238   2.034  29.625  0.00  0.00    +0.000 C 
ATOM     16  N   UNL     1       7.206   1.030  28.829  0.00  0.00    +0.000 NA
ATOM     17  C   UNL     1       6.247   1.082  27.990  0.00  0.00    +0.000 C 
ENDBRANCH  11  12
ENDBRANCH   2   8
BRANCH   4  18
ATOM     18  C   UNL     1       7.231   0.096  20.450  0.00  0.00    +0.000 C 
ATOM     19  C   UNL     1       7.702   0.106  18.985  0.00  0.00    +0.000 C 
ATOM     20  C   UNL     1       6.432  -1.146  20.716  0.00  0.00    +0.000 C 
ATOM     21  C   UNL     1       6.481   1.355  20.750  0.00  0.00    +0.000 C 
ENDBRANCH   4  18
BRANCH   1  22
ATOM     22  C   UNL     1       8.126  -1.572  24.353  0.00  0.00    +0.000 C 
BRANCH  22  24
ATOM     23  C   UNL     1       5.747  -2.248  24.144  0.00  0.00    +0.000 C 
ATOM     24  C   UNL     1       6.690  -1.060  24.308  0.00  0.00    +0.000 C 
ENDBRANCH  22  24
ENDBRANCH   1  22
TORSDOF 5
ENDMDL
MODEL 8
REMARK VINA RESULT:      -5.4      2.294      3.658
REMARK  Name = 
REMARK  5 active torsions:
REMARK  status: ('A' for Active; 'I' for Inactive)
REMARK    1  A    between atoms: C_2  and  C_3
REMARK    2  A    between atoms: C_3  and  C_4
REMARK    3  A    between atoms: C_5  and  N_6
REMARK    4  A    between atoms: N_9  and  C_10
REMARK    5  A    between atoms: C_17  and  C_20
REMARK                            x       y       z     vdW  Elec       q    Type
REMARK                         _______ _______ _______ _____ _____    ______ ____
ROOT
ATOM      1  C   UNL     1       7.302  -2.341  22.862  0.00  0.00    +0.000 C 
ATOM      2  C   UNL     1       6.874  -1.780  24.118  0.00  0.00    +0.000 C 
ATOM      3  C   UNL     1       6.284  -2.911  25.139  0.00  0.00    +0.000 C 
ATOM      4  C   UNL     1       7.166  -4.149  24.513  0.00  0.00    +0.000 C 
ATOM      5  C   UNL     1       7.468  -3.906  23.192  0.00  0.00    +0.000 C 
ATOM      6  O   UNL     1       7.310  -4.643  22.012  0.00  0.00    +0.000 OA
ATOM      7  C   UNL     1       4.901  -3.193  24.531  0.00  0.00    +0.000 C 
ENDROOT
BRANCH   2   8
ATOM      8  N   UNL     1       6.017  -0.699  24.274  0.00  0.00    +0.000 NA
ATOM      9  C   UNL     1       6.801   0.283  24.785  0.00  0.00    +0.000 C 
ATOM     10  O   UNL     1       7.704  -0.006  25.569  0.00  0.00    +0.000 OA
ATOM     11  N   UNL     1       7.123   1.126  23.755  0.00  0.00    +0.000 NA
BRANCH  11  12
ATOM     12  C   UNL     1       8.012   2.247  24.112  0.00  0.00    +0.000 C 
ATOM     13  C   UNL     1       7.170   3.324  24.781  0.00  0.00    +0.000 C 
ATOM     14  C   UNL     1       6.907   4.447  23.838  0.00  0.00    +0.000 C 
ATOM     15  C   UNL     1       7.155   4.328  22.450  0.00  0.00    +0.000 C 
ATOM     16  N   UNL     1       7.717   3.258  22.025  0.00  0.00    +0.000 NA
ATOM     17  C   UNL     1       8.585   2.790  22.834  0.00  0.00    +0.000 C 
ENDBRANCH  11  12
ENDBRANCH   2   8
BRANCH   4  18
ATOM     18  C   UNL     1       8.065  -4.586  25.686  0.00  0.00    +0.000 C 
ATOM     19  C   UNL     1       7.199  -5.534  26.534  0.00  0.00    +0.000 C 
ATOM     20  C   UNL     1       9.247  -5.331  25.140  0.00  0.00    +0.000 C 
ATOM     21  C   UNL     1       8.447  -3.387  26.497  0.00  0.00    +0.000 C 
ENDBRANCH   4  18
BRANCH   1  22
ATOM     22  C   UNL     1       8.759  -2.036  22.246  0.00  0.00    +0.000 C 
BRANCH  22  24
ATOM     23  C   UNL     1      10.377  -0.496  23.331  0.00  0.00    +0.000 C 
ATOM     24  C   UNL     1       9.631  -1.819  23.479  0.00  0.00    +0.000 C 
ENDBRANCH  22  24
ENDBRANCH   1  22
TORSDOF 5
ENDMDL
MODEL 9
REMARK VINA RESULT:      -5.4      2.435      6.470
REMARK  Name = 
REMARK  5 active torsions:
REMARK  status: ('A' for Active; 'I' for Inactive)
REMARK    1  A    between atoms: C_2  and  C_3
REMARK    2  A    between atoms: C_3  and  C_4
REMARK    3  A    between atoms: C_5  and  N_6
REMARK    4  A    between atoms: N_9  and  C_10
REMARK    5  A    between atoms: C_17  and  C_20
REMARK                            x       y       z     vdW  Elec       q    Type
REMARK                         _______ _______ _______ _____ _____    ______ ____
ROOT
ATOM      1  C   UNL     1       7.670  -1.650  25.590  0.00  0.00    +0.000 C 
ATOM      2  C   UNL     1       6.585  -1.642  24.640  0.00  0.00    +0.000 C 
ATOM      3  C   UNL     1       6.689  -0.397  23.586  0.00  0.00    +0.000 C 
ATOM      4  C   UNL     1       8.324  -0.262  23.677  0.00  0.00    +0.000 C 
ATOM      5  C   UNL     1       8.779  -0.715  24.895  0.00  0.00    +0.000 C 
ATOM      6  O   UNL     1       9.603  -0.167  25.885  0.00  0.00    +0.000 OA
ATOM      7  C   UNL     1       6.242   0.790  24.454  0.00  0.00    +0.000 C 
ENDROOT
BRANCH   2   8
ATOM      8  N   UNL     1       5.234  -1.714  24.952  0.00  0.00    +0.000 NA
ATOM      9  C   UNL     1       4.822  -2.880  24.394  0.00  0.00    +0.000 C 
ATOM     10  O   UNL     1       5.310  -3.250  23.327  0.00  0.00    +0.000 OA
ATOM     11  N   UNL     1       4.752  -3.810  25.398  0.00  0.00    +0.000 NA
BRANCH  11  12
ATOM     12  C   UNL     1       4.355  -5.166  24.974  0.00  0.00    +0.000 C 
ATOM     13  C   UNL     1       3.138  -5.578  25.792  0.00  0.00    +0.000 C 
ATOM     14  C   UNL     1       3.527  -6.536  26.865  0.00  0.00    +0.000 C 
ATOM     15  C   UNL     1       4.881  -6.744  27.225  0.00  0.00    +0.000 C 
ATOM     16  N   UNL     1       5.787  -6.164  26.529  0.00  0.00    +0.000 NA
ATOM     17  C   UNL     1       5.498  -6.088  25.289  0.00  0.00    +0.000 C 
ENDBRANCH  11  12
ENDBRANCH   2   8
BRANCH   4  18
ATOM     18  C   UNL     1       8.796  -0.581  22.245  0.00  0.00    +0.000 C 
ATOM     19  C   UNL     1       7.580  -1.212  21.544  0.00  0.00    +0.000 C 
ATOM     20  C   UNL     1       9.166   0.701  21.559  0.00  0.00    +0.000 C 
ATOM     21  C   UNL     1       9.920  -1.567  22.297  0.00  0.00    +0.000 C 
ENDBRANCH   4  18
BRANCH   1  22
ATOM     22  C   UNL     1       8.554  -2.969  25.859  0.00  0.00    +0.000 C 
BRANCH  22  24
ATOM     23  C   UNL     1       8.984  -5.168  24.790  0.00  0.00    +0.000 C 
ATOM     24  C   UNL     1       8.385  -3.781  24.578  0.00  0.00    +0.000 C 
ENDBRANCH  22  24
ENDBRANCH   1  22
TORSDOF 5
ENDMDL
