MODEL 1
REMARK VINA RESULT:      -9.0      0.000      0.000
REMARK  Name = 
REMARK  4 active torsions:
REMARK  status: ('A' for Active; 'I' for Inactive)
REMARK    1  A    between atoms: C_7  and  C_8
REMARK    2  A    between atoms: C_24  and  C_26
REMARK    3  A    between atoms: C_31  and  S_32
REMARK    4  A    between atoms: S_32  and  N_35
REMARK                            x       y       z     vdW  Elec       q    Type
REMARK                         _______ _______ _______ _____ _____    ______ ____
ROOT
ATOM      1  C   UNL     1       8.836   0.386  21.198  0.00  0.00    +0.000 C 
ATOM      2  C   UNL     1       9.238   1.483  21.785  0.00  0.00    +0.000 A 
ATOM      3  C   UNL     1       8.139   2.295  22.312  0.00  0.00    +0.000 A 
ATOM      4  C   UNL     1       8.358   3.468  23.195  0.00  0.00    +0.000 A 
ATOM      5  C   UNL     1       9.747   3.300  23.764  0.00  0.00    +0.000 A 
ATOM      6  C   UNL     1      10.803   2.358  23.545  0.00  0.00    +0.000 A 
ATOM      7  C   UNL     1      10.252   1.188  22.939  0.00  0.00    +0.000 A 
ATOM      8  C   UNL     1      10.212  -0.129  23.798  0.00  0.00    +0.000 C 
ATOM      9  N   UNL     1       9.664  -1.069  23.072  0.00  0.00    +0.000 N 
ATOM     10  C   UNL     1       8.560  -1.841  23.518  0.00  0.00    +0.000 C 
ATOM     11  O   UNL     1       8.112  -2.699  22.890  0.00  0.00    +0.000 OA
ATOM     12  C   UNL     1       9.457  -0.892  21.737  0.00  0.00    +0.000 C 
ENDROOT
BRANCH   1  16
ATOM     13  C   UNL     1       5.689  -0.110  18.745  0.00  0.00    +0.000 A 
ATOM     14  C   UNL     1       5.928   1.212  19.426  0.00  0.00    +0.000 A 
ATOM     15  C   UNL     1       6.584   1.472  20.719  0.00  0.00    +0.000 A 
ATOM     16  C   UNL     1       7.368   0.170  21.145  0.00  0.00    +0.000 A 
ATOM     17  C   UNL     1       6.752  -1.167  20.933  0.00  0.00    +0.000 A 
ATOM     18  C   UNL     1       5.917  -1.261  19.631  0.00  0.00    +0.000 A 
ENDBRANCH   1  16
BRANCH  10  19
ATOM     19  C   UNL     1       8.921  -2.257  24.842  0.00  0.00    +0.000 A 
ATOM     20  C   UNL     1       9.259  -3.683  24.542  0.00  0.00    +0.000 A 
ATOM     21  C   UNL     1       8.569  -4.863  25.096  0.00  0.00    +0.000 A 
ATOM     22  C   UNL     1       7.544  -4.509  26.142  0.00  0.00    +0.000 A 
ATOM     23  C   UNL     1       7.309  -3.171  26.722  0.00  0.00    +0.000 A 
ATOM     24  C   UNL     1       8.126  -2.045  26.041  0.00  0.00    +0.000 A 
BRANCH  22  25
ATOM     25  S   UNL     1       6.024  -5.340  25.576  0.00  0.00    +0.000 S 
ATOM     26  O   UNL     1       6.101  -5.686  24.217  0.00  0.00    +0.000 OA
ATOM     27  O   UNL     1       5.852  -6.507  26.468  0.00  0.00    +0.000 OA
BRANCH  25  28
ATOM     28  N   UNL     1       4.767  -4.350  25.876  0.00  0.00    +0.000 NA
ATOM     29  H   UNL     1       5.092  -3.391  25.928  0.00  0.00    +0.000 HD
ATOM     30  H   UNL     1       4.292  -4.534  26.726  0.00  0.00    +0.000 HD
ENDBRANCH  25  28
ENDBRANCH  22  25
ENDBRANCH  10  19
TORSDOF 4
ENDMDL
MODEL 2
REMARK VINA RESULT:      -8.2      1.142      1.349
REMARK  Name = 
REMARK  4 active torsions:
REMARK  status: ('A' for Active; 'I' for Inactive)
REMARK    1  A    between atoms: C_7  and  C_8
REMARK    2  A    between atoms: C_24  and  C_26
REMARK    3  A    between atoms: C_31  and  S_32
REMARK    4  A    between atoms: S_32  and  N_35
REMARK                            x       y       z     vdW  Elec       q    Type
REMARK                         _______ _______ _______ _____ _____    ______ ____
ROOT
ATOM      1  C   UNL     1       8.380   1.501  21.212  0.00  0.00    +0.000 C 
ATOM      2  C   UNL     1       8.466   2.600  21.914  0.00  0.00    +0.000 A 
ATOM      3  C   UNL     1       7.194   3.004  22.518  0.00  0.00    +0.000 A 
ATOM      4  C   UNL     1       7.092   4.093  23.522  0.00  0.00    +0.000 A 
ATOM      5  C   UNL     1       8.484   4.271  24.079  0.00  0.00    +0.000 A 
ATOM      6  C   UNL     1       9.759   3.698  23.768  0.00  0.00    +0.000 A 
ATOM      7  C   UNL     1       9.550   2.489  23.038  0.00  0.00    +0.000 A 
ATOM      8  C   UNL     1       9.908   1.134  23.751  0.00  0.00    +0.000 C 
ATOM      9  N   UNL     1       9.633   0.157  22.926  0.00  0.00    +0.000 N 
ATOM     10  C   UNL     1       8.806  -0.940  23.280  0.00  0.00    +0.000 C 
ATOM     11  O   UNL     1       8.606  -1.820  22.561  0.00  0.00    +0.000 OA
ATOM     12  C   UNL     1       9.351   0.405  21.616  0.00  0.00    +0.000 C 
ENDROOT
BRANCH   1  16
ATOM     13  C   UNL     1       5.477   0.318  18.694  0.00  0.00    +0.000 A 
ATOM     14  C   UNL     1       5.337   1.598  19.475  0.00  0.00    +0.000 A 
ATOM     15  C   UNL     1       5.906   1.934  20.792  0.00  0.00    +0.000 A 
ATOM     16  C   UNL     1       7.034   0.881  21.127  0.00  0.00    +0.000 A 
ATOM     17  C   UNL     1       6.821  -0.556  20.806  0.00  0.00    +0.000 A 
ATOM     18  C   UNL     1       6.033  -0.784  19.492  0.00  0.00    +0.000 A 
ENDBRANCH   1  16
BRANCH  10  19
ATOM     19  C   UNL     1       9.302  -1.371  24.554  0.00  0.00    +0.000 A 
ATOM     20  C   UNL     1       9.696  -2.764  24.180  0.00  0.00    +0.000 A 
ATOM     21  C   UNL     1       9.127  -4.000  24.750  0.00  0.00    +0.000 A 
ATOM     22  C   UNL     1       8.176  -3.739  25.888  0.00  0.00    +0.000 A 
ATOM     23  C   UNL     1       7.913  -2.435  26.531  0.00  0.00    +0.000 A 
ATOM     24  C   UNL     1       8.601  -1.242  25.822  0.00  0.00    +0.000 A 
BRANCH  22  25
ATOM     25  S   UNL     1       6.665  -4.646  25.424  0.00  0.00    +0.000 S 
ATOM     26  O   UNL     1       5.537  -3.809  25.438  0.00  0.00    +0.000 OA
ATOM     27  O   UNL     1       6.943  -5.232  24.095  0.00  0.00    +0.000 OA
BRANCH  25  28
ATOM     28  N   UNL     1       6.496  -5.900  26.447  0.00  0.00    +0.000 NA
ATOM     29  H   UNL     1       5.581  -6.320  26.327  0.00  0.00    +0.000 HD
ATOM     30  H   UNL     1       6.575  -5.663  27.406  0.00  0.00    +0.000 HD
ENDBRANCH  25  28
ENDBRANCH  22  25
ENDBRANCH  10  19
TORSDOF 4
ENDMDL
MODEL 3
REMARK VINA RESULT:      -7.2      3.650      7.074
REMARK  Name = 
REMARK  4 active torsions:
REMARK  status: ('A' for Active; 'I' for Inactive)
REMARK    1  A    between atoms: C_7  and  C_8
REMARK    2  A    between atoms: C_24  and  C_26
REMARK    3  A    between atoms: C_31  and  S_32
REMARK    4  A    between atoms: S_32  and  N_35
REMARK                            x       y       z     vdW  Elec       q    Type
REMARK                         _______ _______ _______ _____ _____    ______ ____
ROOT
ATOM      1  C   UNL     1       6.367  -3.510  25.498  0.00  0.00    +0.000 C 
ATOM      2  C   UNL     1       6.379  -4.501  24.646  0.00  0.00    +0.000 A 
ATOM      3  C   UNL     1       5.372  -4.372  23.591  0.00  0.00    +0.000 A 
ATOM      4  C   UNL     1       5.336  -5.259  22.401  0.00  0.00    +0.000 A 
ATOM      5  C   UNL     1       6.714  -5.871  22.302  0.00  0.00    +0.000 A 
ATOM      6  C   UNL     1       7.885  -5.819  23.126  0.00  0.00    +0.000 A 
ATOM      7  C   UNL     1       7.787  -4.684  23.987  0.00  0.00    +0.000 A 
ATOM      8  C   UNL     1       8.774  -3.487  23.733  0.00  0.00    +0.000 C 
ATOM      9  N   UNL     1       8.513  -2.553  24.611  0.00  0.00    +0.000 N 
ATOM     10  C   UNL     1       8.251  -1.207  24.248  0.00  0.00    +0.000 C 
ATOM     11  O   UNL     1       8.067  -0.381  25.032  0.00  0.00    +0.000 OA
ATOM     12  C   UNL     1       7.698  -2.800  25.674  0.00  0.00    +0.000 C 
ENDROOT
BRANCH   1  16
ATOM     13  C   UNL     1       3.409  -1.400  27.220  0.00  0.00    +0.000 A 
ATOM     14  C   UNL     1       3.092  -2.550  26.300  0.00  0.00    +0.000 A 
ATOM     15  C   UNL     1       3.882  -3.061  25.166  0.00  0.00    +0.000 A 
ATOM     16  C   UNL     1       5.340  -2.463  25.270  0.00  0.00    +0.000 A 
ATOM     17  C   UNL     1       5.529  -1.041  25.668  0.00  0.00    +0.000 A 
ATOM     18  C   UNL     1       4.507  -0.557  26.728  0.00  0.00    +0.000 A 
ENDBRANCH   1  16
BRANCH  10  19
ATOM     19  C   UNL     1       9.296  -0.870  23.327  0.00  0.00    +0.000 A 
ATOM     20  C   UNL     1      10.238  -0.217  24.287  0.00  0.00    +0.000 A 
ATOM     21  C   UNL     1      10.673   1.191  24.238  0.00  0.00    +0.000 A 
ATOM     22  C   UNL     1      10.186   1.916  23.011  0.00  0.00    +0.000 A 
ATOM     23  C   UNL     1       9.484   1.316  21.859  0.00  0.00    +0.000 A 
ATOM     24  C   UNL     1       9.116  -0.175  22.061  0.00  0.00    +0.000 A 
BRANCH  22  25
ATOM     25  S   UNL     1       9.374   3.410  23.668  0.00  0.00    +0.000 S 
ATOM     26  O   UNL     1       8.786   3.167  24.920  0.00  0.00    +0.000 OA
ATOM     27  O   UNL     1      10.423   4.452  23.705  0.00  0.00    +0.000 OA
BRANCH  25  28
ATOM     28  N   UNL     1       8.277   3.908  22.574  0.00  0.00    +0.000 NA
ATOM     29  H   UNL     1       7.658   3.141  22.336  0.00  0.00    +0.000 HD
ATOM     30  H   UNL     1       8.664   4.235  21.722  0.00  0.00    +0.000 HD
ENDBRANCH  25  28
ENDBRANCH  22  25
ENDBRANCH  10  19
TORSDOF 4
ENDMDL
MODEL 4
REMARK VINA RESULT:      -7.2      3.516      7.310
REMARK  Name = 
REMARK  4 active torsions:
REMARK  status: ('A' for Active; 'I' for Inactive)
REMARK    1  A    between atoms: C_7  and  C_8
REMARK    2  A    between atoms: C_24  and  C_26
REMARK    3  A    between atoms: C_31  and  S_32
REMARK    4  A    between atoms: S_32  and  N_35
REMARK                            x       y       z     vdW  Elec       q    Type
REMARK                         _______ _______ _______ _____ _____    ______ ____
ROOT
ATOM      1  C   UNL     1       6.672  -3.969  25.147  0.00  0.00    +0.000 C 
ATOM      2  C   UNL     1       6.438  -4.914  24.274  0.00  0.00    +0.000 A 
ATOM      3  C   UNL     1       5.056  -4.928  23.790  0.00  0.00    +0.000 A 
ATOM      4  C   UNL     1       4.613  -5.768  22.648  0.00  0.00    +0.000 A 
ATOM      5  C   UNL     1       5.868  -6.125  21.888  0.00  0.00    +0.000 A 
ATOM      6  C   UNL     1       7.264  -5.895  22.113  0.00  0.00    +0.000 A 
ATOM      7  C   UNL     1       7.406  -4.824  23.047  0.00  0.00    +0.000 A 
ATOM      8  C   UNL     1       7.991  -3.465  22.516  0.00  0.00    +0.000 C 
ATOM      9  N   UNL     1       8.026  -2.621  23.515  0.00  0.00    +0.000 N 
ATOM     10  C   UNL     1       7.439  -1.330  23.454  0.00  0.00    +0.000 C 
ATOM     11  O   UNL     1       7.514  -0.576  24.324  0.00  0.00    +0.000 OA
ATOM     12  C   UNL     1       7.823  -3.043  24.795  0.00  0.00    +0.000 C 
ENDROOT
BRANCH   1  16
ATOM     13  C   UNL     1       4.371  -2.695  28.188  0.00  0.00    +0.000 A 
ATOM     14  C   UNL     1       3.869  -3.753  27.240  0.00  0.00    +0.000 A 
ATOM     15  C   UNL     1       4.217  -3.953  25.823  0.00  0.00    +0.000 A 
ATOM     16  C   UNL     1       5.516  -3.112  25.509  0.00  0.00    +0.000 A 
ATOM     17  C   UNL     1       5.666  -1.745  26.078  0.00  0.00    +0.000 A 
ATOM     18  C   UNL     1       5.082  -1.604  27.506  0.00  0.00    +0.000 A 
ENDBRANCH   1  16
BRANCH  10  19
ATOM     19  C   UNL     1       7.895  -0.784  22.210  0.00  0.00    +0.000 A 
ATOM     20  C   UNL     1       9.350  -0.669  22.537  0.00  0.00    +0.000 A 
ATOM     21  C   UNL     1      10.121   0.587  22.587  0.00  0.00    +0.000 A 
ATOM     22  C   UNL     1       9.330   1.782  22.126  0.00  0.00    +0.000 A 
ATOM     23  C   UNL     1       7.982   1.763  21.522  0.00  0.00    +0.000 A 
ATOM     24  C   UNL     1       7.317   0.364  21.528  0.00  0.00    +0.000 A 
BRANCH  22  25
ATOM     25  S   UNL     1       9.508   2.986  23.483  0.00  0.00    +0.000 S 
ATOM     26  O   UNL     1      10.813   3.501  23.547  0.00  0.00    +0.000 OA
ATOM     27  O   UNL     1       8.481   4.021  23.236  0.00  0.00    +0.000 OA
BRANCH  25  28
ATOM     28  N   UNL     1       9.084   2.247  24.870  0.00  0.00    +0.000 NA
ATOM     29  H   UNL     1       8.282   2.716  25.276  0.00  0.00    +0.000 HD
ATOM     30  H   UNL     1       9.790   2.240  25.565  0.00  0.00    +0.000 HD
ENDBRANCH  25  28
ENDBRANCH  22  25
ENDBRANCH  10  19
TORSDOF 4
ENDMDL
MODEL 5
REMARK VINA RESULT:      -6.9      2.485      4.107
REMARK  Name = 
REMARK  4 active torsions:
REMARK  status: ('A' for Active; 'I' for Inactive)
REMARK    1  A    between atoms: C_7  and  C_8
REMARK    2  A    between atoms: C_24  and  C_26
REMARK    3  A    between atoms: C_31  and  S_32
REMARK    4  A    between atoms: S_32  and  N_35
REMARK                            x       y       z     vdW  Elec       q    Type
REMARK                         _______ _______ _______ _____ _____    ______ ____
ROOT
ATOM      1  C   UNL     1       6.882   1.445  24.466  0.00  0.00    +0.000 C 
ATOM      2  C   UNL     1       7.815   1.841  23.641  0.00  0.00    +0.000 A 
ATOM      3  C   UNL     1       9.052   2.245  24.315  0.00  0.00    +0.000 A 
ATOM      4  C   UNL     1      10.311   2.528  23.582  0.00  0.00    +0.000 A 
ATOM      5  C   UNL     1      10.161   1.863  22.234  0.00  0.00    +0.000 A 
ATOM      6  C   UNL     1       9.091   1.167  21.584  0.00  0.00    +0.000 A 
ATOM      7  C   UNL     1       8.152   0.747  22.574  0.00  0.00    +0.000 A 
ATOM      8  C   UNL     1       8.036  -0.794  22.863  0.00  0.00    +0.000 C 
ATOM      9  N   UNL     1       7.140  -0.964  23.802  0.00  0.00    +0.000 N 
ATOM     10  C   UNL     1       7.397  -1.698  24.989  0.00  0.00    +0.000 C 
ATOM     11  O   UNL     1       6.587  -1.880  25.789  0.00  0.00    +0.000 OA
ATOM     12  C   UNL     1       6.326   0.060  24.186  0.00  0.00    +0.000 C 
ENDROOT
BRANCH   1  16
ATOM     13  C   UNL     1       5.440   2.252  28.131  0.00  0.00    +0.000 A 
ATOM     14  C   UNL     1       6.329   3.241  27.424  0.00  0.00    +0.000 A 
ATOM     15  C   UNL     1       7.389   2.977  26.435  0.00  0.00    +0.000 A 
ATOM     16  C   UNL     1       7.217   1.498  25.911  0.00  0.00    +0.000 A 
ATOM     17  C   UNL     1       6.868   0.411  26.865  0.00  0.00    +0.000 A 
ATOM     18  C   UNL     1       5.896   0.862  27.984  0.00  0.00    +0.000 A 
ENDBRANCH   1  16
BRANCH  10  19
ATOM     19  C   UNL     1       8.011  -2.912  24.538  0.00  0.00    +0.000 A 
ATOM     20  C   UNL     1       6.775  -3.646  24.124  0.00  0.00    +0.000 A 
ATOM     21  C   UNL     1       6.292  -4.910  24.709  0.00  0.00    +0.000 A 
ATOM     22  C   UNL     1       7.255  -5.506  25.702  0.00  0.00    +0.000 A 
ATOM     23  C   UNL     1       8.622  -5.028  25.994  0.00  0.00    +0.000 A 
ATOM     24  C   UNL     1       8.981  -3.698  25.285  0.00  0.00    +0.000 A 
BRANCH  22  25
ATOM     25  S   UNL     1       6.244  -5.787  27.192  0.00  0.00    +0.000 S 
ATOM     26  O   UNL     1       5.304  -6.812  26.990  0.00  0.00    +0.000 OA
ATOM     27  O   UNL     1       7.204  -6.079  28.278  0.00  0.00    +0.000 OA
BRANCH  25  28
ATOM     28  N   UNL     1       5.525  -4.381  27.586  0.00  0.00    +0.000 NA
ATOM     29  H   UNL     1       5.608  -4.223  28.584  0.00  0.00    +0.000 HD
ATOM     30  H   UNL     1       4.559  -4.338  27.371  0.00  0.00    +0.000 HD
ENDBRANCH  25  28
ENDBRANCH  22  25
ENDBRANCH  10  19
TORSDOF 4
ENDMDL
MODEL 6
REMARK VINA RESULT:      -6.9      3.442      6.972
REMARK  Name = 
REMARK  4 active torsions:
REMARK  status: ('A' for Active; 'I' for Inactive)
REMARK    1  A    between atoms: C_7  and  C_8
REMARK    2  A    between atoms: C_24  and  C_26
REMARK    3  A    between atoms: C_31  and  S_32
REMARK    4  A    between atoms: S_32  and  N_35
REMARK                            x       y       z     vdW  Elec       q    Type
REMARK                         _______ _______ _______ _____ _____    ______ ____
ROOT
ATOM      1  C   UNL     1       6.499  -3.511  25.795  0.00  0.00    +0.000 C 
ATOM      2  C   UNL     1       6.323  -4.268  24.744  0.00  0.00    +0.000 A 
ATOM      3  C   UNL     1       5.335  -3.735  23.803  0.00  0.00    +0.000 A 
ATOM      4  C   UNL     1       5.124  -4.307  22.450  0.00  0.00    +0.000 A 
ATOM      5  C   UNL     1       6.371  -5.099  22.138  0.00  0.00    +0.000 A 
ATOM      6  C   UNL     1       7.549  -5.432  22.884  0.00  0.00    +0.000 A 
ATOM      7  C   UNL     1       7.666  -4.525  23.980  0.00  0.00    +0.000 A 
ATOM      8  C   UNL     1       8.842  -3.482  23.943  0.00  0.00    +0.000 C 
ATOM      9  N   UNL     1       8.763  -2.745  25.021  0.00  0.00    +0.000 N 
ATOM     10  C   UNL     1       8.732  -1.327  24.984  0.00  0.00    +0.000 C 
ATOM     11  O   UNL     1       8.710  -0.684  25.942  0.00  0.00    +0.000 OA
ATOM     12  C   UNL     1       7.937  -3.091  26.048  0.00  0.00    +0.000 C 
ENDROOT
BRANCH   1  16
ATOM     13  C   UNL     1       3.725  -1.562  27.956  0.00  0.00    +0.000 A 
ATOM     14  C   UNL     1       3.338  -2.299  26.700  0.00  0.00    +0.000 A 
ATOM     15  C   UNL     1       4.155  -2.561  25.503  0.00  0.00    +0.000 A 
ATOM     16  C   UNL     1       5.666  -2.285  25.866  0.00  0.00    +0.000 A 
ATOM     17  C   UNL     1       6.022  -1.111  26.709  0.00  0.00    +0.000 A 
ATOM     18  C   UNL     1       4.980  -0.811  27.817  0.00  0.00    +0.000 A 
ENDBRANCH   1  16
BRANCH  10  19
ATOM     19  C   UNL     1       9.803  -0.964  24.102  0.00  0.00    +0.000 A 
ATOM     20  C   UNL     1      10.360   0.181  24.887  0.00  0.00    +0.000 A 
ATOM     21  C   UNL     1      10.422   1.582  24.433  0.00  0.00    +0.000 A 
ATOM     22  C   UNL     1       9.993   1.757  23.000  0.00  0.00    +0.000 A 
ATOM     23  C   UNL     1       9.684   0.678  22.039  0.00  0.00    +0.000 A 
ATOM     24  C   UNL     1       9.680  -0.736  22.671  0.00  0.00    +0.000 A 
BRANCH  22  25
ATOM     25  S   UNL     1       8.722   3.061  23.071  0.00  0.00    +0.000 S 
ATOM     26  O   UNL     1       7.837   2.977  21.984  0.00  0.00    +0.000 OA
ATOM     27  O   UNL     1       8.056   2.900  24.382  0.00  0.00    +0.000 OA
BRANCH  25  28
ATOM     28  N   UNL     1       9.480   4.501  23.120  0.00  0.00    +0.000 NA
ATOM     29  H   UNL     1       9.135   5.095  22.375  0.00  0.00    +0.000 HD
ATOM     30  H   UNL     1      10.464   4.451  23.011  0.00  0.00    +0.000 HD
ENDBRANCH  25  28
ENDBRANCH  22  25
ENDBRANCH  10  19
TORSDOF 4
ENDMDL
MODEL 7
REMARK VINA RESULT:      -6.9      3.804      6.564
REMARK  Name = 
REMARK  4 active torsions:
REMARK  status: ('A' for Active; 'I' for Inactive)
REMARK    1  A    between atoms: C_7  and  C_8
REMARK    2  A    between atoms: C_24  and  C_26
REMARK    3  A    between atoms: C_31  and  S_32
REMARK    4  A    between atoms: S_32  and  N_35
REMARK                            x       y       z     vdW  Elec       q    Type
REMARK                         _______ _______ _______ _____ _____    ______ ____
ROOT
ATOM      1  C   UNL     1       8.692  -1.099  22.406  0.00  0.00    +0.000 C 
ATOM      2  C   UNL     1       8.099  -1.115  21.241  0.00  0.00    +0.000 A 
ATOM      3  C   UNL     1       6.751  -1.688  21.283  0.00  0.00    +0.000 A 
ATOM      4  C   UNL     1       5.813  -1.618  20.135  0.00  0.00    +0.000 A 
ATOM      5  C   UNL     1       6.322  -0.503  19.253  0.00  0.00    +0.000 A 
ATOM      6  C   UNL     1       7.481   0.339  19.287  0.00  0.00    +0.000 A 
ATOM      7  C   UNL     1       8.025   0.314  20.607  0.00  0.00    +0.000 A 
ATOM      8  C   UNL     1       7.917   1.627  21.465  0.00  0.00    +0.000 C 
ATOM      9  N   UNL     1       8.457   1.392  22.634  0.00  0.00    +0.000 N 
ATOM     10  C   UNL     1       7.782   1.637  23.857  0.00  0.00    +0.000 C 
ATOM     11  O   UNL     1       8.282   1.470  24.883  0.00  0.00    +0.000 OA
ATOM     12  C   UNL     1       9.191   0.265  22.852  0.00  0.00    +0.000 C 
ENDROOT
BRANCH   1  16
ATOM     13  C   UNL     1       8.775  -3.827  25.359  0.00  0.00    +0.000 A 
ATOM     14  C   UNL     1       7.986  -4.084  24.102  0.00  0.00    +0.000 A 
ATOM     15  C   UNL     1       7.344  -3.105  23.207  0.00  0.00    +0.000 A 
ATOM     16  C   UNL     1       7.926  -1.676  23.539  0.00  0.00    +0.000 A 
ATOM     17  C   UNL     1       8.152  -1.281  24.956  0.00  0.00    +0.000 A 
ATOM     18  C   UNL     1       8.639  -2.449  25.851  0.00  0.00    +0.000 A 
ENDBRANCH   1  16
BRANCH  10  19
ATOM     19  C   UNL     1       7.243   2.957  23.715  0.00  0.00    +0.000 A 
ATOM     20  C   UNL     1       8.329   3.717  24.408  0.00  0.00    +0.000 A 
ATOM     21  C   UNL     1       8.166   4.521  25.634  0.00  0.00    +0.000 A 
ATOM     22  C   UNL     1       6.731   4.638  26.075  0.00  0.00    +0.000 A 
ATOM     23  C   UNL     1       5.543   4.169  25.332  0.00  0.00    +0.000 A 
ATOM     24  C   UNL     1       5.887   3.359  24.057  0.00  0.00    +0.000 A 
BRANCH  22  25
ATOM     25  S   UNL     1       6.756   4.116  27.821  0.00  0.00    +0.000 S 
ATOM     26  O   UNL     1       7.454   5.034  28.623  0.00  0.00    +0.000 OA
ATOM     27  O   UNL     1       5.339   3.956  28.211  0.00  0.00    +0.000 OA
BRANCH  25  28
ATOM     28  N   UNL     1       7.417   2.630  27.893  0.00  0.00    +0.000 NA
ATOM     29  H   UNL     1       6.711   1.932  27.690  0.00  0.00    +0.000 HD
ATOM     30  H   UNL     1       7.805   2.395  28.774  0.00  0.00    +0.000 HD
ENDBRANCH  25  28
ENDBRANCH  22  25
ENDBRANCH  10  19
TORSDOF 4
ENDMDL
MODEL 8
REMARK VINA RESULT:      -6.8      2.325      2.831
REMARK  Name = 
REMARK  4 active torsions:
REMARK  status: ('A' for Active; 'I' for Inactive)
REMARK    1  A    between atoms: C_7  and  C_8
REMARK    2  A    between atoms: C_24  and  C_26
REMARK    3  A    between atoms: C_31  and  S_32
REMARK    4  A    between atoms: S_32  and  N_35
REMARK                            x       y       z     vdW  Elec       q    Type
REMARK                         _______ _______ _______ _____ _____    ______ ____
ROOT
ATOM      1  C   UNL     1       8.688   0.369  21.037  0.00  0.00    +0.000 C 
ATOM      2  C   UNL     1       9.104   1.439  21.663  0.00  0.00    +0.000 A 
ATOM      3  C   UNL     1       8.014   2.288  22.150  0.00  0.00    +0.000 A 
ATOM      4  C   UNL     1       8.237   3.436  23.064  0.00  0.00    +0.000 A 
ATOM      5  C   UNL     1       9.587   3.200  23.699  0.00  0.00    +0.000 A 
ATOM      6  C   UNL     1      10.613   2.217  23.516  0.00  0.00    +0.000 A 
ATOM      7  C   UNL     1      10.045   1.082  22.862  0.00  0.00    +0.000 A 
ATOM      8  C   UNL     1       9.906  -0.245  23.693  0.00  0.00    +0.000 C 
ATOM      9  N   UNL     1       9.357  -1.150  22.923  0.00  0.00    +0.000 N 
ATOM     10  C   UNL     1       8.201  -1.881  23.299  0.00  0.00    +0.000 C 
ATOM     11  O   UNL     1       7.751  -2.709  22.633  0.00  0.00    +0.000 OA
ATOM     12  C   UNL     1       9.226  -0.942  21.583  0.00  0.00    +0.000 C 
ENDROOT
BRANCH   1  16
ATOM     13  C   UNL     1       5.654   0.030  18.420  0.00  0.00    +0.000 A 
ATOM     14  C   UNL     1       5.913   1.335  19.127  0.00  0.00    +0.000 A 
ATOM     15  C   UNL     1       6.511   1.555  20.455  0.00  0.00    +0.000 A 
ATOM     16  C   UNL     1       7.217   0.217  20.906  0.00  0.00    +0.000 A 
ATOM     17  C   UNL     1       6.556  -1.091  20.648  0.00  0.00    +0.000 A 
ATOM     18  C   UNL     1       5.787  -1.137  19.303  0.00  0.00    +0.000 A 
ENDBRANCH   1  16
BRANCH  10  19
ATOM     19  C   UNL     1       8.476  -2.334  24.631  0.00  0.00    +0.000 A 
ATOM     20  C   UNL     1       7.073  -2.624  25.062  0.00  0.00    +0.000 A 
ATOM     21  C   UNL     1       6.360  -1.958  26.167  0.00  0.00    +0.000 A 
ATOM     22  C   UNL     1       7.238  -1.021  26.955  0.00  0.00    +0.000 A 
ATOM     23  C   UNL     1       8.698  -0.854  26.805  0.00  0.00    +0.000 A 
ATOM     24  C   UNL     1       9.296  -1.636  25.609  0.00  0.00    +0.000 A 
BRANCH  22  25
ATOM     25  S   UNL     1       6.318   0.551  26.966  0.00  0.00    +0.000 S 
ATOM     26  O   UNL     1       5.332   0.578  25.965  0.00  0.00    +0.000 OA
ATOM     27  O   UNL     1       5.768   0.683  28.333  0.00  0.00    +0.000 OA
BRANCH  25  28
ATOM     28  N   UNL     1       7.389   1.764  26.789  0.00  0.00    +0.000 NA
ATOM     29  H   UNL     1       7.177   2.506  27.445  0.00  0.00    +0.000 HD
ATOM     30  H   UNL     1       7.398   2.176  25.888  0.00  0.00    +0.000 HD
ENDBRANCH  25  28
ENDBRANCH  22  25
ENDBRANCH  10  19
TORSDOF 4
ENDMDL
MODEL 9
REMARK VINA RESULT:      -6.6      3.299      6.698
REMARK  Name = 
REMARK  4 active torsions:
REMARK  status: ('A' for Active; 'I' for Inactive)
REMARK    1  A    between atoms: C_7  and  C_8
REMARK    2  A    between atoms: C_24  and  C_26
REMARK    3  A    between atoms: C_31  and  S_32
REMARK    4  A    between atoms: S_32  and  N_35
REMARK                            x       y       z     vdW  Elec       q    Type
REMARK                         _______ _______ _______ _____ _____    ______ ____
ROOT
ATOM      1  C   UNL     1       6.078  -3.963  25.390  0.00  0.00    +0.000 C 
ATOM      2  C   UNL     1       6.252  -4.839  24.436  0.00  0.00    +0.000 A 
ATOM      3  C   UNL     1       5.372  -4.627  23.285  0.00  0.00    +0.000 A 
ATOM      4  C   UNL     1       5.533  -5.361  22.004  0.00  0.00    +0.000 A 
ATOM      5  C   UNL     1       6.947  -5.891  22.009  0.00  0.00    +0.000 A 
ATOM      6  C   UNL     1       8.006  -5.887  22.973  0.00  0.00    +0.000 A 
ATOM      7  C   UNL     1       7.737  -4.873  23.942  0.00  0.00    +0.000 A 
ATOM      8  C   UNL     1       8.673  -3.609  23.956  0.00  0.00    +0.000 C 
ATOM      9  N   UNL     1       8.253  -2.805  24.898  0.00  0.00    +0.000 N 
ATOM     10  C   UNL     1       7.953  -1.437  24.665  0.00  0.00    +0.000 C 
ATOM     11  O   UNL     1       7.627  -0.725  25.512  0.00  0.00    +0.000 OA
ATOM     12  C   UNL     1       7.333  -3.219  25.814  0.00  0.00    +0.000 C 
ENDROOT
BRANCH   1  16
ATOM     13  C   UNL     1       2.766  -2.278  26.926  0.00  0.00    +0.000 A 
ATOM     14  C   UNL     1       2.664  -3.293  25.817  0.00  0.00    +0.000 A 
ATOM     15  C   UNL     1       3.641  -3.589  24.755  0.00  0.00    +0.000 A 
ATOM     16  C   UNL     1       5.023  -2.944  25.160  0.00  0.00    +0.000 A 
ATOM     17  C   UNL     1       5.055  -1.590  25.777  0.00  0.00    +0.000 A 
ATOM     18  C   UNL     1       3.862  -1.319  26.728  0.00  0.00    +0.000 A 
ENDBRANCH   1  16
BRANCH  10  19
ATOM     19  C   UNL     1       9.077  -0.940  23.928  0.00  0.00    +0.000 A 
ATOM     20  C   UNL     1       8.622   0.473  23.754  0.00  0.00    +0.000 A 
ATOM     21  C   UNL     1       8.352   1.135  22.464  0.00  0.00    +0.000 A 
ATOM     22  C   UNL     1       8.720   0.284  21.278  0.00  0.00    +0.000 A 
ATOM     23  C   UNL     1       9.429  -1.012  21.313  0.00  0.00    +0.000 A 
ATOM     24  C   UNL     1       9.653  -1.559  22.745  0.00  0.00    +0.000 A 
BRANCH  22  25
ATOM     25  S   UNL     1       7.212   0.268  20.255  0.00  0.00    +0.000 S 
ATOM     26  O   UNL     1       7.513   0.425  18.892  0.00  0.00    +0.000 OA
ATOM     27  O   UNL     1       6.535  -1.011  20.562  0.00  0.00    +0.000 OA
BRANCH  25  28
ATOM     28  N   UNL     1       6.225   1.444  20.794  0.00  0.00    +0.000 NA
ATOM     29  H   UNL     1       6.090   2.137  20.066  0.00  0.00    +0.000 HD
ATOM     30  H   UNL     1       6.561   1.931  21.589  0.00  0.00    +0.000 HD
ENDBRANCH  25  28
ENDBRANCH  22  25
ENDBRANCH  10  19
TORSDOF 4
ENDMDL
