MODEL 1
REMARK VINA RESULT:      -8.6      0.000      0.000
REMARK  Name = 
REMARK  6 active torsions:
REMARK  status: ('A' for Active; 'I' for Inactive)
REMARK    1  A    between atoms: O_2  and  C_3
REMARK    2  A    between atoms: C_12  and  N_13
REMARK    3  A    between atoms: C_15  and  C_17
REMARK    4  A    between atoms: C_26  and  C_28
REMARK    5  A    between atoms: C_28  and  C_31
REMARK    6  A    between atoms: C_47  and  C_49
REMARK                            x       y       z     vdW  Elec       q    Type
REMARK                         _______ _______ _______ _____ _____    ______ ____
ROOT
ATOM      1  C   UNL     1       7.169  -2.632  23.894  0.00  0.00    +0.000 C 
ATOM      2  C   UNL     1       6.867  -1.533  24.809  0.00  0.00    +0.000 C 
ATOM      3  C   UNL     1       8.024  -0.876  25.532  0.00  0.00    +0.000 C 
ATOM      4  N   UNL     1       9.235  -0.929  24.755  0.00  0.00    +0.000 N 
ATOM      5  C   UNL     1       9.856   0.184  24.237  0.00  0.00    +0.000 C 
ATOM      6  O   UNL     1      11.085   0.212  24.352  0.00  0.00    +0.000 OA
ATOM      7  C   UNL     1       9.664  -2.248  24.335  0.00  0.00    +0.000 C 
ATOM      8  C   UNL     1       8.578  -2.883  23.477  0.00  0.00    +0.000 C 
ENDROOT
BRANCH   1  11
ATOM      9  N   UNL     1       6.456  -1.239  22.018  0.00  0.00    +0.000 N 
ATOM     10  H   UNL     1       5.531  -0.873  22.000  0.00  0.00    +0.000 HD
ATOM     11  C   UNL     1       6.364  -2.443  22.583  0.00  0.00    +0.000 C 
ATOM     12  O   UNL     1       5.462  -3.196  22.267  0.00  0.00    +0.000 OA
BRANCH   9  18
ATOM     13  C   UNL     1       5.624  -1.420  19.759  0.00  0.00    +0.000 A 
ATOM     14  C   UNL     1       5.554  -0.224  18.820  0.00  0.00    +0.000 A 
ATOM     15  C   UNL     1       6.618   0.791  18.531  0.00  0.00    +0.000 A 
ATOM     16  C   UNL     1       7.757   0.379  19.392  0.00  0.00    +0.000 A 
ATOM     17  C   UNL     1       8.113  -0.573  20.375  0.00  0.00    +0.000 A 
ATOM     18  C   UNL     1       6.769  -1.313  20.664  0.00  0.00    +0.000 A 
BRANCH  13  20
ATOM     19  H   UNL     1       4.648  -2.907  19.108  0.00  0.00    +0.000 HD
ATOM     20  O   UNL     1       5.407  -2.426  18.829  0.00  0.00    +0.000 OA
ENDBRANCH  13  20
ENDBRANCH   9  18
ENDBRANCH   1  11
BRANCH   5  21
ATOM     21  C   UNL     1       9.157   0.713  23.101  0.00  0.00    +0.000 C 
BRANCH  21  22
ATOM     22  C   UNL     1       9.274   2.293  22.796  0.00  0.00    +0.000 C 
ATOM     23  C   UNL     1       9.412   2.893  23.987  0.00  0.00    +0.000 A 
ATOM     24  C   UNL     1      10.509   3.966  23.531  0.00  0.00    +0.000 A 
ATOM     25  C   UNL     1      10.648   5.382  23.831  0.00  0.00    +0.000 A 
ATOM     26  C   UNL     1       9.474   5.658  24.788  0.00  0.00    +0.000 A 
ATOM     27  C   UNL     1       8.458   4.874  25.351  0.00  0.00    +0.000 A 
ATOM     28  C   UNL     1       8.214   3.809  24.386  0.00  0.00    +0.000 A 
ATOM     29  C   UNL     1       7.042   4.217  23.444  0.00  0.00    +0.000 C 
ATOM     30  N   UNL     1       7.063   3.461  22.395  0.00  0.00    +0.000 N 
ATOM     31  C   UNL     1       5.868   2.508  22.082  0.00  0.00    +0.000 C 
ATOM     32  O   UNL     1       6.135   1.618  22.976  0.00  0.00    +0.000 OA
ATOM     33  C   UNL     1       8.074   2.748  22.050  0.00  0.00    +0.000 C 
BRANCH  31  34
ATOM     34  C   UNL     1       4.696   3.361  22.354  0.00  0.00    +0.000 C 
ATOM     35 CL   UNL     1       3.837   2.916  23.856  0.00  0.00    +0.000 Cl
ENDBRANCH  31  34
ENDBRANCH  21  22
ENDBRANCH   5  21
TORSDOF 6
ENDMDL
MODEL 2
REMARK VINA RESULT:      -8.3      3.179      6.271
REMARK  Name = 
REMARK  6 active torsions:
REMARK  status: ('A' for Active; 'I' for Inactive)
REMARK    1  A    between atoms: O_2  and  C_3
REMARK    2  A    between atoms: C_12  and  N_13
REMARK    3  A    between atoms: C_15  and  C_17
REMARK    4  A    between atoms: C_26  and  C_28
REMARK    5  A    between atoms: C_28  and  C_31
REMARK    6  A    between atoms: C_47  and  C_49
REMARK                            x       y       z     vdW  Elec       q    Type
REMARK                         _______ _______ _______ _____ _____    ______ ____
ROOT
ATOM      1  C   UNL     1       8.958   0.260  22.794  0.00  0.00    +0.000 C 
ATOM      2  C   UNL     1      10.207  -0.140  23.438  0.00  0.00    +0.000 C 
ATOM      3  C   UNL     1      10.354   0.121  24.922  0.00  0.00    +0.000 C 
ATOM      4  N   UNL     1       9.084   0.076  25.598  0.00  0.00    +0.000 N 
ATOM      5  C   UNL     1       8.749  -0.884  26.524  0.00  0.00    +0.000 C 
ATOM      6  O   UNL     1       8.172  -0.472  27.535  0.00  0.00    +0.000 OA
ATOM      7  C   UNL     1       8.060   0.967  25.088  0.00  0.00    +0.000 C 
ATOM      8  C   UNL     1       7.780   0.631  23.629  0.00  0.00    +0.000 C 
ENDROOT
BRANCH   1  11
ATOM      9  N   UNL     1       7.195  -0.818  21.491  0.00  0.00    +0.000 N 
ATOM     10  H   UNL     1       6.772  -1.652  21.830  0.00  0.00    +0.000 HD
ATOM     11  C   UNL     1       8.475  -0.879  21.861  0.00  0.00    +0.000 C 
ATOM     12  O   UNL     1       9.094  -1.919  21.740  0.00  0.00    +0.000 OA
BRANCH   9  18
ATOM     13  C   UNL     1       5.684  -1.281  19.666  0.00  0.00    +0.000 A 
ATOM     14  C   UNL     1       5.111  -0.180  18.785  0.00  0.00    +0.000 A 
ATOM     15  C   UNL     1       5.837   0.950  18.124  0.00  0.00    +0.000 A 
ATOM     16  C   UNL     1       7.252   0.768  18.543  0.00  0.00    +0.000 A 
ATOM     17  C   UNL     1       8.067  -0.049  19.361  0.00  0.00    +0.000 A 
ATOM     18  C   UNL     1       7.036  -0.947  20.114  0.00  0.00    +0.000 A 
BRANCH  13  20
ATOM     19  H   UNL     1       6.101  -2.889  18.755  0.00  0.00    +0.000 HD
ATOM     20  O   UNL     1       5.325  -2.374  18.890  0.00  0.00    +0.000 OA
ENDBRANCH  13  20
ENDBRANCH   9  18
ENDBRANCH   1  11
BRANCH   5  21
ATOM     21  C   UNL     1       8.462  -2.149  25.912  0.00  0.00    +0.000 C 
BRANCH  21  22
ATOM     22  C   UNL     1       6.923  -2.620  25.807  0.00  0.00    +0.000 C 
ATOM     23  C   UNL     1       6.742  -3.522  26.783  0.00  0.00    +0.000 A 
ATOM     24  C   UNL     1       5.286  -3.028  27.227  0.00  0.00    +0.000 A 
ATOM     25  C   UNL     1       4.085  -3.772  27.574  0.00  0.00    +0.000 A 
ATOM     26  C   UNL     1       4.537  -5.241  27.473  0.00  0.00    +0.000 A 
ATOM     27  C   UNL     1       5.747  -5.879  27.168  0.00  0.00    +0.000 A 
ATOM     28  C   UNL     1       6.449  -4.966  26.273  0.00  0.00    +0.000 A 
ATOM     29  C   UNL     1       6.153  -5.356  24.794  0.00  0.00    +0.000 C 
ATOM     30  N   UNL     1       6.468  -4.363  24.028  0.00  0.00    +0.000 N 
ATOM     31  C   UNL     1       7.595  -4.515  22.958  0.00  0.00    +0.000 C 
ATOM     32  O   UNL     1       8.594  -4.466  23.771  0.00  0.00    +0.000 OA
ATOM     33  C   UNL     1       6.660  -3.166  24.452  0.00  0.00    +0.000 C 
BRANCH  31  34
ATOM     34  C   UNL     1       7.307  -5.838  22.374  0.00  0.00    +0.000 C 
ATOM     35 CL   UNL     1       6.149  -5.770  21.015  0.00  0.00    +0.000 Cl
ENDBRANCH  31  34
ENDBRANCH  21  22
ENDBRANCH   5  21
TORSDOF 6
ENDMDL
MODEL 3
REMARK VINA RESULT:      -8.3      2.011      3.148
REMARK  Name = 
REMARK  6 active torsions:
REMARK  status: ('A' for Active; 'I' for Inactive)
REMARK    1  A    between atoms: O_2  and  C_3
REMARK    2  A    between atoms: C_12  and  N_13
REMARK    3  A    between atoms: C_15  and  C_17
REMARK    4  A    between atoms: C_26  and  C_28
REMARK    5  A    between atoms: C_28  and  C_31
REMARK    6  A    between atoms: C_47  and  C_49
REMARK                            x       y       z     vdW  Elec       q    Type
REMARK                         _______ _______ _______ _____ _____    ______ ____
ROOT
ATOM      1  C   UNL     1       6.881  -3.389  23.610  0.00  0.00    +0.000 C 
ATOM      2  C   UNL     1       6.390  -2.609  24.744  0.00  0.00    +0.000 C 
ATOM      3  C   UNL     1       7.410  -2.060  25.719  0.00  0.00    +0.000 C 
ATOM      4  N   UNL     1       8.667  -1.786  25.075  0.00  0.00    +0.000 N 
ATOM      5  C   UNL     1       9.185  -0.521  24.924  0.00  0.00    +0.000 C 
ATOM      6  O   UNL     1      10.392  -0.406  25.160  0.00  0.00    +0.000 OA
ATOM      7  C   UNL     1       9.277  -2.897  24.372  0.00  0.00    +0.000 C 
ATOM      8  C   UNL     1       8.334  -3.381  23.279  0.00  0.00    +0.000 C 
ENDROOT
BRANCH   1  11
ATOM      9  N   UNL     1       6.277  -1.645  22.008  0.00  0.00    +0.000 N 
ATOM     10  H   UNL     1       5.356  -1.268  22.014  0.00  0.00    +0.000 HD
ATOM     11  C   UNL     1       6.149  -2.935  22.321  0.00  0.00    +0.000 C 
ATOM     12  O   UNL     1       5.261  -3.597  21.817  0.00  0.00    +0.000 OA
BRANCH   9  18
ATOM     13  C   UNL     1       5.575  -1.474  19.705  0.00  0.00    +0.000 A 
ATOM     14  C   UNL     1       5.467  -0.136  18.985  0.00  0.00    +0.000 A 
ATOM     15  C   UNL     1       6.467   0.977  18.943  0.00  0.00    +0.000 A 
ATOM     16  C   UNL     1       7.589   0.491  19.788  0.00  0.00    +0.000 A 
ATOM     17  C   UNL     1       7.962  -0.597  20.612  0.00  0.00    +0.000 A 
ATOM     18  C   UNL     1       6.662  -1.458  20.684  0.00  0.00    +0.000 A 
BRANCH  13  20
ATOM     19  H   UNL     1       5.139  -1.797  17.890  0.00  0.00    +0.000 HD
ATOM     20  O   UNL     1       5.478  -2.310  18.602  0.00  0.00    +0.000 OA
ENDBRANCH  13  20
ENDBRANCH   9  18
ENDBRANCH   1  11
BRANCH   5  21
ATOM     21  C   UNL     1       8.506   0.223  23.903  0.00  0.00    +0.000 C 
BRANCH  21  22
ATOM     22  C   UNL     1       7.557   1.449  24.348  0.00  0.00    +0.000 C 
ATOM     23  C   UNL     1       6.770   1.712  23.295  0.00  0.00    +0.000 A 
ATOM     24  C   UNL     1       5.426   1.970  24.125  0.00  0.00    +0.000 A 
ATOM     25  C   UNL     1       4.393   2.985  23.985  0.00  0.00    +0.000 A 
ATOM     26  C   UNL     1       4.853   3.792  22.757  0.00  0.00    +0.000 A 
ATOM     27  C   UNL     1       5.935   3.704  21.871  0.00  0.00    +0.000 A 
ATOM     28  C   UNL     1       7.018   3.107  22.643  0.00  0.00    +0.000 A 
ATOM     29  C   UNL     1       7.914   4.232  23.240  0.00  0.00    +0.000 C 
ATOM     30  N   UNL     1       8.635   3.735  24.191  0.00  0.00    +0.000 N 
ATOM     31  C   UNL     1      10.192   3.716  24.078  0.00  0.00    +0.000 C 
ATOM     32  O   UNL     1      10.279   2.748  23.232  0.00  0.00    +0.000 OA
ATOM     33  C   UNL     1       8.393   2.606  24.754  0.00  0.00    +0.000 C 
BRANCH  31  34
ATOM     34  C   UNL     1      10.492   5.060  23.549  0.00  0.00    +0.000 C 
ATOM     35 CL   UNL     1      12.239   5.352  23.322  0.00  0.00    +0.000 Cl
ENDBRANCH  31  34
ENDBRANCH  21  22
ENDBRANCH   5  21
TORSDOF 6
ENDMDL
MODEL 4
REMARK VINA RESULT:      -8.2      2.891      6.277
REMARK  Name = 
REMARK  6 active torsions:
REMARK  status: ('A' for Active; 'I' for Inactive)
REMARK    1  A    between atoms: O_2  and  C_3
REMARK    2  A    between atoms: C_12  and  N_13
REMARK    3  A    between atoms: C_15  and  C_17
REMARK    4  A    between atoms: C_26  and  C_28
REMARK    5  A    between atoms: C_28  and  C_31
REMARK    6  A    between atoms: C_47  and  C_49
REMARK                            x       y       z     vdW  Elec       q    Type
REMARK                         _______ _______ _______ _____ _____    ______ ____
ROOT
ATOM      1  C   UNL     1       9.881   1.261  22.492  0.00  0.00    +0.000 C 
ATOM      2  C   UNL     1      10.046  -0.157  22.178  0.00  0.00    +0.000 C 
ATOM      3  C   UNL     1      10.462  -1.086  23.299  0.00  0.00    +0.000 C 
ATOM      4  N   UNL     1       9.983  -0.625  24.576  0.00  0.00    +0.000 N 
ATOM      5  C   UNL     1       9.046  -1.297  25.325  0.00  0.00    +0.000 C 
ATOM      6  O   UNL     1       9.282  -1.372  26.535  0.00  0.00    +0.000 OA
ATOM      7  C   UNL     1      10.366   0.722  24.950  0.00  0.00    +0.000 C 
ATOM      8  C   UNL     1       9.833   1.704  23.915  0.00  0.00    +0.000 C 
ENDROOT
BRANCH   1  11
ATOM      9  N   UNL     1       8.245   1.219  20.678  0.00  0.00    +0.000 N 
ATOM     10  H   UNL     1       8.230   1.957  20.011  0.00  0.00    +0.000 HD
ATOM     11  C   UNL     1       8.573   1.780  21.842  0.00  0.00    +0.000 C 
ATOM     12  O   UNL     1       8.063   2.834  22.173  0.00  0.00    +0.000 OA
BRANCH   9  18
ATOM     13  C   UNL     1       6.084   1.359  19.610  0.00  0.00    +0.000 A 
ATOM     14  C   UNL     1       5.578   0.287  18.656  0.00  0.00    +0.000 A 
ATOM     15  C   UNL     1       5.580  -1.199  18.844  0.00  0.00    +0.000 A 
ATOM     16  C   UNL     1       6.215  -1.396  20.174  0.00  0.00    +0.000 A 
ATOM     17  C   UNL     1       6.829  -0.674  21.224  0.00  0.00    +0.000 A 
ATOM     18  C   UNL     1       6.926   0.777  20.657  0.00  0.00    +0.000 A 
BRANCH  13  20
ATOM     19  H   UNL     1       5.109   2.947  19.949  0.00  0.00    +0.000 HD
ATOM     20  O   UNL     1       4.893   2.043  19.804  0.00  0.00    +0.000 OA
ENDBRANCH  13  20
ENDBRANCH   9  18
ENDBRANCH   1  11
BRANCH   5  21
ATOM     21  C   UNL     1       7.724  -1.159  24.786  0.00  0.00    +0.000 C 
BRANCH  21  22
ATOM     22  C   UNL     1       6.594  -2.215  25.245  0.00  0.00    +0.000 C 
ATOM     23  C   UNL     1       7.138  -2.934  26.237  0.00  0.00    +0.000 A 
ATOM     24  C   UNL     1       5.833  -2.994  27.162  0.00  0.00    +0.000 A 
ATOM     25  C   UNL     1       5.249  -4.085  27.928  0.00  0.00    +0.000 A 
ATOM     26  C   UNL     1       6.236  -5.246  27.699  0.00  0.00    +0.000 A 
ATOM     27  C   UNL     1       7.439  -5.390  26.995  0.00  0.00    +0.000 A 
ATOM     28  C   UNL     1       7.356  -4.440  25.892  0.00  0.00    +0.000 A 
ATOM     29  C   UNL     1       6.811  -5.160  24.623  0.00  0.00    +0.000 C 
ATOM     30  N   UNL     1       6.406  -4.270  23.777  0.00  0.00    +0.000 N 
ATOM     31  C   UNL     1       7.088  -4.139  22.379  0.00  0.00    +0.000 C 
ATOM     32  O   UNL     1       8.166  -3.558  22.782  0.00  0.00    +0.000 OA
ATOM     33  C   UNL     1       6.183  -3.043  24.083  0.00  0.00    +0.000 C 
BRANCH  31  34
ATOM     34  C   UNL     1       7.235  -5.546  21.960  0.00  0.00    +0.000 C 
ATOM     35 CL   UNL     1       5.956  -6.080  20.833  0.00  0.00    +0.000 Cl
ENDBRANCH  31  34
ENDBRANCH  21  22
ENDBRANCH   5  21
TORSDOF 6
ENDMDL
MODEL 5
REMARK VINA RESULT:      -7.8      2.650      5.379
REMARK  Name = 
REMARK  6 active torsions:
REMARK  status: ('A' for Active; 'I' for Inactive)
REMARK    1  A    between atoms: O_2  and  C_3
REMARK    2  A    between atoms: C_12  and  N_13
REMARK    3  A    between atoms: C_15  and  C_17
REMARK    4  A    between atoms: C_26  and  C_28
REMARK    5  A    between atoms: C_28  and  C_31
REMARK    6  A    between atoms: C_47  and  C_49
REMARK                            x       y       z     vdW  Elec       q    Type
REMARK                         _______ _______ _______ _____ _____    ______ ____
ROOT
ATOM      1  C   UNL     1       7.376  -5.145  25.331  0.00  0.00    +0.000 C 
ATOM      2  C   UNL     1       8.362  -5.010  24.260  0.00  0.00    +0.000 C 
ATOM      3  C   UNL     1       7.862  -5.028  22.832  0.00  0.00    +0.000 C 
ATOM      4  N   UNL     1       6.528  -4.497  22.730  0.00  0.00    +0.000 N 
ATOM      5  C   UNL     1       6.222  -3.329  22.070  0.00  0.00    +0.000 C 
ATOM      6  O   UNL     1       5.215  -3.367  21.357  0.00  0.00    +0.000 OA
ATOM      7  C   UNL     1       5.524  -5.133  23.560  0.00  0.00    +0.000 C 
ATOM      8  C   UNL     1       5.925  -5.003  25.024  0.00  0.00    +0.000 C 
ENDROOT
BRANCH   1  11
ATOM      9  N   UNL     1       7.928  -2.866  26.017  0.00  0.00    +0.000 N 
ATOM     10  H   UNL     1       8.852  -2.652  26.319  0.00  0.00    +0.000 HD
ATOM     11  C   UNL     1       7.680  -4.106  26.440  0.00  0.00    +0.000 C 
ATOM     12  O   UNL     1       8.000  -4.439  27.565  0.00  0.00    +0.000 OA
BRANCH   9  18
ATOM     13  C   UNL     1       7.815  -0.613  26.877  0.00  0.00    +0.000 A 
ATOM     14  C   UNL     1       7.036   0.489  26.172  0.00  0.00    +0.000 A 
ATOM     15  C   UNL     1       5.638   0.439  25.636  0.00  0.00    +0.000 A 
ATOM     16  C   UNL     1       5.186  -0.947  25.929  0.00  0.00    +0.000 A 
ATOM     17  C   UNL     1       5.648  -2.171  26.467  0.00  0.00    +0.000 A 
ATOM     18  C   UNL     1       7.171  -1.914  26.693  0.00  0.00    +0.000 A 
BRANCH  13  20
ATOM     19  H   UNL     1       7.201   0.080  28.530  0.00  0.00    +0.000 HD
ATOM     20  O   UNL     1       8.030   0.029  28.088  0.00  0.00    +0.000 OA
ENDBRANCH  13  20
ENDBRANCH   9  18
ENDBRANCH   1  11
BRANCH   5  21
ATOM     21  C   UNL     1       6.621  -2.169  22.812  0.00  0.00    +0.000 C 
BRANCH  21  22
ATOM     22  C   UNL     1       8.071  -1.527  22.513  0.00  0.00    +0.000 C 
ATOM     23  C   UNL     1       8.144  -0.412  23.253  0.00  0.00    +0.000 A 
ATOM     24  C   UNL     1       9.669  -0.587  23.706  0.00  0.00    +0.000 A 
ATOM     25  C   UNL     1      10.756   0.375  23.807  0.00  0.00    +0.000 A 
ATOM     26  C   UNL     1      10.089   1.706  23.412  0.00  0.00    +0.000 A 
ATOM     27  C   UNL     1       8.791   2.085  23.048  0.00  0.00    +0.000 A 
ATOM     28  C   UNL     1       8.206   0.906  22.420  0.00  0.00    +0.000 A 
ATOM     29  C   UNL     1       8.400   0.987  20.877  0.00  0.00    +0.000 C 
ATOM     30  N   UNL     1       8.214  -0.188  20.368  0.00  0.00    +0.000 N 
ATOM     31  C   UNL     1       7.048  -0.439  19.362  0.00  0.00    +0.000 C 
ATOM     32  O   UNL     1       6.090  -0.439  20.225  0.00  0.00    +0.000 OA
ATOM     33  C   UNL     1       8.213  -1.272  21.057  0.00  0.00    +0.000 C 
BRANCH  31  34
ATOM     34  C   UNL     1       7.120   0.744  18.484  0.00  0.00    +0.000 C 
ATOM     35 CL   UNL     1       5.520   1.452  18.125  0.00  0.00    +0.000 Cl
ENDBRANCH  31  34
ENDBRANCH  21  22
ENDBRANCH   5  21
TORSDOF 6
ENDMDL
MODEL 6
REMARK VINA RESULT:      -7.7      2.243      3.760
REMARK  Name = 
REMARK  6 active torsions:
REMARK  status: ('A' for Active; 'I' for Inactive)
REMARK    1  A    between atoms: O_2  and  C_3
REMARK    2  A    between atoms: C_12  and  N_13
REMARK    3  A    between atoms: C_15  and  C_17
REMARK    4  A    between atoms: C_26  and  C_28
REMARK    5  A    between atoms: C_28  and  C_31
REMARK    6  A    between atoms: C_47  and  C_49
REMARK                            x       y       z     vdW  Elec       q    Type
REMARK                         _______ _______ _______ _____ _____    ______ ____
ROOT
ATOM      1  C   UNL     1       6.657  -1.438  26.218  0.00  0.00    +0.000 C 
ATOM      2  C   UNL     1       6.456   0.009  26.200  0.00  0.00    +0.000 C 
ATOM      3  C   UNL     1       7.671   0.895  26.381  0.00  0.00    +0.000 C 
ATOM      4  N   UNL     1       8.863   0.270  25.870  0.00  0.00    +0.000 N 
ATOM      5  C   UNL     1       9.564   0.743  24.785  0.00  0.00    +0.000 C 
ATOM      6  O   UNL     1      10.793   0.753  24.906  0.00  0.00    +0.000 OA
ATOM      7  C   UNL     1       9.181  -1.036  26.412  0.00  0.00    +0.000 C 
ATOM      8  C   UNL     1       8.036  -1.996  26.117  0.00  0.00    +0.000 C 
ENDROOT
BRANCH   1  11
ATOM      9  N   UNL     1       6.581  -2.596  24.068  0.00  0.00    +0.000 N 
ATOM     10  H   UNL     1       6.322  -2.096  23.248  0.00  0.00    +0.000 HD
ATOM     11  C   UNL     1       5.853  -2.081  25.059  0.00  0.00    +0.000 C 
ATOM     12  O   UNL     1       4.672  -1.846  24.887  0.00  0.00    +0.000 OA
BRANCH   9  18
ATOM     13  C   UNL     1       5.328  -4.029  22.582  0.00  0.00    +0.000 A 
ATOM     14  C   UNL     1       5.998  -4.855  21.492  0.00  0.00    +0.000 A 
ATOM     15  C   UNL     1       7.203  -5.737  21.606  0.00  0.00    +0.000 A 
ATOM     16  C   UNL     1       7.617  -5.606  23.027  0.00  0.00    +0.000 A 
ATOM     17  C   UNL     1       7.288  -4.913  24.216  0.00  0.00    +0.000 A 
ATOM     18  C   UNL     1       6.198  -3.896  23.752  0.00  0.00    +0.000 A 
BRANCH  13  20
ATOM     19  H   UNL     1       4.182  -5.481  22.171  0.00  0.00    +0.000 HD
ATOM     20  O   UNL     1       4.077  -4.628  22.556  0.00  0.00    +0.000 OA
ENDBRANCH  13  20
ENDBRANCH   9  18
ENDBRANCH   1  11
BRANCH   5  21
ATOM     21  C   UNL     1       8.895   0.467  23.547  0.00  0.00    +0.000 C 
BRANCH  21  22
ATOM     22  C   UNL     1       8.532   1.704  22.577  0.00  0.00    +0.000 C 
ATOM     23  C   UNL     1       7.529   2.363  23.174  0.00  0.00    +0.000 A 
ATOM     24  C   UNL     1       8.049   3.839  22.839  0.00  0.00    +0.000 A 
ATOM     25  C   UNL     1       7.340   5.027  22.390  0.00  0.00    +0.000 A 
ATOM     26  C   UNL     1       5.871   4.566  22.346  0.00  0.00    +0.000 A 
ATOM     27  C   UNL     1       5.205   3.371  22.648  0.00  0.00    +0.000 A 
ATOM     28  C   UNL     1       6.178   2.314  22.397  0.00  0.00    +0.000 A 
ATOM     29  C   UNL     1       5.992   1.768  20.950  0.00  0.00    +0.000 C 
ATOM     30  N   UNL     1       7.052   1.109  20.610  0.00  0.00    +0.000 N 
ATOM     31  C   UNL     1       6.967  -0.417  20.294  0.00  0.00    +0.000 C 
ATOM     32  O   UNL     1       6.857  -0.827  21.512  0.00  0.00    +0.000 OA
ATOM     33  C   UNL     1       8.174   1.193  21.230  0.00  0.00    +0.000 C 
BRANCH  31  34
ATOM     34  C   UNL     1       5.745  -0.509  19.473  0.00  0.00    +0.000 C 
ATOM     35 CL   UNL     1       5.917   0.259  17.869  0.00  0.00    +0.000 Cl
ENDBRANCH  31  34
ENDBRANCH  21  22
ENDBRANCH   5  21
TORSDOF 6
ENDMDL
MODEL 7
REMARK VINA RESULT:      -7.4      2.958      5.492
REMARK  Name = 
REMARK  6 active torsions:
REMARK  status: ('A' for Active; 'I' for Inactive)
REMARK    1  A    between atoms: O_2  and  C_3
REMARK    2  A    between atoms: C_12  and  N_13
REMARK    3  A    between atoms: C_15  and  C_17
REMARK    4  A    between atoms: C_26  and  C_28
REMARK    5  A    between atoms: C_28  and  C_31
REMARK    6  A    between atoms: C_47  and  C_49
REMARK                            x       y       z     vdW  Elec       q    Type
REMARK                         _______ _______ _______ _____ _____    ______ ____
ROOT
ATOM      1  C   UNL     1       5.637  -3.597  26.579  0.00  0.00    +0.000 C 
ATOM      2  C   UNL     1       7.087  -3.418  26.632  0.00  0.00    +0.000 C 
ATOM      3  C   UNL     1       7.947  -4.361  25.819  0.00  0.00    +0.000 C 
ATOM      4  N   UNL     1       7.265  -4.815  24.635  0.00  0.00    +0.000 N 
ATOM      5  C   UNL     1       7.660  -4.492  23.358  0.00  0.00    +0.000 C 
ATOM      6  O   UNL     1       7.643  -5.420  22.543  0.00  0.00    +0.000 OA
ATOM      7  C   UNL     1       5.981  -5.454  24.847  0.00  0.00    +0.000 C 
ATOM      8  C   UNL     1       5.038  -4.476  25.535  0.00  0.00    +0.000 C 
ENDROOT
BRANCH   1  11
ATOM      9  N   UNL     1       5.177  -1.340  27.394  0.00  0.00    +0.000 N 
ATOM     10  H   UNL     1       4.285  -1.128  27.779  0.00  0.00    +0.000 HD
ATOM     11  C   UNL     1       4.956  -2.215  26.412  0.00  0.00    +0.000 C 
ATOM     12  O   UNL     1       4.032  -2.041  25.641  0.00  0.00    +0.000 OA
BRANCH   9  18
ATOM     13  C   UNL     1       4.527   0.879  26.700  0.00  0.00    +0.000 A 
ATOM     14  C   UNL     1       4.716   2.098  27.592  0.00  0.00    +0.000 A 
ATOM     15  C   UNL     1       5.938   2.508  28.354  0.00  0.00    +0.000 A 
ATOM     16  C   UNL     1       6.926   1.436  28.063  0.00  0.00    +0.000 A 
ATOM     17  C   UNL     1       7.050   0.202  27.382  0.00  0.00    +0.000 A 
ATOM     18  C   UNL     1       5.592  -0.102  26.915  0.00  0.00    +0.000 A 
BRANCH  13  20
ATOM     19  H   UNL     1       3.354   1.830  25.556  0.00  0.00    +0.000 HD
ATOM     20  O   UNL     1       4.246   1.534  25.510  0.00  0.00    +0.000 OA
ENDBRANCH  13  20
ENDBRANCH   9  18
ENDBRANCH   1  11
BRANCH   5  21
ATOM     21  C   UNL     1       7.336  -3.137  23.018  0.00  0.00    +0.000 C 
BRANCH  21  22
ATOM     22  C   UNL     1       8.521  -2.043  23.012  0.00  0.00    +0.000 C 
ATOM     23  C   UNL     1       8.183  -1.123  23.927  0.00  0.00    +0.000 A 
ATOM     24  C   UNL     1       9.649  -0.914  24.534  0.00  0.00    +0.000 A 
ATOM     25  C   UNL     1      10.362   0.292  24.925  0.00  0.00    +0.000 A 
ATOM     26  C   UNL     1       9.333   1.410  24.671  0.00  0.00    +0.000 A 
ATOM     27  C   UNL     1       8.010   1.443  24.214  0.00  0.00    +0.000 A 
ATOM     28  C   UNL     1       7.877   0.287  23.334  0.00  0.00    +0.000 A 
ATOM     29  C   UNL     1       8.139   0.721  21.861  0.00  0.00    +0.000 C 
ATOM     30  N   UNL     1       8.374  -0.333  21.149  0.00  0.00    +0.000 N 
ATOM     31  C   UNL     1       7.421  -0.725  19.977  0.00  0.00    +0.000 C 
ATOM     32  O   UNL     1       6.457  -1.181  20.701  0.00  0.00    +0.000 OA
ATOM     33  C   UNL     1       8.672  -1.479  21.647  0.00  0.00    +0.000 C 
BRANCH  31  34
ATOM     34  C   UNL     1       7.171   0.572  19.319  0.00  0.00    +0.000 C 
ATOM     35 CL   UNL     1       5.694   0.577  18.314  0.00  0.00    +0.000 Cl
ENDBRANCH  31  34
ENDBRANCH  21  22
ENDBRANCH   5  21
TORSDOF 6
ENDMDL
MODEL 8
REMARK VINA RESULT:      -7.2      2.555      4.475
REMARK  Name = 
REMARK  6 active torsions:
REMARK  status: ('A' for Active; 'I' for Inactive)
REMARK    1  A    between atoms: O_2  and  C_3
REMARK    2  A    between atoms: C_12  and  N_13
REMARK    3  A    between atoms: C_15  and  C_17
REMARK    4  A    between atoms: C_26  and  C_28
REMARK    5  A    between atoms: C_28  and  C_31
REMARK    6  A    between atoms: C_47  and  C_49
REMARK                            x       y       z     vdW  Elec       q    Type
REMARK                         _______ _______ _______ _____ _____    ______ ____
ROOT
ATOM      1  C   UNL     1       6.468  -3.511  25.119  0.00  0.00    +0.000 C 
ATOM      2  C   UNL     1       7.587  -3.402  26.054  0.00  0.00    +0.000 C 
ATOM      3  C   UNL     1       8.984  -3.629  25.516  0.00  0.00    +0.000 C 
ATOM      4  N   UNL     1       9.088  -3.245  24.133  0.00  0.00    +0.000 N 
ATOM      5  C   UNL     1       9.858  -2.193  23.691  0.00  0.00    +0.000 C 
ATOM      6  O   UNL     1      10.521  -2.408  22.672  0.00  0.00    +0.000 OA
ATOM      7  C   UNL     1       8.154  -3.877  23.223  0.00  0.00    +0.000 C 
ATOM      8  C   UNL     1       6.730  -3.546  23.652  0.00  0.00    +0.000 C 
ENDROOT
BRANCH   1  11
ATOM      9  N   UNL     1       5.575  -1.735  26.540  0.00  0.00    +0.000 N 
ATOM     10  H   UNL     1       4.683  -1.847  26.965  0.00  0.00    +0.000 HD
ATOM     11  C   UNL     1       5.493  -2.329  25.349  0.00  0.00    +0.000 C 
ATOM     12  O   UNL     1       4.508  -2.162  24.654  0.00  0.00    +0.000 OA
BRANCH   9  18
ATOM     13  C   UNL     1       4.459   0.396  26.739  0.00  0.00    +0.000 A 
ATOM     14  C   UNL     1       4.662   1.311  27.938  0.00  0.00    +0.000 A 
ATOM     15  C   UNL     1       5.950   1.732  28.577  0.00  0.00    +0.000 A 
ATOM     16  C   UNL     1       6.994   1.030  27.785  0.00  0.00    +0.000 A 
ATOM     17  C   UNL     1       7.144   0.107  26.724  0.00  0.00    +0.000 A 
ATOM     18  C   UNL     1       5.680  -0.352  26.435  0.00  0.00    +0.000 A 
BRANCH  13  20
ATOM     19  H   UNL     1       3.672   0.857  25.078  0.00  0.00    +0.000 HD
ATOM     20  O   UNL     1       3.819   1.296  25.898  0.00  0.00    +0.000 OA
ENDBRANCH  13  20
ENDBRANCH   9  18
ENDBRANCH   1  11
BRANCH   5  21
ATOM     21  C   UNL     1       9.264  -0.924  23.993  0.00  0.00    +0.000 C 
BRANCH  21  22
ATOM     22  C   UNL     1       9.819   0.385  23.231  0.00  0.00    +0.000 C 
ATOM     23  C   UNL     1       9.467   1.434  23.988  0.00  0.00    +0.000 A 
ATOM     24  C   UNL     1      10.830   2.255  23.816  0.00  0.00    +0.000 A 
ATOM     25  C   UNL     1      11.074   3.671  23.587  0.00  0.00    +0.000 A 
ATOM     26  C   UNL     1       9.660   4.280  23.597  0.00  0.00    +0.000 A 
ATOM     27  C   UNL     1       8.370   3.768  23.785  0.00  0.00    +0.000 A 
ATOM     28  C   UNL     1       8.430   2.388  23.318  0.00  0.00    +0.000 A 
ATOM     29  C   UNL     1       7.976   2.321  21.830  0.00  0.00    +0.000 C 
ATOM     30  N   UNL     1       8.363   1.196  21.323  0.00  0.00    +0.000 N 
ATOM     31  C   UNL     1       7.318   0.156  20.812  0.00  0.00    +0.000 C 
ATOM     32  O   UNL     1       6.933  -0.265  21.967  0.00  0.00    +0.000 OA
ATOM     33  C   UNL     1       9.253   0.440  21.859  0.00  0.00    +0.000 C 
BRANCH  31  34
ATOM     34  C   UNL     1       6.354   1.002  20.083  0.00  0.00    +0.000 C 
ATOM     35 CL   UNL     1       6.321   0.678  18.327  0.00  0.00    +0.000 Cl
ENDBRANCH  31  34
ENDBRANCH  21  22
ENDBRANCH   5  21
TORSDOF 6
ENDMDL
MODEL 9
REMARK VINA RESULT:      -7.1      2.951      6.578
REMARK  Name = 
REMARK  6 active torsions:
REMARK  status: ('A' for Active; 'I' for Inactive)
REMARK    1  A    between atoms: O_2  and  C_3
REMARK    2  A    between atoms: C_12  and  N_13
REMARK    3  A    between atoms: C_15  and  C_17
REMARK    4  A    between atoms: C_26  and  C_28
REMARK    5  A    between atoms: C_28  and  C_31
REMARK    6  A    between atoms: C_47  and  C_49
REMARK                            x       y       z     vdW  Elec       q    Type
REMARK                         _______ _______ _______ _____ _____    ______ ____
ROOT
ATOM      1  C   UNL     1       9.473   0.976  22.159  0.00  0.00    +0.000 C 
ATOM      2  C   UNL     1       9.769  -0.455  22.138  0.00  0.00    +0.000 C 
ATOM      3  C   UNL     1      10.241  -1.099  23.425  0.00  0.00    +0.000 C 
ATOM      4  N   UNL     1       9.697  -0.435  24.581  0.00  0.00    +0.000 N 
ATOM      5  C   UNL     1       8.806  -1.025  25.447  0.00  0.00    +0.000 C 
ATOM      6  O   UNL     1       9.023  -0.833  26.648  0.00  0.00    +0.000 OA
ATOM      7  C   UNL     1       9.952   0.988  24.676  0.00  0.00    +0.000 C 
ATOM      8  C   UNL     1       9.357   1.690  23.462  0.00  0.00    +0.000 C 
ENDROOT
BRANCH   1  11
ATOM      9  N   UNL     1       7.098   1.550  22.185  0.00  0.00    +0.000 N 
ATOM     10  H   UNL     1       6.419   0.840  22.033  0.00  0.00    +0.000 HD
ATOM     11  C   UNL     1       8.139   1.234  21.413  0.00  0.00    +0.000 C 
ATOM     12  O   UNL     1       7.957   0.859  20.271  0.00  0.00    +0.000 OA
BRANCH   9  18
ATOM     13  C   UNL     1       4.975   2.617  21.757  0.00  0.00    +0.000 A 
ATOM     14  C   UNL     1       4.386   3.660  22.696  0.00  0.00    +0.000 A 
ATOM     15  C   UNL     1       5.061   4.856  23.295  0.00  0.00    +0.000 A 
ATOM     16  C   UNL     1       6.454   4.781  22.781  0.00  0.00    +0.000 A 
ATOM     17  C   UNL     1       7.304   3.961  22.003  0.00  0.00    +0.000 A 
ATOM     18  C   UNL     1       6.437   2.690  21.739  0.00  0.00    +0.000 A 
BRANCH  13  20
ATOM     19  H   UNL     1       3.353   2.308  20.828  0.00  0.00    +0.000 HD
ATOM     20  O   UNL     1       4.132   2.814  20.673  0.00  0.00    +0.000 OA
ENDBRANCH  13  20
ENDBRANCH   9  18
ENDBRANCH   1  11
BRANCH   5  21
ATOM     21  C   UNL     1       7.489  -1.118  24.888  0.00  0.00    +0.000 C 
BRANCH  21  22
ATOM     22  C   UNL     1       6.536  -2.329  25.366  0.00  0.00    +0.000 C 
ATOM     23  C   UNL     1       7.249  -3.034  26.256  0.00  0.00    +0.000 A 
ATOM     24  C   UNL     1       6.050  -3.307  27.282  0.00  0.00    +0.000 A 
ATOM     25  C   UNL     1       5.670  -4.504  28.015  0.00  0.00    +0.000 A 
ATOM     26  C   UNL     1       6.759  -5.520  27.624  0.00  0.00    +0.000 A 
ATOM     27  C   UNL     1       7.900  -5.476  26.812  0.00  0.00    +0.000 A 
ATOM     28  C   UNL     1       7.607  -4.479  25.789  0.00  0.00    +0.000 A 
ATOM     29  C   UNL     1       7.033  -5.184  24.524  0.00  0.00    +0.000 C 
ATOM     30  N   UNL     1       6.452  -4.301  23.779  0.00  0.00    +0.000 N 
ATOM     31  C   UNL     1       6.983  -4.005  22.341  0.00  0.00    +0.000 C 
ATOM     32  O   UNL     1       8.019  -3.323  22.691  0.00  0.00    +0.000 OA
ATOM     33  C   UNL     1       6.118  -3.130  24.188  0.00  0.00    +0.000 C 
BRANCH  31  34
ATOM     34  C   UNL     1       7.252  -5.356  21.814  0.00  0.00    +0.000 C 
ATOM     35 CL   UNL     1       5.874  -6.045  20.910  0.00  0.00    +0.000 Cl
ENDBRANCH  31  34
ENDBRANCH  21  22
ENDBRANCH   5  21
TORSDOF 6
ENDMDL
