MODEL 1
REMARK VINA RESULT:      -8.6      0.000      0.000
REMARK  Name = 
REMARK  4 active torsions:
REMARK  status: ('A' for Active; 'I' for Inactive)
REMARK    1  A    between atoms: C_7  and  C_8
REMARK    2  A    between atoms: C_24  and  C_26
REMARK    3  A    between atoms: C_26  and  C_29
REMARK    4  A    between atoms: C_29  and  C_32
REMARK                            x       y       z     vdW  Elec       q    Type
REMARK                         _______ _______ _______ _____ _____    ______ ____
ROOT
ATOM      1  C   UNL     1       8.372   1.307  21.327  0.00  0.00    +0.000 C 
ATOM      2  C   UNL     1       7.794   2.153  22.353  0.00  0.00    +0.000 A 
ATOM      3  C   UNL     1       9.032   2.976  22.738  0.00  0.00    +0.000 A 
ATOM      4  C   UNL     1       9.416   3.519  24.054  0.00  0.00    +0.000 A 
ATOM      5  C   UNL     1       8.459   2.774  25.012  0.00  0.00    +0.000 A 
ATOM      6  C   UNL     1       7.371   1.937  24.836  0.00  0.00    +0.000 A 
ATOM      7  C   UNL     1       7.795   1.029  23.572  0.00  0.00    +0.000 A 
ATOM      8  C   UNL     1       8.304  -0.152  23.938  0.00  0.00    +0.000 C 
ATOM      9  N   UNL     1       8.894  -0.603  22.776  0.00  0.00    +0.000 N 
ATOM     10  C   UNL     1       9.456  -1.755  22.582  0.00  0.00    +0.000 C 
ATOM     11  O   UNL     1      10.749  -1.867  22.537  0.00  0.00    +0.000 OA
ATOM     12  C   UNL     1       9.355   0.314  21.890  0.00  0.00    +0.000 C 
ENDROOT
BRANCH   1  16
ATOM     13  C   UNL     1       5.690   0.899  18.049  0.00  0.00    +0.000 A 
ATOM     14  C   UNL     1       5.304   1.566  19.345  0.00  0.00    +0.000 A 
ATOM     15  C   UNL     1       6.016   1.675  20.576  0.00  0.00    +0.000 A 
ATOM     16  C   UNL     1       7.441   0.905  20.434  0.00  0.00    +0.000 A 
ATOM     17  C   UNL     1       7.681  -0.179  19.479  0.00  0.00    +0.000 A 
ATOM     18  C   UNL     1       6.893   0.002  18.336  0.00  0.00    +0.000 A 
ENDBRANCH   1  16
BRANCH  10  19
ATOM     19  C   UNL     1       8.942  -2.830  23.529  0.00  0.00    +0.000 C 
BRANCH  19  20
ATOM     20  C   UNL     1       7.683  -3.528  22.912  0.00  0.00    +0.000 C 
BRANCH  20  21
ATOM     21  C   UNL     1       7.817  -4.945  23.563  0.00  0.00    +0.000 A 
ATOM     22  C   UNL     1       6.386  -5.441  23.579  0.00  0.00    +0.000 A 
ATOM     23  C   UNL     1       5.490  -5.711  24.728  0.00  0.00    +0.000 A 
ATOM     24  C   UNL     1       6.392  -5.551  25.943  0.00  0.00    +0.000 A 
ATOM     25  C   UNL     1       7.704  -5.166  26.272  0.00  0.00    +0.000 A 
ATOM     26 CL   UNL     1       7.529  -3.427  26.632  0.00  0.00    +0.000 Cl
ATOM     27  C   UNL     1       8.436  -5.081  24.891  0.00  0.00    +0.000 A 
ENDBRANCH  20  21
ENDBRANCH  19  20
ENDBRANCH  10  19
TORSDOF 4
ENDMDL
MODEL 2
REMARK VINA RESULT:      -8.3      1.369      1.854
REMARK  Name = 
REMARK  4 active torsions:
REMARK  status: ('A' for Active; 'I' for Inactive)
REMARK    1  A    between atoms: C_7  and  C_8
REMARK    2  A    between atoms: C_24  and  C_26
REMARK    3  A    between atoms: C_26  and  C_29
REMARK    4  A    between atoms: C_29  and  C_32
REMARK                            x       y       z     vdW  Elec       q    Type
REMARK                         _______ _______ _______ _____ _____    ______ ____
ROOT
ATOM      1  C   UNL     1       8.891   0.930  21.215  0.00  0.00    +0.000 C 
ATOM      2  C   UNL     1       8.679   2.074  22.080  0.00  0.00    +0.000 A 
ATOM      3  C   UNL     1      10.128   2.559  22.229  0.00  0.00    +0.000 A 
ATOM      4  C   UNL     1      10.784   3.191  23.388  0.00  0.00    +0.000 A 
ATOM      5  C   UNL     1       9.767   2.935  24.523  0.00  0.00    +0.000 A 
ATOM      6  C   UNL     1       8.479   2.430  24.575  0.00  0.00    +0.000 A 
ATOM      7  C   UNL     1       8.503   1.230  23.497  0.00  0.00    +0.000 A 
ATOM      8  C   UNL     1       8.705   0.037  24.064  0.00  0.00    +0.000 C 
ATOM      9  N   UNL     1       9.023  -0.762  22.986  0.00  0.00    +0.000 N 
ATOM     10  C   UNL     1       9.225  -2.043  22.996  0.00  0.00    +0.000 C 
ATOM     11  O   UNL     1      10.425  -2.530  22.908  0.00  0.00    +0.000 OA
ATOM     12  C   UNL     1       9.620  -0.189  21.913  0.00  0.00    +0.000 C 
ENDROOT
BRANCH   1  16
ATOM     13  C   UNL     1       5.699   0.945  18.401  0.00  0.00    +0.000 A 
ATOM     14  C   UNL     1       5.588   1.571  19.769  0.00  0.00    +0.000 A 
ATOM     15  C   UNL     1       6.493   1.548  20.871  0.00  0.00    +0.000 A 
ATOM     16  C   UNL     1       7.797   0.663  20.469  0.00  0.00    +0.000 A 
ATOM     17  C   UNL     1       7.777  -0.384  19.446  0.00  0.00    +0.000 A 
ATOM     18  C   UNL     1       6.839  -0.071  18.454  0.00  0.00    +0.000 A 
ENDBRANCH   1  16
BRANCH  10  19
ATOM     19  C   UNL     1       8.541  -2.739  24.164  0.00  0.00    +0.000 C 
BRANCH  19  20
ATOM     20  C   UNL     1       7.060  -3.087  23.787  0.00  0.00    +0.000 C 
BRANCH  20  21
ATOM     21  C   UNL     1       7.120  -4.648  23.877  0.00  0.00    +0.000 A 
ATOM     22  C   UNL     1       7.410  -5.053  22.446  0.00  0.00    +0.000 A 
ATOM     23  C   UNL     1       6.561  -5.788  21.480  0.00  0.00    +0.000 A 
ATOM     24  C   UNL     1       5.359  -6.225  22.305  0.00  0.00    +0.000 A 
ATOM     25  C   UNL     1       4.820  -6.072  23.594  0.00  0.00    +0.000 A 
ATOM     26 CL   UNL     1       3.718  -4.682  23.401  0.00  0.00    +0.000 Cl
ATOM     27  C   UNL     1       5.968  -5.391  24.411  0.00  0.00    +0.000 A 
ENDBRANCH  20  21
ENDBRANCH  19  20
ENDBRANCH  10  19
TORSDOF 4
ENDMDL
MODEL 3
REMARK VINA RESULT:      -8.0      1.814      2.577
REMARK  Name = 
REMARK  4 active torsions:
REMARK  status: ('A' for Active; 'I' for Inactive)
REMARK    1  A    between atoms: C_7  and  C_8
REMARK    2  A    between atoms: C_24  and  C_26
REMARK    3  A    between atoms: C_26  and  C_29
REMARK    4  A    between atoms: C_29  and  C_32
REMARK                            x       y       z     vdW  Elec       q    Type
REMARK                         _______ _______ _______ _____ _____    ______ ____
ROOT
ATOM      1  C   UNL     1       8.404   0.134  21.266  0.00  0.00    +0.000 C 
ATOM      2  C   UNL     1       8.743   1.009  22.373  0.00  0.00    +0.000 A 
ATOM      3  C   UNL     1      10.159   0.501  22.680  0.00  0.00    +0.000 A 
ATOM      4  C   UNL     1      10.853   0.406  23.977  0.00  0.00    +0.000 A 
ATOM      5  C   UNL     1       9.701   0.613  24.985  0.00  0.00    +0.000 A 
ATOM      6  C   UNL     1       8.369   0.974  24.873  0.00  0.00    +0.000 A 
ATOM      7  C   UNL     1       7.882   0.206  23.540  0.00  0.00    +0.000 A 
ATOM      8  C   UNL     1       7.267  -0.950  23.812  0.00  0.00    +0.000 C 
ATOM      9  N   UNL     1       7.245  -1.579  22.585  0.00  0.00    +0.000 N 
ATOM     10  C   UNL     1       6.673  -2.706  22.296  0.00  0.00    +0.000 C 
ATOM     11  O   UNL     1       7.373  -3.787  22.132  0.00  0.00    +0.000 OA
ATOM     12  C   UNL     1       8.232  -1.298  21.700  0.00  0.00    +0.000 C 
ENDROOT
BRANCH   1  16
ATOM     13  C   UNL     1       5.031   1.090  18.854  0.00  0.00    +0.000 A 
ATOM     14  C   UNL     1       6.249   0.380  18.316  0.00  0.00    +0.000 A 
ATOM     15  C   UNL     1       7.503   0.100  18.934  0.00  0.00    +0.000 A 
ATOM     16  C   UNL     1       7.497   0.706  20.443  0.00  0.00    +0.000 A 
ATOM     17  C   UNL     1       6.646   1.821  20.862  0.00  0.00    +0.000 A 
ATOM     18  C   UNL     1       5.452   1.817  20.130  0.00  0.00    +0.000 A 
ENDBRANCH   1  16
BRANCH  10  19
ATOM     19  C   UNL     1       5.530  -3.047  23.240  0.00  0.00    +0.000 C 
BRANCH  19  20
ATOM     20  C   UNL     1       5.845  -4.379  24.003  0.00  0.00    +0.000 C 
BRANCH  20  21
ATOM     21  C   UNL     1       5.995  -3.824  25.459  0.00  0.00    +0.000 A 
ATOM     22  C   UNL     1       7.441  -4.134  25.786  0.00  0.00    +0.000 A 
ATOM     23  C   UNL     1       8.006  -5.076  26.780  0.00  0.00    +0.000 A 
ATOM     24  C   UNL     1       6.792  -5.560  27.560  0.00  0.00    +0.000 A 
ATOM     25  C   UNL     1       5.390  -5.449  27.555  0.00  0.00    +0.000 A 
ATOM     26 CL   UNL     1       4.883  -6.868  26.600  0.00  0.00    +0.000 Cl
ATOM     27  C   UNL     1       5.099  -4.312  26.519  0.00  0.00    +0.000 A 
ENDBRANCH  20  21
ENDBRANCH  19  20
ENDBRANCH  10  19
TORSDOF 4
ENDMDL
MODEL 4
REMARK VINA RESULT:      -7.9      1.554      2.316
REMARK  Name = 
REMARK  4 active torsions:
REMARK  status: ('A' for Active; 'I' for Inactive)
REMARK    1  A    between atoms: C_7  and  C_8
REMARK    2  A    between atoms: C_24  and  C_26
REMARK    3  A    between atoms: C_26  and  C_29
REMARK    4  A    between atoms: C_29  and  C_32
REMARK                            x       y       z     vdW  Elec       q    Type
REMARK                         _______ _______ _______ _____ _____    ______ ____
ROOT
ATOM      1  C   UNL     1       8.584   2.392  22.315  0.00  0.00    +0.000 C 
ATOM      2  C   UNL     1       7.651   3.368  22.845  0.00  0.00    +0.000 A 
ATOM      3  C   UNL     1       8.618   4.528  23.122  0.00  0.00    +0.000 A 
ATOM      4  C   UNL     1       8.581   5.534  24.198  0.00  0.00    +0.000 A 
ATOM      5  C   UNL     1       7.541   4.938  25.172  0.00  0.00    +0.000 A 
ATOM      6  C   UNL     1       6.667   3.866  25.120  0.00  0.00    +0.000 A 
ATOM      7  C   UNL     1       7.521   2.722  24.367  0.00  0.00    +0.000 A 
ATOM      8  C   UNL     1       8.094   1.867  25.219  0.00  0.00    +0.000 C 
ATOM      9  N   UNL     1       9.013   1.215  24.423  0.00  0.00    +0.000 N 
ATOM     10  C   UNL     1       9.771   0.220  24.763  0.00  0.00    +0.000 C 
ATOM     11  O   UNL     1      11.037   0.394  24.993  0.00  0.00    +0.000 OA
ATOM     12  C   UNL     1       9.535   1.880  23.364  0.00  0.00    +0.000 C 
ENDROOT
BRANCH   1  16
ATOM     13  C   UNL     1       6.857   0.378  18.987  0.00  0.00    +0.000 A 
ATOM     14  C   UNL     1       6.068   1.292  19.892  0.00  0.00    +0.000 A 
ATOM     15  C   UNL     1       6.441   1.937  21.108  0.00  0.00    +0.000 A 
ATOM     16  C   UNL     1       7.972   1.527  21.476  0.00  0.00    +0.000 A 
ATOM     17  C   UNL     1       8.613   0.297  21.008  0.00  0.00    +0.000 A 
ATOM     18  C   UNL     1       8.096  -0.072  19.761  0.00  0.00    +0.000 A 
ENDBRANCH   1  16
BRANCH  10  19
ATOM     19  C   UNL     1       9.207  -0.583  25.926  0.00  0.00    +0.000 C 
BRANCH  19  20
ATOM     20  C   UNL     1       8.089  -1.554  25.413  0.00  0.00    +0.000 C 
BRANCH  20  21
ATOM     21  C   UNL     1       8.945  -2.486  24.491  0.00  0.00    +0.000 A 
ATOM     22  C   UNL     1       8.117  -2.551  23.224  0.00  0.00    +0.000 A 
ATOM     23  C   UNL     1       7.399  -3.698  22.621  0.00  0.00    +0.000 A 
ATOM     24  C   UNL     1       7.823  -4.886  23.473  0.00  0.00    +0.000 A 
ATOM     25  C   UNL     1       8.571  -5.176  24.628  0.00  0.00    +0.000 A 
ATOM     26 CL   UNL     1       7.334  -5.166  25.914  0.00  0.00    +0.000 Cl
ATOM     27  C   UNL     1       9.307  -3.834  24.955  0.00  0.00    +0.000 A 
ENDBRANCH  20  21
ENDBRANCH  19  20
ENDBRANCH  10  19
TORSDOF 4
ENDMDL
MODEL 5
REMARK VINA RESULT:      -7.7      2.709      6.373
REMARK  Name = 
REMARK  4 active torsions:
REMARK  status: ('A' for Active; 'I' for Inactive)
REMARK    1  A    between atoms: C_7  and  C_8
REMARK    2  A    between atoms: C_24  and  C_26
REMARK    3  A    between atoms: C_26  and  C_29
REMARK    4  A    between atoms: C_29  and  C_32
REMARK                            x       y       z     vdW  Elec       q    Type
REMARK                         _______ _______ _______ _____ _____    ______ ____
ROOT
ATOM      1  C   UNL     1       6.614  -2.861  23.273  0.00  0.00    +0.000 C 
ATOM      2  C   UNL     1       7.218  -4.025  23.893  0.00  0.00    +0.000 A 
ATOM      3  C   UNL     1       5.955  -4.846  24.189  0.00  0.00    +0.000 A 
ATOM      4  C   UNL     1       5.677  -5.753  25.317  0.00  0.00    +0.000 A 
ATOM      5  C   UNL     1       6.817  -5.414  26.302  0.00  0.00    +0.000 A 
ATOM      6  C   UNL     1       7.960  -4.637  26.231  0.00  0.00    +0.000 A 
ATOM      7  C   UNL     1       7.486  -3.348  25.383  0.00  0.00    +0.000 A 
ATOM      8  C   UNL     1       7.156  -2.315  26.164  0.00  0.00    +0.000 C 
ATOM      9  N   UNL     1       6.481  -1.482  25.297  0.00  0.00    +0.000 N 
ATOM     10  C   UNL     1       6.027  -0.294  25.551  0.00  0.00    +0.000 C 
ATOM     11  O   UNL     1       4.758  -0.090  25.736  0.00  0.00    +0.000 OA
ATOM     12  C   UNL     1       5.820  -2.038  24.253  0.00  0.00    +0.000 C 
ENDROOT
BRANCH   1  16
ATOM     13  C   UNL     1       9.096  -0.146  21.133  0.00  0.00    +0.000 A 
ATOM     14  C   UNL     1       7.659  -0.411  20.760  0.00  0.00    +0.000 A 
ATOM     15  C   UNL     1       6.732  -1.366  21.272  0.00  0.00    +0.000 A 
ATOM     16  C   UNL     1       7.468  -2.257  22.417  0.00  0.00    +0.000 A 
ATOM     17  C   UNL     1       8.917  -2.456  22.478  0.00  0.00    +0.000 A 
ATOM     18  C   UNL     1       9.579  -1.334  21.965  0.00  0.00    +0.000 A 
ENDBRANCH   1  16
BRANCH  10  19
ATOM     19  C   UNL     1       6.765   0.389  26.693  0.00  0.00    +0.000 C 
BRANCH  19  20
ATOM     20  C   UNL     1       7.443   1.705  26.182  0.00  0.00    +0.000 C 
BRANCH  20  21
ATOM     21  C   UNL     1       7.916   1.231  24.767  0.00  0.00    +0.000 A 
ATOM     22  C   UNL     1       9.250   0.577  25.065  0.00  0.00    +0.000 A 
ATOM     23  C   UNL     1      10.616   0.992  24.669  0.00  0.00    +0.000 A 
ATOM     24  C   UNL     1      10.386   2.157  23.717  0.00  0.00    +0.000 A 
ATOM     25  C   UNL     1       9.339   2.948  23.210  0.00  0.00    +0.000 A 
ATOM     26 CL   UNL     1       9.316   4.338  24.329  0.00  0.00    +0.000 Cl
ATOM     27  C   UNL     1       8.040   2.209  23.675  0.00  0.00    +0.000 A 
ENDBRANCH  20  21
ENDBRANCH  19  20
ENDBRANCH  10  19
TORSDOF 4
ENDMDL
MODEL 6
REMARK VINA RESULT:      -7.7      1.600      2.028
REMARK  Name = 
REMARK  4 active torsions:
REMARK  status: ('A' for Active; 'I' for Inactive)
REMARK    1  A    between atoms: C_7  and  C_8
REMARK    2  A    between atoms: C_24  and  C_26
REMARK    3  A    between atoms: C_26  and  C_29
REMARK    4  A    between atoms: C_29  and  C_32
REMARK                            x       y       z     vdW  Elec       q    Type
REMARK                         _______ _______ _______ _____ _____    ______ ____
ROOT
ATOM      1  C   UNL     1       8.752   0.122  21.432  0.00  0.00    +0.000 C 
ATOM      2  C   UNL     1       8.576   1.387  22.120  0.00  0.00    +0.000 A 
ATOM      3  C   UNL     1      10.015   1.918  22.057  0.00  0.00    +0.000 A 
ATOM      4  C   UNL     1      10.747   2.742  23.036  0.00  0.00    +0.000 A 
ATOM      5  C   UNL     1       9.842   2.654  24.285  0.00  0.00    +0.000 A 
ATOM      6  C   UNL     1       8.582   2.139  24.533  0.00  0.00    +0.000 A 
ATOM      7  C   UNL     1       8.552   0.780  23.663  0.00  0.00    +0.000 A 
ATOM      8  C   UNL     1       8.844  -0.301  24.392  0.00  0.00    +0.000 C 
ATOM      9  N   UNL     1       9.093  -1.258  23.430  0.00  0.00    +0.000 N 
ATOM     10  C   UNL     1       9.339  -2.516  23.627  0.00  0.00    +0.000 C 
ATOM     11  O   UNL     1      10.543  -2.987  23.508  0.00  0.00    +0.000 OA
ATOM     12  C   UNL     1       9.575  -0.854  22.230  0.00  0.00    +0.000 C 
ENDROOT
BRANCH   1  16
ATOM     13  C   UNL     1       5.773  -1.667  18.975  0.00  0.00    +0.000 A 
ATOM     14  C   UNL     1       6.382  -0.321  18.674  0.00  0.00    +0.000 A 
ATOM     15  C   UNL     1       7.281   0.479  19.441  0.00  0.00    +0.000 A 
ATOM     16  C   UNL     1       7.606  -0.283  20.841  0.00  0.00    +0.000 A 
ATOM     17  C   UNL     1       6.708  -1.265  21.453  0.00  0.00    +0.000 A 
ATOM     18  C   UNL     1       5.993  -1.947  20.462  0.00  0.00    +0.000 A 
ENDBRANCH   1  16
BRANCH  10  19
ATOM     19  C   UNL     1       8.783  -3.027  24.948  0.00  0.00    +0.000 C 
BRANCH  19  20
ATOM     20  C   UNL     1       8.130  -4.437  24.744  0.00  0.00    +0.000 C 
BRANCH  20  21
ATOM     21  C   UNL     1       7.227  -4.501  26.021  0.00  0.00    +0.000 A 
ATOM     22  C   UNL     1       6.175  -5.520  25.633  0.00  0.00    +0.000 A 
ATOM     23  C   UNL     1       4.722  -5.340  25.406  0.00  0.00    +0.000 A 
ATOM     24  C   UNL     1       4.459  -3.902  25.829  0.00  0.00    +0.000 A 
ATOM     25  C   UNL     1       5.154  -2.757  26.257  0.00  0.00    +0.000 A 
ATOM     26 CL   UNL     1       5.432  -1.869  24.734  0.00  0.00    +0.000 Cl
ATOM     27  C   UNL     1       6.606  -3.271  26.536  0.00  0.00    +0.000 A 
ENDBRANCH  20  21
ENDBRANCH  19  20
ENDBRANCH  10  19
TORSDOF 4
ENDMDL
MODEL 7
REMARK VINA RESULT:      -7.3      1.799      4.170
REMARK  Name = 
REMARK  4 active torsions:
REMARK  status: ('A' for Active; 'I' for Inactive)
REMARK    1  A    between atoms: C_7  and  C_8
REMARK    2  A    between atoms: C_24  and  C_26
REMARK    3  A    between atoms: C_26  and  C_29
REMARK    4  A    between atoms: C_29  and  C_32
REMARK                            x       y       z     vdW  Elec       q    Type
REMARK                         _______ _______ _______ _____ _____    ______ ____
ROOT
ATOM      1  C   UNL     1       7.426   1.249  22.712  0.00  0.00    +0.000 C 
ATOM      2  C   UNL     1       7.628   1.392  21.282  0.00  0.00    +0.000 A 
ATOM      3  C   UNL     1       6.239   1.906  20.875  0.00  0.00    +0.000 A 
ATOM      4  C   UNL     1       5.484   1.661  19.633  0.00  0.00    +0.000 A 
ATOM      5  C   UNL     1       6.269   0.494  18.993  0.00  0.00    +0.000 A 
ATOM      6  C   UNL     1       7.464  -0.142  19.280  0.00  0.00    +0.000 A 
ATOM      7  C   UNL     1       7.475  -0.212  20.892  0.00  0.00    +0.000 A 
ATOM      8  C   UNL     1       7.047  -1.391  21.355  0.00  0.00    +0.000 C 
ATOM      9  N   UNL     1       6.817  -1.127  22.689  0.00  0.00    +0.000 N 
ATOM     10  C   UNL     1       6.468  -1.978  23.603  0.00  0.00    +0.000 C 
ATOM     11  O   UNL     1       5.250  -2.016  24.049  0.00  0.00    +0.000 OA
ATOM     12  C   UNL     1       6.470   0.134  23.046  0.00  0.00    +0.000 C 
ENDROOT
BRANCH   1  16
ATOM     13  C   UNL     1      11.206   0.672  24.580  0.00  0.00    +0.000 A 
ATOM     14  C   UNL     1       9.896   0.440  25.292  0.00  0.00    +0.000 A 
ATOM     15  C   UNL     1       8.558   0.702  24.874  0.00  0.00    +0.000 A 
ATOM     16  C   UNL     1       8.588   1.371  23.391  0.00  0.00    +0.000 A 
ATOM     17  C   UNL     1       9.736   2.107  22.860  0.00  0.00    +0.000 A 
ATOM     18  C   UNL     1      10.925   1.597  23.396  0.00  0.00    +0.000 A 
ENDBRANCH   1  16
BRANCH  10  19
ATOM     19  C   UNL     1       6.871  -3.406  23.266  0.00  0.00    +0.000 C 
BRANCH  19  20
ATOM     20  C   UNL     1       5.745  -4.400  23.712  0.00  0.00    +0.000 C 
BRANCH  20  21
ATOM     21  C   UNL     1       6.606  -5.448  24.493  0.00  0.00    +0.000 A 
ATOM     22  C   UNL     1       5.579  -6.139  25.365  0.00  0.00    +0.000 A 
ATOM     23  C   UNL     1       5.427  -6.129  26.839  0.00  0.00    +0.000 A 
ATOM     24  C   UNL     1       6.667  -5.396  27.331  0.00  0.00    +0.000 A 
ATOM     25  C   UNL     1       7.784  -4.705  26.830  0.00  0.00    +0.000 A 
ATOM     26 CL   UNL     1       7.232  -3.008  26.830  0.00  0.00    +0.000 Cl
ATOM     27  C   UNL     1       7.756  -4.995  25.292  0.00  0.00    +0.000 A 
ENDBRANCH  20  21
ENDBRANCH  19  20
ENDBRANCH  10  19
TORSDOF 4
ENDMDL
MODEL 8
REMARK VINA RESULT:      -7.3      1.611      2.091
REMARK  Name = 
REMARK  4 active torsions:
REMARK  status: ('A' for Active; 'I' for Inactive)
REMARK    1  A    between atoms: C_7  and  C_8
REMARK    2  A    between atoms: C_24  and  C_26
REMARK    3  A    between atoms: C_26  and  C_29
REMARK    4  A    between atoms: C_29  and  C_32
REMARK                            x       y       z     vdW  Elec       q    Type
REMARK                         _______ _______ _______ _____ _____    ______ ____
ROOT
ATOM      1  C   UNL     1       8.402   0.432  21.295  0.00  0.00    +0.000 C 
ATOM      2  C   UNL     1       8.427   1.702  21.996  0.00  0.00    +0.000 A 
ATOM      3  C   UNL     1       9.944   1.920  22.081  0.00  0.00    +0.000 A 
ATOM      4  C   UNL     1      10.733   2.568  23.145  0.00  0.00    +0.000 A 
ATOM      5  C   UNL     1       9.713   2.663  24.302  0.00  0.00    +0.000 A 
ATOM      6  C   UNL     1       8.355   2.422  24.418  0.00  0.00    +0.000 A 
ATOM      7  C   UNL     1       8.129   1.105  23.514  0.00  0.00    +0.000 A 
ATOM      8  C   UNL     1       8.117  -0.018  24.239  0.00  0.00    +0.000 C 
ATOM      9  N   UNL     1       8.255  -1.000  23.281  0.00  0.00    +0.000 N 
ATOM     10  C   UNL     1       8.214  -2.283  23.467  0.00  0.00    +0.000 C 
ATOM     11  O   UNL     1       9.300  -2.995  23.449  0.00  0.00    +0.000 OA
ATOM     12  C   UNL     1       8.924  -0.699  22.141  0.00  0.00    +0.000 C 
ENDROOT
BRANCH   1  16
ATOM     13  C   UNL     1       5.331   0.408  18.349  0.00  0.00    +0.000 A 
ATOM     14  C   UNL     1       5.496   1.523  19.352  0.00  0.00    +0.000 A 
ATOM     15  C   UNL     1       6.369   1.635  20.474  0.00  0.00    +0.000 A 
ATOM     16  C   UNL     1       7.260   0.279  20.590  0.00  0.00    +0.000 A 
ATOM     17  C   UNL     1       6.835  -1.014  20.049  0.00  0.00    +0.000 A 
ATOM     18  C   UNL     1       6.038  -0.824  18.914  0.00  0.00    +0.000 A 
ENDBRANCH   1  16
BRANCH  10  19
ATOM     19  C   UNL     1       7.438  -2.674  24.716  0.00  0.00    +0.000 C 
BRANCH  19  20
ATOM     20  C   UNL     1       6.017  -3.201  24.321  0.00  0.00    +0.000 C 
BRANCH  20  21
ATOM     21  C   UNL     1       5.437  -3.502  25.743  0.00  0.00    +0.000 A 
ATOM     22  C   UNL     1       6.659  -3.966  26.509  0.00  0.00    +0.000 A 
ATOM     23  C   UNL     1       6.975  -5.302  27.066  0.00  0.00    +0.000 A 
ATOM     24  C   UNL     1       5.696  -6.100  26.857  0.00  0.00    +0.000 A 
ATOM     25  C   UNL     1       4.431  -5.975  26.258  0.00  0.00    +0.000 A 
ATOM     26 CL   UNL     1       4.690  -6.667  24.634  0.00  0.00    +0.000 Cl
ATOM     27  C   UNL     1       4.328  -4.458  25.890  0.00  0.00    +0.000 A 
ENDBRANCH  20  21
ENDBRANCH  19  20
ENDBRANCH  10  19
TORSDOF 4
ENDMDL
MODEL 9
REMARK VINA RESULT:      -7.1      1.646      2.110
REMARK  Name = 
REMARK  4 active torsions:
REMARK  status: ('A' for Active; 'I' for Inactive)
REMARK    1  A    between atoms: C_7  and  C_8
REMARK    2  A    between atoms: C_24  and  C_26
REMARK    3  A    between atoms: C_26  and  C_29
REMARK    4  A    between atoms: C_29  and  C_32
REMARK                            x       y       z     vdW  Elec       q    Type
REMARK                         _______ _______ _______ _____ _____    ______ ____
ROOT
ATOM      1  C   UNL     1       8.265   0.302  21.190  0.00  0.00    +0.000 C 
ATOM      2  C   UNL     1       8.365   1.529  21.957  0.00  0.00    +0.000 A 
ATOM      3  C   UNL     1       9.880   1.556  22.206  0.00  0.00    +0.000 A 
ATOM      4  C   UNL     1      10.621   2.057  23.378  0.00  0.00    +0.000 A 
ATOM      5  C   UNL     1       9.503   2.228  24.429  0.00  0.00    +0.000 A 
ATOM      6  C   UNL     1       8.121   2.151  24.396  0.00  0.00    +0.000 A 
ATOM      7  C   UNL     1       7.839   0.910  23.403  0.00  0.00    +0.000 A 
ATOM      8  C   UNL     1       7.618  -0.232  24.061  0.00  0.00    +0.000 C 
ATOM      9  N   UNL     1       7.740  -1.183  23.070  0.00  0.00    +0.000 N 
ATOM     10  C   UNL     1       7.530  -2.457  23.181  0.00  0.00    +0.000 C 
ATOM     11  O   UNL     1       8.520  -3.296  23.234  0.00  0.00    +0.000 OA
ATOM     12  C   UNL     1       8.557  -0.919  22.021  0.00  0.00    +0.000 C 
ENDROOT
BRANCH   1  16
ATOM     13  C   UNL     1       5.399   1.102  18.147  0.00  0.00    +0.000 A 
ATOM     14  C   UNL     1       5.364   1.767  19.500  0.00  0.00    +0.000 A 
ATOM     15  C   UNL     1       6.150   1.530  20.667  0.00  0.00    +0.000 A 
ATOM     16  C   UNL     1       7.194   0.319  20.366  0.00  0.00    +0.000 A 
ATOM     17  C   UNL     1       6.966  -0.708  19.348  0.00  0.00    +0.000 A 
ATOM     18  C   UNL     1       6.219  -0.180  18.288  0.00  0.00    +0.000 A 
ENDBRANCH   1  16
BRANCH  10  19
ATOM     19  C   UNL     1       6.585  -2.803  24.324  0.00  0.00    +0.000 C 
BRANCH  19  20
ATOM     20  C   UNL     1       6.746  -4.311  24.714  0.00  0.00    +0.000 C 
BRANCH  20  21
ATOM     21  C   UNL     1       5.445  -4.895  24.068  0.00  0.00    +0.000 A 
ATOM     22  C   UNL     1       4.390  -3.888  24.475  0.00  0.00    +0.000 A 
ATOM     23  C   UNL     1       3.232  -4.046  25.386  0.00  0.00    +0.000 A 
ATOM     24  C   UNL     1       3.215  -5.534  25.705  0.00  0.00    +0.000 A 
ATOM     25  C   UNL     1       3.971  -6.697  25.475  0.00  0.00    +0.000 A 
ATOM     26 CL   UNL     1       5.026  -6.776  26.912  0.00  0.00    +0.000 Cl
ATOM     27  C   UNL     1       5.021  -6.265  24.397  0.00  0.00    +0.000 A 
ENDBRANCH  20  21
ENDBRANCH  19  20
ENDBRANCH  10  19
TORSDOF 4
ENDMDL
