MODEL 1
REMARK VINA RESULT:      -8.7      0.000      0.000
REMARK  Name = 
REMARK  5 active torsions:
REMARK  status: ('A' for Active; 'I' for Inactive)
REMARK    1  A    between atoms: C_5  and  N_6
REMARK    2  A    between atoms: C_8  and  C_10
REMARK    3  A    between atoms: C_26  and  C_27
REMARK    4  A    between atoms: C_27  and  C_29
REMARK    5  A    between atoms: C_38  and  C_40
REMARK                            x       y       z     vdW  Elec       q    Type
REMARK                         _______ _______ _______ _____ _____    ______ ____
ROOT
ATOM      1  C   UNL     1       9.705  -0.817  24.812  0.00  0.00    +0.000 C 
ATOM      2  O   UNL     1       9.655  -0.224  25.845  0.00  0.00    +0.000 OA
ENDROOT
BRANCH   1   3
ATOM      3  C   UNL     1       8.585  -1.543  24.565  0.00  0.00    +0.000 C 
ATOM      4  O   UNL     1       7.627  -0.792  24.509  0.00  0.00    +0.000 OA
ATOM      5  N   UNL     1       8.553  -2.697  25.255  0.00  0.00    +0.000 N 
ATOM      6  C   UNL     1       9.228  -3.879  24.710  0.00  0.00    +0.000 C 
ATOM      7  C   UNL     1       8.226  -4.778  24.016  0.00  0.00    +0.000 C 
ATOM      8  C   UNL     1       7.019  -5.069  24.867  0.00  0.00    +0.000 C 
ATOM      9  C   UNL     1       6.424  -3.821  25.472  0.00  0.00    +0.000 C 
ATOM     10  C   UNL     1       7.471  -2.987  26.190  0.00  0.00    +0.000 C 
BRANCH   8  11
ATOM     11  C   UNL     1       5.966  -5.693  23.975  0.00  0.00    +0.000 C 
ATOM     12  O   UNL     1       6.103  -5.748  22.764  0.00  0.00    +0.000 OA
ATOM     13  N   UNL     1       4.687  -5.730  24.481  0.00  0.00    +0.000 N 
ATOM     14  C   UNL     1       4.248  -6.960  25.117  0.00  0.00    +0.000 C 
ATOM     15  C   UNL     1       2.943  -7.417  24.485  0.00  0.00    +0.000 C 
ATOM     16  C   UNL     1       1.866  -6.376  24.669  0.00  0.00    +0.000 C 
ATOM     17  C   UNL     1       2.366  -4.973  24.457  0.00  0.00    +0.000 C 
ATOM     18  C   UNL     1       3.706  -4.930  23.760  0.00  0.00    +0.000 C 
ENDBRANCH   8  11
ENDBRANCH   1   3
BRANCH   1  24
ATOM     19  C   UNL     1      10.105   1.162  23.421  0.00  0.00    +0.000 A 
ATOM     20  C   UNL     1       9.222   1.483  22.219  0.00  0.00    +0.000 A 
ATOM     21  C   UNL     1       8.771   0.578  21.159  0.00  0.00    +0.000 A 
ATOM     22  C   UNL     1       9.459  -0.712  21.421  0.00  0.00    +0.000 A 
ATOM     23  C   UNL     1      10.255  -1.303  22.452  0.00  0.00    +0.000 A 
ATOM     24  C   UNL     1      10.279  -0.275  23.607  0.00  0.00    +0.000 A 
BRANCH  21  25
ATOM     25  N   UNL     1       7.485   0.246  21.565  0.00  0.00    +0.000 N 
ATOM     26  H   UNL     1       7.681  -0.135  22.445  0.00  0.00    +0.000 HD
ATOM     27  C   UNL     1       6.892  -0.628  20.806  0.00  0.00    +0.000 C 
ATOM     28  O   UNL     1       6.587  -1.765  21.342  0.00  0.00    +0.000 OA
BRANCH  27  29
ATOM     29  C   UNL     1       6.364  -0.436  19.439  0.00  0.00    +0.000 C 
ATOM     30  O   UNL     1       5.105   0.215  19.451  0.00  0.00    +0.000 OA
ATOM     31  C   UNL     1       5.054   1.312  18.607  0.00  0.00    +0.000 C 
ATOM     32  C   UNL     1       6.299   1.290  17.722  0.00  0.00    +0.000 C 
ATOM     33  C   UNL     1       7.249   0.298  18.472  0.00  0.00    +0.000 C 
ENDBRANCH  27  29
ENDBRANCH  21  25
ENDBRANCH   1  24
TORSDOF 5
ENDMDL
MODEL 2
REMARK VINA RESULT:      -8.3      2.030      2.762
REMARK  Name = 
REMARK  5 active torsions:
REMARK  status: ('A' for Active; 'I' for Inactive)
REMARK    1  A    between atoms: C_5  and  N_6
REMARK    2  A    between atoms: C_8  and  C_10
REMARK    3  A    between atoms: C_26  and  C_27
REMARK    4  A    between atoms: C_27  and  C_29
REMARK    5  A    between atoms: C_38  and  C_40
REMARK                            x       y       z     vdW  Elec       q    Type
REMARK                         _______ _______ _______ _____ _____    ______ ____
ROOT
ATOM      1  C   UNL     1       7.857   1.582  25.732  0.00  0.00    +0.000 C 
ATOM      2  O   UNL     1       6.954   2.206  26.198  0.00  0.00    +0.000 OA
ENDROOT
BRANCH   1   3
ATOM      3  C   UNL     1       7.495   0.326  25.366  0.00  0.00    +0.000 C 
ATOM      4  O   UNL     1       6.633   0.392  24.508  0.00  0.00    +0.000 OA
ATOM      5  N   UNL     1       7.402  -0.512  26.414  0.00  0.00    +0.000 N 
ATOM      6  C   UNL     1       8.607  -1.190  26.902  0.00  0.00    +0.000 C 
ATOM      7  C   UNL     1       8.675  -2.597  26.347  0.00  0.00    +0.000 C 
ATOM      8  C   UNL     1       7.393  -3.361  26.538  0.00  0.00    +0.000 C 
ATOM      9  C   UNL     1       6.181  -2.576  26.101  0.00  0.00    +0.000 C 
ATOM     10  C   UNL     1       6.148  -1.192  26.727  0.00  0.00    +0.000 C 
BRANCH   8  11
ATOM     11  C   UNL     1       7.467  -4.608  25.681  0.00  0.00    +0.000 C 
ATOM     12  O   UNL     1       8.364  -5.423  25.812  0.00  0.00    +0.000 OA
ATOM     13  N   UNL     1       6.826  -4.544  24.465  0.00  0.00    +0.000 N 
ATOM     14  C   UNL     1       5.485  -5.098  24.380  0.00  0.00    +0.000 C 
ATOM     15  C   UNL     1       5.424  -6.100  23.238  0.00  0.00    +0.000 C 
ATOM     16  C   UNL     1       5.747  -5.432  21.924  0.00  0.00    +0.000 C 
ATOM     17  C   UNL     1       6.892  -4.461  22.026  0.00  0.00    +0.000 C 
ATOM     18  C   UNL     1       7.691  -4.633  23.297  0.00  0.00    +0.000 C 
ENDBRANCH   8  11
ENDBRANCH   1   3
BRANCH   1  24
ATOM     19  C   UNL     1       8.332   3.073  23.845  0.00  0.00    +0.000 A 
ATOM     20  C   UNL     1       8.495   2.535  22.426  0.00  0.00    +0.000 A 
ATOM     21  C   UNL     1       9.283   1.385  21.979  0.00  0.00    +0.000 A 
ATOM     22  C   UNL     1      10.008   0.909  23.185  0.00  0.00    +0.000 A 
ATOM     23  C   UNL     1      10.008   1.159  24.594  0.00  0.00    +0.000 A 
ATOM     24  C   UNL     1       8.844   2.144  24.847  0.00  0.00    +0.000 A 
BRANCH  21  25
ATOM     25  N   UNL     1       8.328   0.383  21.867  0.00  0.00    +0.000 N 
ATOM     26  H   UNL     1       8.766  -0.323  22.384  0.00  0.00    +0.000 HD
ATOM     27  C   UNL     1       8.103  -0.010  20.647  0.00  0.00    +0.000 C 
ATOM     28  O   UNL     1       8.390  -1.238  20.361  0.00  0.00    +0.000 OA
BRANCH  27  29
ATOM     29  C   UNL     1       7.400   0.720  19.572  0.00  0.00    +0.000 C 
ATOM     30  O   UNL     1       7.179  -0.102  18.439  0.00  0.00    +0.000 OA
ATOM     31  C   UNL     1       5.862  -0.094  18.011  0.00  0.00    +0.000 C 
ATOM     32  C   UNL     1       5.131   1.031  18.743  0.00  0.00    +0.000 C 
ATOM     33  C   UNL     1       6.089   1.358  19.935  0.00  0.00    +0.000 C 
ENDBRANCH  27  29
ENDBRANCH  21  25
ENDBRANCH   1  24
TORSDOF 5
ENDMDL
MODEL 3
REMARK VINA RESULT:      -8.2      2.841      4.509
REMARK  Name = 
REMARK  5 active torsions:
REMARK  status: ('A' for Active; 'I' for Inactive)
REMARK    1  A    between atoms: C_5  and  N_6
REMARK    2  A    between atoms: C_8  and  C_10
REMARK    3  A    between atoms: C_26  and  C_27
REMARK    4  A    between atoms: C_27  and  C_29
REMARK    5  A    between atoms: C_38  and  C_40
REMARK                            x       y       z     vdW  Elec       q    Type
REMARK                         _______ _______ _______ _____ _____    ______ ____
ROOT
ATOM      1  C   UNL     1       9.320  -2.074  22.545  0.00  0.00    +0.000 C 
ATOM      2  O   UNL     1      10.498  -1.946  22.408  0.00  0.00    +0.000 OA
ENDROOT
BRANCH   1   3
ATOM      3  C   UNL     1       8.972  -2.428  23.808  0.00  0.00    +0.000 C 
ATOM      4  O   UNL     1       9.512  -1.674  24.598  0.00  0.00    +0.000 OA
ATOM      5  N   UNL     1       8.955  -3.761  23.986  0.00  0.00    +0.000 N 
ATOM      6  C   UNL     1       7.751  -4.519  23.629  0.00  0.00    +0.000 C 
ATOM      7  C   UNL     1       6.918  -4.787  24.865  0.00  0.00    +0.000 C 
ATOM      8  C   UNL     1       7.724  -5.367  25.995  0.00  0.00    +0.000 C 
ATOM      9  C   UNL     1       8.995  -4.596  26.254  0.00  0.00    +0.000 C 
ATOM     10  C   UNL     1       9.806  -4.401  24.985  0.00  0.00    +0.000 C 
BRANCH   8  11
ATOM     11  C   UNL     1       6.878  -5.293  27.250  0.00  0.00    +0.000 C 
ATOM     12  O   UNL     1       7.097  -6.008  28.213  0.00  0.00    +0.000 OA
ATOM     13  N   UNL     1       5.605  -4.796  27.092  0.00  0.00    +0.000 N 
ATOM     14  C   UNL     1       5.387  -3.391  27.393  0.00  0.00    +0.000 C 
ATOM     15  C   UNL     1       4.245  -3.258  28.387  0.00  0.00    +0.000 C 
ATOM     16  C   UNL     1       2.969  -3.825  27.814  0.00  0.00    +0.000 C 
ATOM     17  C   UNL     1       3.185  -5.113  27.067  0.00  0.00    +0.000 C 
ATOM     18  C   UNL     1       4.528  -5.740  27.360  0.00  0.00    +0.000 C 
ENDBRANCH   8  11
ENDBRANCH   1   3
BRANCH   1  24
ATOM     19  C   UNL     1       8.887  -0.176  21.054  0.00  0.00    +0.000 A 
ATOM     20  C   UNL     1       8.651   1.229  21.601  0.00  0.00    +0.000 A 
ATOM     21  C   UNL     1       7.781   1.637  22.706  0.00  0.00    +0.000 A 
ATOM     22  C   UNL     1       7.062   0.404  23.119  0.00  0.00    +0.000 A 
ATOM     23  C   UNL     1       7.115  -1.000  22.849  0.00  0.00    +0.000 A 
ATOM     24  C   UNL     1       8.346  -1.206  21.935  0.00  0.00    +0.000 A 
BRANCH  21  25
ATOM     25  N   UNL     1       8.669   1.757  23.768  0.00  0.00    +0.000 N 
ATOM     26  H   UNL     1       8.148   1.320  24.472  0.00  0.00    +0.000 HD
ATOM     27  C   UNL     1       8.948   2.985  24.096  0.00  0.00    +0.000 C 
ATOM     28  O   UNL     1       8.595   3.374  25.277  0.00  0.00    +0.000 OA
BRANCH  27  29
ATOM     29  C   UNL     1       9.772   3.960  23.353  0.00  0.00    +0.000 C 
ATOM     30  O   UNL     1       9.652   5.265  23.890  0.00  0.00    +0.000 OA
ATOM     31  C   UNL     1      10.876   5.859  24.153  0.00  0.00    +0.000 C 
ATOM     32  C   UNL     1      11.967   5.006  23.507  0.00  0.00    +0.000 C 
ATOM     33  C   UNL     1      11.238   3.650  23.230  0.00  0.00    +0.000 C 
ENDBRANCH  27  29
ENDBRANCH  21  25
ENDBRANCH   1  24
TORSDOF 5
ENDMDL
MODEL 4
REMARK VINA RESULT:      -8.1      1.696      2.415
REMARK  Name = 
REMARK  5 active torsions:
REMARK  status: ('A' for Active; 'I' for Inactive)
REMARK    1  A    between atoms: C_5  and  N_6
REMARK    2  A    between atoms: C_8  and  C_10
REMARK    3  A    between atoms: C_26  and  C_27
REMARK    4  A    between atoms: C_27  and  C_29
REMARK    5  A    between atoms: C_38  and  C_40
REMARK                            x       y       z     vdW  Elec       q    Type
REMARK                         _______ _______ _______ _____ _____    ______ ____
ROOT
ATOM      1  C   UNL     1       9.245   1.114  24.371  0.00  0.00    +0.000 C 
ATOM      2  O   UNL     1       9.161   2.201  24.855  0.00  0.00    +0.000 OA
ENDROOT
BRANCH   1   3
ATOM      3  C   UNL     1       8.150   0.347  24.605  0.00  0.00    +0.000 C 
ATOM      4  O   UNL     1       7.164   0.914  24.170  0.00  0.00    +0.000 OA
ATOM      5  N   UNL     1       8.170  -0.226  25.821  0.00  0.00    +0.000 N 
ATOM      6  C   UNL     1       8.883  -1.494  26.008  0.00  0.00    +0.000 C 
ATOM      7  C   UNL     1       7.907  -2.652  25.964  0.00  0.00    +0.000 C 
ATOM      8  C   UNL     1       6.722  -2.448  26.869  0.00  0.00    +0.000 C 
ATOM      9  C   UNL     1       6.088  -1.090  26.694  0.00  0.00    +0.000 C 
ATOM     10  C   UNL     1       7.110   0.028  26.793  0.00  0.00    +0.000 C 
BRANCH   8  11
ATOM     11  C   UNL     1       5.683  -3.490  26.509  0.00  0.00    +0.000 C 
ATOM     12  O   UNL     1       5.188  -4.219  27.353  0.00  0.00    +0.000 OA
ATOM     13  N   UNL     1       5.690  -3.926  25.204  0.00  0.00    +0.000 N 
ATOM     14  C   UNL     1       4.751  -3.310  24.282  0.00  0.00    +0.000 C 
ATOM     15  C   UNL     1       3.935  -4.392  23.594  0.00  0.00    +0.000 C 
ATOM     16  C   UNL     1       4.830  -5.320  22.811  0.00  0.00    +0.000 C 
ATOM     17  C   UNL     1       6.096  -5.670  23.545  0.00  0.00    +0.000 C 
ATOM     18  C   UNL     1       6.030  -5.330  25.016  0.00  0.00    +0.000 C 
ENDBRANCH   8  11
ENDBRANCH   1   3
BRANCH   1  24
ATOM     19  C   UNL     1       9.366   1.737  22.002  0.00  0.00    +0.000 A 
ATOM     20  C   UNL     1       8.576   0.981  20.938  0.00  0.00    +0.000 A 
ATOM     21  C   UNL     1       8.452  -0.467  20.760  0.00  0.00    +0.000 A 
ATOM     22  C   UNL     1       9.366  -1.069  21.765  0.00  0.00    +0.000 A 
ATOM     23  C   UNL     1      10.149  -0.640  22.883  0.00  0.00    +0.000 A 
ATOM     24  C   UNL     1       9.821   0.859  23.076  0.00  0.00    +0.000 A 
BRANCH  21  25
ATOM     25  N   UNL     1       7.230  -0.746  21.358  0.00  0.00    +0.000 N 
ATOM     26  H   UNL     1       7.524  -1.361  22.061  0.00  0.00    +0.000 HD
ATOM     27  C   UNL     1       6.367  -1.323  20.573  0.00  0.00    +0.000 C 
ATOM     28  O   UNL     1       5.987  -2.517  20.889  0.00  0.00    +0.000 OA
BRANCH  27  29
ATOM     29  C   UNL     1       5.629  -0.727  19.440  0.00  0.00    +0.000 C 
ATOM     30  O   UNL     1       5.025   0.504  19.799  0.00  0.00    +0.000 OA
ATOM     31  C   UNL     1       5.320   1.531  18.918  0.00  0.00    +0.000 C 
ATOM     32  C   UNL     1       5.981   0.922  17.682  0.00  0.00    +0.000 C 
ATOM     33  C   UNL     1       6.404  -0.502  18.173  0.00  0.00    +0.000 C 
ENDBRANCH  27  29
ENDBRANCH  21  25
ENDBRANCH   1  24
TORSDOF 5
ENDMDL
MODEL 5
REMARK VINA RESULT:      -7.7      2.147      3.119
REMARK  Name = 
REMARK  5 active torsions:
REMARK  status: ('A' for Active; 'I' for Inactive)
REMARK    1  A    between atoms: C_5  and  N_6
REMARK    2  A    between atoms: C_8  and  C_10
REMARK    3  A    between atoms: C_26  and  C_27
REMARK    4  A    between atoms: C_27  and  C_29
REMARK    5  A    between atoms: C_38  and  C_40
REMARK                            x       y       z     vdW  Elec       q    Type
REMARK                         _______ _______ _______ _____ _____    ______ ____
ROOT
ATOM      1  C   UNL     1       9.397  -1.698  23.715  0.00  0.00    +0.000 C 
ATOM      2  O   UNL     1       9.997  -0.906  24.374  0.00  0.00    +0.000 OA
ENDROOT
BRANCH   1   3
ATOM      3  C   UNL     1       8.343  -2.242  24.375  0.00  0.00    +0.000 C 
ATOM      4  O   UNL     1       7.730  -1.357  24.947  0.00  0.00    +0.000 OA
ATOM      5  N   UNL     1       8.651  -3.405  24.975  0.00  0.00    +0.000 N 
ATOM      6  C   UNL     1       8.587  -4.651  24.205  0.00  0.00    +0.000 C 
ATOM      7  C   UNL     1       7.280  -5.365  24.478  0.00  0.00    +0.000 C 
ATOM      8  C   UNL     1       6.991  -5.509  25.948  0.00  0.00    +0.000 C 
ATOM      9  C   UNL     1       7.162  -4.212  26.699  0.00  0.00    +0.000 C 
ATOM     10  C   UNL     1       8.509  -3.569  26.419  0.00  0.00    +0.000 C 
BRANCH   8  11
ATOM     11  C   UNL     1       5.545  -5.937  26.093  0.00  0.00    +0.000 C 
ATOM     12  O   UNL     1       5.225  -6.886  26.788  0.00  0.00    +0.000 OA
ATOM     13  N   UNL     1       4.700  -5.574  25.069  0.00  0.00    +0.000 N 
ATOM     14  C   UNL     1       3.903  -4.373  25.245  0.00  0.00    +0.000 C 
ATOM     15  C   UNL     1       2.438  -4.699  25.005  0.00  0.00    +0.000 C 
ATOM     16  C   UNL     1       2.227  -5.207  23.600  0.00  0.00    +0.000 C 
ATOM     17  C   UNL     1       3.303  -6.159  23.154  0.00  0.00    +0.000 C 
ATOM     18  C   UNL     1       4.137  -6.678  24.303  0.00  0.00    +0.000 C 
ENDBRANCH   8  11
ENDBRANCH   1   3
BRANCH   1  24
ATOM     19  C   UNL     1       9.724  -0.346  21.696  0.00  0.00    +0.000 A 
ATOM     20  C   UNL     1       8.665   0.645  21.221  0.00  0.00    +0.000 A 
ATOM     21  C   UNL     1       7.221   0.436  21.093  0.00  0.00    +0.000 A 
ATOM     22  C   UNL     1       7.000  -0.999  21.405  0.00  0.00    +0.000 A 
ATOM     23  C   UNL     1       7.750  -2.105  21.918  0.00  0.00    +0.000 A 
ATOM     24  C   UNL     1       9.132  -1.530  22.309  0.00  0.00    +0.000 A 
BRANCH  21  25
ATOM     25  N   UNL     1       6.724   1.008  22.257  0.00  0.00    +0.000 N 
ATOM     26  H   UNL     1       5.855   0.561  22.305  0.00  0.00    +0.000 HD
ATOM     27  C   UNL     1       6.574   2.300  22.199  0.00  0.00    +0.000 C 
ATOM     28  O   UNL     1       5.371   2.760  22.307  0.00  0.00    +0.000 OA
BRANCH  27  29
ATOM     29  C   UNL     1       7.627   3.337  22.189  0.00  0.00    +0.000 C 
ATOM     30  O   UNL     1       7.089   4.627  21.955  0.00  0.00    +0.000 OA
ATOM     31  C   UNL     1       7.497   5.563  22.890  0.00  0.00    +0.000 C 
ATOM     32  C   UNL     1       8.628   4.951  23.715  0.00  0.00    +0.000 C 
ATOM     33  C   UNL     1       8.501   3.422  23.409  0.00  0.00    +0.000 C 
ENDBRANCH  27  29
ENDBRANCH  21  25
ENDBRANCH   1  24
TORSDOF 5
ENDMDL
MODEL 6
REMARK VINA RESULT:      -7.4      2.226      6.088
REMARK  Name = 
REMARK  5 active torsions:
REMARK  status: ('A' for Active; 'I' for Inactive)
REMARK    1  A    between atoms: C_5  and  N_6
REMARK    2  A    between atoms: C_8  and  C_10
REMARK    3  A    between atoms: C_26  and  C_27
REMARK    4  A    between atoms: C_27  and  C_29
REMARK    5  A    between atoms: C_38  and  C_40
REMARK                            x       y       z     vdW  Elec       q    Type
REMARK                         _______ _______ _______ _____ _____    ______ ____
ROOT
ATOM      1  C   UNL     1       7.264  -4.641  25.081  0.00  0.00    +0.000 C 
ATOM      2  O   UNL     1       8.033  -5.399  25.588  0.00  0.00    +0.000 OA
ENDROOT
BRANCH   1   3
ATOM      3  C   UNL     1       7.792  -3.406  24.886  0.00  0.00    +0.000 C 
ATOM      4  O   UNL     1       8.846  -3.513  24.284  0.00  0.00    +0.000 OA
ATOM      5  N   UNL     1       7.657  -2.609  25.961  0.00  0.00    +0.000 N 
ATOM      6  C   UNL     1       6.413  -1.856  26.146  0.00  0.00    +0.000 C 
ATOM      7  C   UNL     1       6.589  -0.432  25.662  0.00  0.00    +0.000 C 
ATOM      8  C   UNL     1       7.821   0.225  26.223  0.00  0.00    +0.000 C 
ATOM      9  C   UNL     1       9.050  -0.637  26.084  0.00  0.00    +0.000 C 
ATOM     10  C   UNL     1       8.824  -2.037  26.627  0.00  0.00    +0.000 C 
BRANCH   8  11
ATOM     11  C   UNL     1       8.061   1.499  25.439  0.00  0.00    +0.000 C 
ATOM     12  O   UNL     1       7.281   2.435  25.483  0.00  0.00    +0.000 OA
ATOM     13  N   UNL     1       8.869   1.384  24.331  0.00  0.00    +0.000 N 
ATOM     14  C   UNL     1      10.271   1.732  24.479  0.00  0.00    +0.000 C 
ATOM     15  C   UNL     1      10.653   2.753  23.420  0.00  0.00    +0.000 C 
ATOM     16  C   UNL     1      10.447   2.190  22.035  0.00  0.00    +0.000 C 
ATOM     17  C   UNL     1       9.173   1.399  21.909  0.00  0.00    +0.000 C 
ATOM     18  C   UNL     1       8.218   1.644  23.054  0.00  0.00    +0.000 C 
ENDBRANCH   8  11
ENDBRANCH   1   3
BRANCH   1  24
ATOM     19  C   UNL     1       6.952  -5.666  22.876  0.00  0.00    +0.000 A 
ATOM     20  C   UNL     1       6.835  -4.818  21.613  0.00  0.00    +0.000 A 
ATOM     21  C   UNL     1       6.018  -3.622  21.397  0.00  0.00    +0.000 A 
ATOM     22  C   UNL     1       5.213  -3.464  22.636  0.00  0.00    +0.000 A 
ATOM     23  C   UNL     1       5.154  -4.035  23.946  0.00  0.00    +0.000 A 
ATOM     24  C   UNL     1       6.349  -5.014  24.033  0.00  0.00    +0.000 A 
BRANCH  21  25
ATOM     25  N   UNL     1       6.931  -2.590  21.577  0.00  0.00    +0.000 N 
ATOM     26  H   UNL     1       6.990  -2.588  22.554  0.00  0.00    +0.000 HD
ATOM     27  C   UNL     1       6.527  -1.434  21.136  0.00  0.00    +0.000 C 
ATOM     28  O   UNL     1       6.373  -0.492  22.008  0.00  0.00    +0.000 OA
BRANCH  27  29
ATOM     29  C   UNL     1       6.376  -0.999  19.732  0.00  0.00    +0.000 C 
ATOM     30  O   UNL     1       5.129  -0.363  19.512  0.00  0.00    +0.000 OA
ATOM     31  C   UNL     1       5.250   0.868  18.890  0.00  0.00    +0.000 C 
ATOM     32  C   UNL     1       6.686   1.009  18.389  0.00  0.00    +0.000 C 
ATOM     33  C   UNL     1       7.449  -0.099  19.186  0.00  0.00    +0.000 C 
ENDBRANCH  27  29
ENDBRANCH  21  25
ENDBRANCH   1  24
TORSDOF 5
ENDMDL
MODEL 7
REMARK VINA RESULT:      -7.4      2.765      4.029
REMARK  Name = 
REMARK  5 active torsions:
REMARK  status: ('A' for Active; 'I' for Inactive)
REMARK    1  A    between atoms: C_5  and  N_6
REMARK    2  A    between atoms: C_8  and  C_10
REMARK    3  A    between atoms: C_26  and  C_27
REMARK    4  A    between atoms: C_27  and  C_29
REMARK    5  A    between atoms: C_38  and  C_40
REMARK                            x       y       z     vdW  Elec       q    Type
REMARK                         _______ _______ _______ _____ _____    ______ ____
ROOT
ATOM      1  C   UNL     1       9.367  -1.582  22.006  0.00  0.00    +0.000 C 
ATOM      2  O   UNL     1      10.475  -1.891  22.321  0.00  0.00    +0.000 OA
ENDROOT
BRANCH   1   3
ATOM      3  C   UNL     1       8.448  -1.874  22.960  0.00  0.00    +0.000 C 
ATOM      4  O   UNL     1       8.705  -1.243  23.970  0.00  0.00    +0.000 OA
ATOM      5  N   UNL     1       8.131  -3.181  22.992  0.00  0.00    +0.000 N 
ATOM      6  C   UNL     1       7.097  -3.692  22.087  0.00  0.00    +0.000 C 
ATOM      7  C   UNL     1       5.775  -3.806  22.818  0.00  0.00    +0.000 C 
ATOM      8  C   UNL     1       5.895  -4.539  24.127  0.00  0.00    +0.000 C 
ATOM      9  C   UNL     1       7.033  -4.026  24.974  0.00  0.00    +0.000 C 
ATOM     10  C   UNL     1       8.338  -3.979  24.197  0.00  0.00    +0.000 C 
BRANCH   8  11
ATOM     11  C   UNL     1       4.611  -4.315  24.899  0.00  0.00    +0.000 C 
ATOM     12  O   UNL     1       3.786  -3.490  24.545  0.00  0.00    +0.000 OA
ATOM     13  N   UNL     1       4.632  -4.677  26.226  0.00  0.00    +0.000 N 
ATOM     14  C   UNL     1       4.099  -5.982  26.579  0.00  0.00    +0.000 C 
ATOM     15  C   UNL     1       3.050  -5.823  27.667  0.00  0.00    +0.000 C 
ATOM     16  C   UNL     1       3.653  -5.206  28.904  0.00  0.00    +0.000 C 
ATOM     17  C   UNL     1       4.607  -4.085  28.594  0.00  0.00    +0.000 C 
ATOM     18  C   UNL     1       4.477  -3.583  27.175  0.00  0.00    +0.000 C 
ENDBRANCH   8  11
ENDBRANCH   1   3
BRANCH   1  24
ATOM     19  C   UNL     1       9.732   0.829  21.756  0.00  0.00    +0.000 A 
ATOM     20  C   UNL     1       8.765   1.847  22.353  0.00  0.00    +0.000 A 
ATOM     21  C   UNL     1       7.303   1.856  22.286  0.00  0.00    +0.000 A 
ATOM     22  C   UNL     1       6.941   0.723  21.396  0.00  0.00    +0.000 A 
ATOM     23  C   UNL     1       7.591  -0.389  20.771  0.00  0.00    +0.000 A 
ATOM     24  C   UNL     1       9.047  -0.373  21.293  0.00  0.00    +0.000 A 
BRANCH  21  25
ATOM     25  N   UNL     1       6.935   1.318  23.512  0.00  0.00    +0.000 N 
ATOM     26  H   UNL     1       6.474   0.509  23.209  0.00  0.00    +0.000 HD
ATOM     27  C   UNL     1       6.134   2.070  24.209  0.00  0.00    +0.000 C 
ATOM     28  O   UNL     1       4.954   1.605  24.457  0.00  0.00    +0.000 OA
BRANCH  27  29
ATOM     29  C   UNL     1       6.452   3.334  24.907  0.00  0.00    +0.000 C 
ATOM     30  O   UNL     1       7.751   3.308  25.472  0.00  0.00    +0.000 OA
ATOM     31  C   UNL     1       8.516   4.409  25.125  0.00  0.00    +0.000 C 
ATOM     32  C   UNL     1       7.598   5.437  24.466  0.00  0.00    +0.000 C 
ATOM     33  C   UNL     1       6.329   4.597  24.103  0.00  0.00    +0.000 C 
ENDBRANCH  27  29
ENDBRANCH  21  25
ENDBRANCH   1  24
TORSDOF 5
ENDMDL
MODEL 8
REMARK VINA RESULT:      -7.4      3.132      3.987
REMARK  Name = 
REMARK  5 active torsions:
REMARK  status: ('A' for Active; 'I' for Inactive)
REMARK    1  A    between atoms: C_5  and  N_6
REMARK    2  A    between atoms: C_8  and  C_10
REMARK    3  A    between atoms: C_26  and  C_27
REMARK    4  A    between atoms: C_27  and  C_29
REMARK    5  A    between atoms: C_38  and  C_40
REMARK                            x       y       z     vdW  Elec       q    Type
REMARK                         _______ _______ _______ _____ _____    ______ ____
ROOT
ATOM      1  C   UNL     1       9.714  -1.629  23.497  0.00  0.00    +0.000 C 
ATOM      2  O   UNL     1      10.464  -1.841  22.595  0.00  0.00    +0.000 OA
ENDROOT
BRANCH   1   3
ATOM      3  C   UNL     1       9.157  -2.761  23.997  0.00  0.00    +0.000 C 
ATOM      4  O   UNL     1      10.036  -3.576  24.215  0.00  0.00    +0.000 OA
ATOM      5  N   UNL     1       8.010  -3.092  23.377  0.00  0.00    +0.000 N 
ATOM      6  C   UNL     1       6.752  -2.485  23.823  0.00  0.00    +0.000 C 
ATOM      7  C   UNL     1       6.013  -3.435  24.743  0.00  0.00    +0.000 C 
ATOM      8  C   UNL     1       5.885  -4.820  24.169  0.00  0.00    +0.000 C 
ATOM      9  C   UNL     1       7.195  -5.352  23.645  0.00  0.00    +0.000 C 
ATOM     10  C   UNL     1       7.863  -4.374  22.695  0.00  0.00    +0.000 C 
BRANCH   8  11
ATOM     11  C   UNL     1       5.427  -5.739  25.283  0.00  0.00    +0.000 C 
ATOM     12  O   UNL     1       4.669  -6.671  25.073  0.00  0.00    +0.000 OA
ATOM     13  N   UNL     1       5.470  -5.217  26.555  0.00  0.00    +0.000 N 
ATOM     14  C   UNL     1       6.630  -5.527  27.372  0.00  0.00    +0.000 C 
ATOM     15  C   UNL     1       6.172  -6.110  28.700  0.00  0.00    +0.000 C 
ATOM     16  C   UNL     1       5.312  -5.121  29.449  0.00  0.00    +0.000 C 
ATOM     17  C   UNL     1       4.340  -4.397  28.557  0.00  0.00    +0.000 C 
ATOM     18  C   UNL     1       4.178  -5.061  27.209  0.00  0.00    +0.000 C 
ENDBRANCH   8  11
ENDBRANCH   1   3
BRANCH   1  24
ATOM     19  C   UNL     1       8.862  -0.447  25.469  0.00  0.00    +0.000 A 
ATOM     20  C   UNL     1       8.248   0.946  25.359  0.00  0.00    +0.000 A 
ATOM     21  C   UNL     1       8.762   2.108  24.632  0.00  0.00    +0.000 A 
ATOM     22  C   UNL     1      10.091   1.695  24.114  0.00  0.00    +0.000 A 
ATOM     23  C   UNL     1      10.866   0.496  24.009  0.00  0.00    +0.000 A 
ATOM     24  C   UNL     1       9.952  -0.642  24.519  0.00  0.00    +0.000 A 
BRANCH  21  25
ATOM     25  N   UNL     1       8.031   2.081  23.451  0.00  0.00    +0.000 N 
ATOM     26  H   UNL     1       8.762   2.018  22.804  0.00  0.00    +0.000 HD
ATOM     27  C   UNL     1       7.317   3.147  23.238  0.00  0.00    +0.000 C 
ATOM     28  O   UNL     1       7.615   3.859  22.200  0.00  0.00    +0.000 OA
BRANCH  27  29
ATOM     29  C   UNL     1       6.088   3.574  23.938  0.00  0.00    +0.000 C 
ATOM     30  O   UNL     1       5.463   4.664  23.284  0.00  0.00    +0.000 OA
ATOM     31  C   UNL     1       4.117   4.451  23.038  0.00  0.00    +0.000 C 
ATOM     32  C   UNL     1       3.683   3.208  23.814  0.00  0.00    +0.000 C 
ATOM     33  C   UNL     1       5.042   2.519  24.167  0.00  0.00    +0.000 C 
ENDBRANCH  27  29
ENDBRANCH  21  25
ENDBRANCH   1  24
TORSDOF 5
ENDMDL
MODEL 9
REMARK VINA RESULT:      -7.4      3.201      8.569
REMARK  Name = 
REMARK  5 active torsions:
REMARK  status: ('A' for Active; 'I' for Inactive)
REMARK    1  A    between atoms: C_5  and  N_6
REMARK    2  A    between atoms: C_8  and  C_10
REMARK    3  A    between atoms: C_26  and  C_27
REMARK    4  A    between atoms: C_27  and  C_29
REMARK    5  A    between atoms: C_38  and  C_40
REMARK                            x       y       z     vdW  Elec       q    Type
REMARK                         _______ _______ _______ _____ _____    ______ ____
ROOT
ATOM      1  C   UNL     1       7.562  -4.312  24.062  0.00  0.00    +0.000 C 
ATOM      2  O   UNL     1       8.221  -5.215  23.645  0.00  0.00    +0.000 OA
ENDROOT
BRANCH   1   3
ATOM      3  C   UNL     1       7.961  -3.105  23.588  0.00  0.00    +0.000 C 
ATOM      4  O   UNL     1       7.869  -3.102  22.373  0.00  0.00    +0.000 OA
ATOM      5  N   UNL     1       9.046  -2.631  24.226  0.00  0.00    +0.000 N 
ATOM      6  C   UNL     1       8.877  -1.888  25.478  0.00  0.00    +0.000 C 
ATOM      7  C   UNL     1       8.929  -0.398  25.211  0.00  0.00    +0.000 C 
ATOM      8  C   UNL     1      10.123   0.004  24.388  0.00  0.00    +0.000 C 
ATOM      9  C   UNL     1      10.295  -0.856  23.161  0.00  0.00    +0.000 C 
ATOM     10  C   UNL     1      10.279  -2.336  23.501  0.00  0.00    +0.000 C 
BRANCH   8  11
ATOM     11  C   UNL     1       9.902   1.429  23.923  0.00  0.00    +0.000 C 
ATOM     12  O   UNL     1      10.810   2.244  23.902  0.00  0.00    +0.000 OA
ATOM     13  N   UNL     1       8.613   1.902  24.011  0.00  0.00    +0.000 N 
ATOM     14  C   UNL     1       7.792   1.851  22.813  0.00  0.00    +0.000 C 
ATOM     15  C   UNL     1       7.221   3.231  22.533  0.00  0.00    +0.000 C 
ATOM     16  C   UNL     1       6.359   3.696  23.681  0.00  0.00    +0.000 C 
ATOM     17  C   UNL     1       6.952   3.374  25.026  0.00  0.00    +0.000 C 
ATOM     18  C   UNL     1       8.414   3.002  24.945  0.00  0.00    +0.000 C 
ENDBRANCH   8  11
ENDBRANCH   1   3
BRANCH   1  24
ATOM     19  C   UNL     1       5.558  -3.351  25.098  0.00  0.00    +0.000 A 
ATOM     20  C   UNL     1       4.966  -3.934  26.378  0.00  0.00    +0.000 A 
ATOM     21  C   UNL     1       4.705  -5.339  26.698  0.00  0.00    +0.000 A 
ATOM     22  C   UNL     1       5.021  -6.092  25.457  0.00  0.00    +0.000 A 
ATOM     23  C   UNL     1       5.624  -5.841  24.184  0.00  0.00    +0.000 A 
ATOM     24  C   UNL     1       6.134  -4.382  24.241  0.00  0.00    +0.000 A 
BRANCH  21  25
ATOM     25  N   UNL     1       5.805  -5.688  27.471  0.00  0.00    +0.000 N 
ATOM     26  H   UNL     1       6.292  -6.243  26.828  0.00  0.00    +0.000 HD
ATOM     27  C   UNL     1       5.515  -6.368  28.541  0.00  0.00    +0.000 C 
ATOM     28  O   UNL     1       5.977  -7.573  28.618  0.00  0.00    +0.000 OA
BRANCH  27  29
ATOM     29  C   UNL     1       4.856  -5.887  29.773  0.00  0.00    +0.000 C 
ATOM     30  O   UNL     1       5.105  -4.510  29.996  0.00  0.00    +0.000 OA
ATOM     31  C   UNL     1       3.950  -3.780  30.223  0.00  0.00    +0.000 C 
ATOM     32  C   UNL     1       2.800  -4.763  30.437  0.00  0.00    +0.000 C 
ATOM     33  C   UNL     1       3.373  -6.106  29.874  0.00  0.00    +0.000 C 
ENDBRANCH  27  29
ENDBRANCH  21  25
ENDBRANCH   1  24
TORSDOF 5
ENDMDL
