MODEL 1
REMARK VINA RESULT:      -8.9      0.000      0.000
REMARK  Name = 
REMARK  4 active torsions:
REMARK  status: ('A' for Active; 'I' for Inactive)
REMARK    1  A    between atoms: C_9  and  S_10
REMARK    2  A    between atoms: S_10  and  N_13
REMARK    3  A    between atoms: C_21  and  C_23
REMARK    4  A    between atoms: C_23  and  C_26
REMARK                            x       y       z     vdW  Elec       q    Type
REMARK                         _______ _______ _______ _____ _____    ______ ____
ROOT
ATOM      1  N   UNL     1       8.429  -3.048  24.714  0.00  0.00    +0.000 NA
ATOM      2  C   UNL     1       8.488  -2.410  25.973  0.00  0.00    +0.000 C 
ATOM      3  C   UNL     1       9.033  -1.029  25.978  0.00  0.00    +0.000 C 
ATOM      4  N   UNL     1       9.243  -0.423  24.639  0.00  0.00    +0.000 N 
ATOM      5  C   UNL     1       9.839   0.803  24.688  0.00  0.00    +0.000 C 
ATOM      6  O   UNL     1      11.077   0.680  25.087  0.00  0.00    +0.000 OA
ATOM      7  C   UNL     1       9.692  -1.303  23.580  0.00  0.00    +0.000 C 
ATOM      8  C   UNL     1       9.611  -2.777  23.996  0.00  0.00    +0.000 C 
ENDROOT
BRANCH   1   9
ATOM      9  S   UNL     1       7.876  -4.533  24.718  0.00  0.00    +0.000 S 
ATOM     10  O   UNL     1       8.607  -5.435  23.850  0.00  0.00    +0.000 OA
ATOM     11  O   UNL     1       7.853  -5.095  26.092  0.00  0.00    +0.000 OA
BRANCH   9  17
ATOM     12  C   UNL     1       6.241  -5.884  21.792  0.00  0.00    +0.000 A 
ATOM     13  C   UNL     1       6.025  -4.493  21.202  0.00  0.00    +0.000 A 
ATOM     14  C   UNL     1       5.921  -3.188  21.896  0.00  0.00    +0.000 A 
ATOM     15  F   UNL     1       7.164  -2.672  21.739  0.00  0.00    +0.000 F 
ATOM     16  C   UNL     1       5.951  -3.531  23.359  0.00  0.00    +0.000 A 
ATOM     17  C   UNL     1       6.150  -4.628  24.192  0.00  0.00    +0.000 A 
ATOM     18  C   UNL     1       6.135  -5.876  23.257  0.00  0.00    +0.000 A 
ENDBRANCH   9  17
ENDBRANCH   1   9
BRANCH   5  19
ATOM     19  C   UNL     1       9.638   1.982  23.912  0.00  0.00    +0.000 C 
BRANCH  19  20
ATOM     20  C   UNL     1       9.430   1.936  22.434  0.00  0.00    +0.000 A 
ATOM     21  C   UNL     1       8.143   2.793  22.306  0.00  0.00    +0.000 A 
ATOM     22  C   UNL     1       6.855   2.391  21.796  0.00  0.00    +0.000 A 
ATOM     23  C   UNL     1       6.934   1.106  21.046  0.00  0.00    +0.000 A 
ATOM     24  C   UNL     1       8.228   0.217  20.865  0.00  0.00    +0.000 A 
ATOM     25  C   UNL     1       9.466   0.857  21.492  0.00  0.00    +0.000 A 
ATOM     26  O   UNL     1       8.180  -0.150  19.520  0.00  0.00    +0.000 OA
ATOM     27  C   UNL     1       7.001   0.304  18.876  0.00  0.00    +0.000 C 
ATOM     28  O   UNL     1       6.261   1.117  19.790  0.00  0.00    +0.000 OA
ENDBRANCH  19  20
ENDBRANCH   5  19
TORSDOF 4
ENDMDL
MODEL 2
REMARK VINA RESULT:      -8.4      2.382      3.142
REMARK  Name = 
REMARK  4 active torsions:
REMARK  status: ('A' for Active; 'I' for Inactive)
REMARK    1  A    between atoms: C_9  and  S_10
REMARK    2  A    between atoms: S_10  and  N_13
REMARK    3  A    between atoms: C_21  and  C_23
REMARK    4  A    between atoms: C_23  and  C_26
REMARK                            x       y       z     vdW  Elec       q    Type
REMARK                         _______ _______ _______ _____ _____    ______ ____
ROOT
ATOM      1  N   UNL     1       6.926  -4.207  24.214  0.00  0.00    +0.000 NA
ATOM      2  C   UNL     1       8.094  -4.109  25.004  0.00  0.00    +0.000 C 
ATOM      3  C   UNL     1       9.073  -3.071  24.593  0.00  0.00    +0.000 C 
ATOM      4  N   UNL     1       8.602  -2.134  23.542  0.00  0.00    +0.000 N 
ATOM      5  C   UNL     1       9.566  -1.265  23.122  0.00  0.00    +0.000 C 
ATOM      6  O   UNL     1      10.491  -1.910  22.464  0.00  0.00    +0.000 OA
ATOM      7  C   UNL     1       7.747  -2.679  22.507  0.00  0.00    +0.000 C 
ATOM      8  C   UNL     1       7.271  -4.095  22.853  0.00  0.00    +0.000 C 
ENDROOT
BRANCH   1   9
ATOM      9  S   UNL     1       5.899  -5.337  24.639  0.00  0.00    +0.000 S 
ATOM     10  O   UNL     1       5.502  -6.209  23.550  0.00  0.00    +0.000 OA
ATOM     11  O   UNL     1       6.435  -6.162  25.750  0.00  0.00    +0.000 OA
BRANCH   9  17
ATOM     12  C   UNL     1       4.883  -2.018  25.648  0.00  0.00    +0.000 A 
ATOM     13  C   UNL     1       5.022  -2.366  27.128  0.00  0.00    +0.000 A 
ATOM     14  C   UNL     1       4.931  -3.687  27.791  0.00  0.00    +0.000 A 
ATOM     15  F   UNL     1       6.233  -4.023  27.956  0.00  0.00    +0.000 F 
ATOM     16  C   UNL     1       4.542  -4.639  26.693  0.00  0.00    +0.000 A 
ATOM     17  C   UNL     1       4.367  -4.658  25.314  0.00  0.00    +0.000 A 
ATOM     18  C   UNL     1       4.413  -3.166  24.860  0.00  0.00    +0.000 A 
ENDBRANCH   9  17
ENDBRANCH   1   9
BRANCH   5  19
ATOM     19  C   UNL     1       9.500   0.110  22.750  0.00  0.00    +0.000 C 
BRANCH  19  20
ATOM     20  C   UNL     1       9.109   0.544  21.375  0.00  0.00    +0.000 A 
ATOM     21  C   UNL     1       8.250   1.792  21.710  0.00  0.00    +0.000 A 
ATOM     22  C   UNL     1       6.854   2.014  21.421  0.00  0.00    +0.000 A 
ATOM     23  C   UNL     1       6.335   1.038  20.422  0.00  0.00    +0.000 A 
ATOM     24  C   UNL     1       7.150  -0.157  19.784  0.00  0.00    +0.000 A 
ATOM     25  C   UNL     1       8.607  -0.181  20.246  0.00  0.00    +0.000 A 
ATOM     26  O   UNL     1       6.797  -0.103  18.436  0.00  0.00    +0.000 OA
ATOM     27  C   UNL     1       5.817   0.887  18.171  0.00  0.00    +0.000 C 
ATOM     28  O   UNL     1       5.569   1.622  19.372  0.00  0.00    +0.000 OA
ENDBRANCH  19  20
ENDBRANCH   5  19
TORSDOF 4
ENDMDL
MODEL 3
REMARK VINA RESULT:      -8.3      2.460      5.993
REMARK  Name = 
REMARK  4 active torsions:
REMARK  status: ('A' for Active; 'I' for Inactive)
REMARK    1  A    between atoms: C_9  and  S_10
REMARK    2  A    between atoms: S_10  and  N_13
REMARK    3  A    between atoms: C_21  and  C_23
REMARK    4  A    between atoms: C_23  and  C_26
REMARK                            x       y       z     vdW  Elec       q    Type
REMARK                         _______ _______ _______ _____ _____    ______ ____
ROOT
ATOM      1  N   UNL     1       8.740   0.391  24.571  0.00  0.00    +0.000 NA
ATOM      2  C   UNL     1       9.142  -0.638  25.451  0.00  0.00    +0.000 C 
ATOM      3  C   UNL     1       8.051  -1.446  26.052  0.00  0.00    +0.000 C 
ATOM      4  N   UNL     1       6.699  -1.207  25.485  0.00  0.00    +0.000 N 
ATOM      5  C   UNL     1       5.714  -1.893  26.134  0.00  0.00    +0.000 C 
ATOM      6  O   UNL     1       5.553  -1.410  27.337  0.00  0.00    +0.000 OA
ATOM      7  C   UNL     1       6.376   0.150  25.098  0.00  0.00    +0.000 C 
ATOM      8  C   UNL     1       7.616   1.052  25.107  0.00  0.00    +0.000 C 
ENDROOT
BRANCH   1   9
ATOM      9  S   UNL     1       9.906   1.271  23.958  0.00  0.00    +0.000 S 
ATOM     10  O   UNL     1       9.814   2.681  24.285  0.00  0.00    +0.000 OA
ATOM     11  O   UNL     1      11.238   0.763  24.373  0.00  0.00    +0.000 OA
BRANCH   9  17
ATOM     12  C   UNL     1       7.369   1.364  21.386  0.00  0.00    +0.000 A 
ATOM     13  C   UNL     1       7.466  -0.141  21.157  0.00  0.00    +0.000 A 
ATOM     14  C   UNL     1       8.606  -1.054  21.409  0.00  0.00    +0.000 A 
ATOM     15  F   UNL     1       8.276  -1.615  22.596  0.00  0.00    +0.000 F 
ATOM     16  C   UNL     1       9.730  -0.152  21.837  0.00  0.00    +0.000 A 
ATOM     17  C   UNL     1       9.962   1.183  22.154  0.00  0.00    +0.000 A 
ATOM     18  C   UNL     1       8.674   1.950  21.724  0.00  0.00    +0.000 A 
ENDBRANCH   9  17
ENDBRANCH   1   9
BRANCH   5  19
ATOM     19  C   UNL     1       4.537  -2.537  25.650  0.00  0.00    +0.000 C 
BRANCH  19  20
ATOM     20  C   UNL     1       4.591  -3.657  24.663  0.00  0.00    +0.000 A 
ATOM     21  C   UNL     1       5.649  -4.571  25.335  0.00  0.00    +0.000 A 
ATOM     22  C   UNL     1       6.931  -4.979  24.814  0.00  0.00    +0.000 A 
ATOM     23  C   UNL     1       7.042  -4.713  23.351  0.00  0.00    +0.000 A 
ATOM     24  C   UNL     1       5.950  -4.008  22.452  0.00  0.00    +0.000 A 
ATOM     25  C   UNL     1       4.680  -3.673  23.233  0.00  0.00    +0.000 A 
ATOM     26  O   UNL     1       5.930  -4.791  21.299  0.00  0.00    +0.000 OA
ATOM     27  C   UNL     1       6.912  -5.814  21.320  0.00  0.00    +0.000 C 
ATOM     28  O   UNL     1       7.559  -5.803  22.594  0.00  0.00    +0.000 OA
ENDBRANCH  19  20
ENDBRANCH   5  19
TORSDOF 4
ENDMDL
MODEL 4
REMARK VINA RESULT:      -8.1      2.578      6.573
REMARK  Name = 
REMARK  4 active torsions:
REMARK  status: ('A' for Active; 'I' for Inactive)
REMARK    1  A    between atoms: C_9  and  S_10
REMARK    2  A    between atoms: S_10  and  N_13
REMARK    3  A    between atoms: C_21  and  C_23
REMARK    4  A    between atoms: C_23  and  C_26
REMARK                            x       y       z     vdW  Elec       q    Type
REMARK                         _______ _______ _______ _____ _____    ______ ____
ROOT
ATOM      1  N   UNL     1       9.090  -0.596  24.388  0.00  0.00    +0.000 NA
ATOM      2  C   UNL     1       9.891  -1.581  23.769  0.00  0.00    +0.000 C 
ATOM      3  C   UNL     1       9.724  -2.968  24.272  0.00  0.00    +0.000 C 
ATOM      4  N   UNL     1       8.588  -3.172  25.207  0.00  0.00    +0.000 N 
ATOM      5  C   UNL     1       8.534  -4.433  25.724  0.00  0.00    +0.000 C 
ATOM      6  O   UNL     1       9.542  -4.627  26.532  0.00  0.00    +0.000 OA
ATOM      7  C   UNL     1       8.294  -2.096  26.132  0.00  0.00    +0.000 C 
ATOM      8  C   UNL     1       9.066  -0.819  25.780  0.00  0.00    +0.000 C 
ENDROOT
BRANCH   1   9
ATOM      9  S   UNL     1       9.295   0.887  23.869  0.00  0.00    +0.000 S 
ATOM     10  O   UNL     1       9.377   1.875  24.928  0.00  0.00    +0.000 OA
ATOM     11  O   UNL     1      10.502   0.995  23.012  0.00  0.00    +0.000 OA
BRANCH   9  17
ATOM     12  C   UNL     1       6.484  -0.804  22.353  0.00  0.00    +0.000 A 
ATOM     13  C   UNL     1       7.165  -0.831  20.988  0.00  0.00    +0.000 A 
ATOM     14  C   UNL     1       8.203   0.075  20.442  0.00  0.00    +0.000 A 
ATOM     15  F   UNL     1       9.340  -0.638  20.627  0.00  0.00    +0.000 F 
ATOM     16  C   UNL     1       8.374   1.136  21.494  0.00  0.00    +0.000 A 
ATOM     17  C   UNL     1       7.954   1.431  22.787  0.00  0.00    +0.000 A 
ATOM     18  C   UNL     1       6.813   0.416  23.103  0.00  0.00    +0.000 A 
ENDBRANCH   9  17
ENDBRANCH   1   9
BRANCH   5  19
ATOM     19  C   UNL     1       7.430  -5.282  26.027  0.00  0.00    +0.000 C 
BRANCH  19  20
ATOM     20  C   UNL     1       6.042  -4.978  25.566  0.00  0.00    +0.000 A 
ATOM     21  C   UNL     1       5.244  -6.047  26.356  0.00  0.00    +0.000 A 
ATOM     22  C   UNL     1       4.433  -7.120  25.831  0.00  0.00    +0.000 A 
ATOM     23  C   UNL     1       4.127  -6.923  24.386  0.00  0.00    +0.000 A 
ATOM     24  C   UNL     1       4.659  -5.744  23.478  0.00  0.00    +0.000 A 
ATOM     25  C   UNL     1       5.494  -4.735  24.264  0.00  0.00    +0.000 A 
ATOM     26  O   UNL     1       3.533  -5.370  22.746  0.00  0.00    +0.000 OA
ATOM     27  C   UNL     1       2.415  -6.205  23.004  0.00  0.00    +0.000 C 
ATOM     28  O   UNL     1       2.758  -7.123  24.044  0.00  0.00    +0.000 OA
ENDBRANCH  19  20
ENDBRANCH   5  19
TORSDOF 4
ENDMDL
MODEL 5
REMARK VINA RESULT:      -8.0      2.939      6.489
REMARK  Name = 
REMARK  4 active torsions:
REMARK  status: ('A' for Active; 'I' for Inactive)
REMARK    1  A    between atoms: C_9  and  S_10
REMARK    2  A    between atoms: S_10  and  N_13
REMARK    3  A    between atoms: C_21  and  C_23
REMARK    4  A    between atoms: C_23  and  C_26
REMARK                            x       y       z     vdW  Elec       q    Type
REMARK                         _______ _______ _______ _____ _____    ______ ____
ROOT
ATOM      1  N   UNL     1       7.480   1.441  23.994  0.00  0.00    +0.000 NA
ATOM      2  C   UNL     1       6.825   1.807  25.191  0.00  0.00    +0.000 C 
ATOM      3  C   UNL     1       6.140   0.710  25.921  0.00  0.00    +0.000 C 
ATOM      4  N   UNL     1       6.413  -0.658  25.412  0.00  0.00    +0.000 N 
ATOM      5  C   UNL     1       5.685  -1.624  26.044  0.00  0.00    +0.000 C 
ATOM      6  O   UNL     1       4.422  -1.505  25.732  0.00  0.00    +0.000 OA
ATOM      7  C   UNL     1       6.560  -0.812  23.980  0.00  0.00    +0.000 C 
ATOM      8  C   UNL     1       6.668   0.543  23.272  0.00  0.00    +0.000 C 
ENDROOT
BRANCH   1   9
ATOM      9  S   UNL     1       8.182   2.621  23.204  0.00  0.00    +0.000 S 
ATOM     10  O   UNL     1       7.567   2.920  21.925  0.00  0.00    +0.000 OA
ATOM     11  O   UNL     1       8.232   3.861  24.018  0.00  0.00    +0.000 OA
BRANCH   9  17
ATOM     12  C   UNL     1       9.959  -0.337  22.130  0.00  0.00    +0.000 A 
ATOM     13  C   UNL     1      10.513  -0.580  23.531  0.00  0.00    +0.000 A 
ATOM     14  C   UNL     1      10.751   0.391  24.625  0.00  0.00    +0.000 A 
ATOM     15  F   UNL     1       9.662   0.218  25.412  0.00  0.00    +0.000 F 
ATOM     16  C   UNL     1      10.439   1.731  24.019  0.00  0.00    +0.000 A 
ATOM     17  C   UNL     1       9.920   2.276  22.849  0.00  0.00    +0.000 A 
ATOM     18  C   UNL     1       9.844   1.097  21.831  0.00  0.00    +0.000 A 
ENDBRANCH   9  17
ENDBRANCH   1   9
BRANCH   5  19
ATOM     19  C   UNL     1       6.020  -2.953  26.436  0.00  0.00    +0.000 C 
BRANCH  19  20
ATOM     20  C   UNL     1       5.876  -4.116  25.510  0.00  0.00    +0.000 A 
ATOM     21  C   UNL     1       7.367  -4.416  25.205  0.00  0.00    +0.000 A 
ATOM     22  C   UNL     1       8.039  -4.377  23.929  0.00  0.00    +0.000 A 
ATOM     23  C   UNL     1       7.071  -4.346  22.796  0.00  0.00    +0.000 A 
ATOM     24  C   UNL     1       5.497  -4.287  22.924  0.00  0.00    +0.000 A 
ATOM     25  C   UNL     1       5.028  -4.342  24.378  0.00  0.00    +0.000 A 
ATOM     26  O   UNL     1       5.063  -5.203  21.966  0.00  0.00    +0.000 OA
ATOM     27  C   UNL     1       6.132  -5.743  21.208  0.00  0.00    +0.000 C 
ATOM     28  O   UNL     1       7.366  -5.262  21.746  0.00  0.00    +0.000 OA
ENDBRANCH  19  20
ENDBRANCH   5  19
TORSDOF 4
ENDMDL
MODEL 6
REMARK VINA RESULT:      -7.9      2.542      3.134
REMARK  Name = 
REMARK  4 active torsions:
REMARK  status: ('A' for Active; 'I' for Inactive)
REMARK    1  A    between atoms: C_9  and  S_10
REMARK    2  A    between atoms: S_10  and  N_13
REMARK    3  A    between atoms: C_21  and  C_23
REMARK    4  A    between atoms: C_23  and  C_26
REMARK                            x       y       z     vdW  Elec       q    Type
REMARK                         _______ _______ _______ _____ _____    ______ ____
ROOT
ATOM      1  N   UNL     1       6.197  -3.303  23.706  0.00  0.00    +0.000 NA
ATOM      2  C   UNL     1       6.056  -2.252  24.639  0.00  0.00    +0.000 C 
ATOM      3  C   UNL     1       7.150  -1.248  24.660  0.00  0.00    +0.000 C 
ATOM      4  N   UNL     1       8.138  -1.361  23.557  0.00  0.00    +0.000 N 
ATOM      5  C   UNL     1       9.179  -0.488  23.673  0.00  0.00    +0.000 C 
ATOM      6  O   UNL     1       9.926  -0.818  24.692  0.00  0.00    +0.000 OA
ATOM      7  C   UNL     1       8.478  -2.696  23.111  0.00  0.00    +0.000 C 
ATOM      8  C   UNL     1       7.534  -3.750  23.703  0.00  0.00    +0.000 C 
ENDROOT
BRANCH   1   9
ATOM      9  S   UNL     1       5.043  -4.388  23.709  0.00  0.00    +0.000 S 
ATOM     10  O   UNL     1       3.866  -3.993  24.458  0.00  0.00    +0.000 OA
ATOM     11  O   UNL     1       4.639  -4.749  22.327  0.00  0.00    +0.000 OA
BRANCH   9  17
ATOM     12  C   UNL     1       3.276  -7.191  25.153  0.00  0.00    +0.000 A 
ATOM     13  C   UNL     1       3.655  -6.772  26.570  0.00  0.00    +0.000 A 
ATOM     14  C   UNL     1       4.815  -5.973  27.030  0.00  0.00    +0.000 A 
ATOM     15  F   UNL     1       4.277  -4.740  27.192  0.00  0.00    +0.000 F 
ATOM     16  C   UNL     1       5.639  -5.750  25.793  0.00  0.00    +0.000 A 
ATOM     17  C   UNL     1       5.577  -5.962  24.420  0.00  0.00    +0.000 A 
ATOM     18  C   UNL     1       4.344  -6.888  24.190  0.00  0.00    +0.000 A 
ENDBRANCH   9  17
ENDBRANCH   1   9
BRANCH   5  19
ATOM     19  C   UNL     1       9.902   0.254  22.693  0.00  0.00    +0.000 C 
BRANCH  19  20
ATOM     20  C   UNL     1       9.296   0.649  21.387  0.00  0.00    +0.000 A 
ATOM     21  C   UNL     1       8.570   1.956  21.800  0.00  0.00    +0.000 A 
ATOM     22  C   UNL     1       7.157   2.243  21.746  0.00  0.00    +0.000 A 
ATOM     23  C   UNL     1       6.424   1.255  20.905  0.00  0.00    +0.000 A 
ATOM     24  C   UNL     1       7.057  -0.010  20.199  0.00  0.00    +0.000 A 
ATOM     25  C   UNL     1       8.569  -0.095  20.401  0.00  0.00    +0.000 A 
ATOM     26  O   UNL     1       6.474   0.005  18.932  0.00  0.00    +0.000 OA
ATOM     27  C   UNL     1       5.511   1.036  18.790  0.00  0.00    +0.000 C 
ATOM     28  O   UNL     1       5.514   1.835  19.975  0.00  0.00    +0.000 OA
ENDBRANCH  19  20
ENDBRANCH   5  19
TORSDOF 4
ENDMDL
MODEL 7
REMARK VINA RESULT:      -7.9      2.438      3.365
REMARK  Name = 
REMARK  4 active torsions:
REMARK  status: ('A' for Active; 'I' for Inactive)
REMARK    1  A    between atoms: C_9  and  S_10
REMARK    2  A    between atoms: S_10  and  N_13
REMARK    3  A    between atoms: C_21  and  C_23
REMARK    4  A    between atoms: C_23  and  C_26
REMARK                            x       y       z     vdW  Elec       q    Type
REMARK                         _______ _______ _______ _____ _____    ______ ____
ROOT
ATOM      1  N   UNL     1       6.672  -4.506  26.167  0.00  0.00    +0.000 NA
ATOM      2  C   UNL     1       7.225  -3.290  26.627  0.00  0.00    +0.000 C 
ATOM      3  C   UNL     1       8.108  -2.573  25.672  0.00  0.00    +0.000 C 
ATOM      4  N   UNL     1       8.123  -3.117  24.290  0.00  0.00    +0.000 N 
ATOM      5  C   UNL     1       9.023  -2.494  23.475  0.00  0.00    +0.000 C 
ATOM      6  O   UNL     1      10.240  -2.781  23.854  0.00  0.00    +0.000 OA
ATOM      7  C   UNL     1       8.027  -4.554  24.146  0.00  0.00    +0.000 C 
ATOM      8  C   UNL     1       7.657  -5.233  25.470  0.00  0.00    +0.000 C 
ENDROOT
BRANCH   1   9
ATOM      9  S   UNL     1       5.756  -5.282  27.201  0.00  0.00    +0.000 S 
ATOM     10  O   UNL     1       6.315  -6.541  27.653  0.00  0.00    +0.000 OA
ATOM     11  O   UNL     1       5.444  -4.439  28.383  0.00  0.00    +0.000 OA
BRANCH   9  17
ATOM     12  C   UNL     1       4.649  -6.657  24.048  0.00  0.00    +0.000 A 
ATOM     13  C   UNL     1       4.186  -5.291  23.551  0.00  0.00    +0.000 A 
ATOM     14  C   UNL     1       3.761  -4.105  24.332  0.00  0.00    +0.000 A 
ATOM     15  F   UNL     1       4.875  -3.335  24.325  0.00  0.00    +0.000 F 
ATOM     16  C   UNL     1       3.762  -4.571  25.761  0.00  0.00    +0.000 A 
ATOM     17  C   UNL     1       4.129  -5.677  26.521  0.00  0.00    +0.000 A 
ATOM     18  C   UNL     1       4.443  -6.809  25.495  0.00  0.00    +0.000 A 
ENDBRANCH   9  17
ENDBRANCH   1   9
BRANCH   5  19
ATOM     19  C   UNL     1       8.958  -2.138  22.097  0.00  0.00    +0.000 C 
BRANCH  19  20
ATOM     20  C   UNL     1       8.216  -0.932  21.620  0.00  0.00    +0.000 A 
ATOM     21  C   UNL     1       9.401   0.022  21.315  0.00  0.00    +0.000 A 
ATOM     22  C   UNL     1       9.690   1.301  21.917  0.00  0.00    +0.000 A 
ATOM     23  C   UNL     1       8.520   1.834  22.670  0.00  0.00    +0.000 A 
ATOM     24  C   UNL     1       7.137   1.097  22.876  0.00  0.00    +0.000 A 
ATOM     25  C   UNL     1       7.074  -0.240  22.139  0.00  0.00    +0.000 A 
ATOM     26  O   UNL     1       6.201   2.109  22.666  0.00  0.00    +0.000 OA
ATOM     27  C   UNL     1       6.806   3.374  22.454  0.00  0.00    +0.000 C 
ATOM     28  O   UNL     1       8.224   3.202  22.404  0.00  0.00    +0.000 OA
ENDBRANCH  19  20
ENDBRANCH   5  19
TORSDOF 4
ENDMDL
MODEL 8
REMARK VINA RESULT:      -7.8      2.233      4.322
REMARK  Name = 
REMARK  4 active torsions:
REMARK  status: ('A' for Active; 'I' for Inactive)
REMARK    1  A    between atoms: C_9  and  S_10
REMARK    2  A    between atoms: S_10  and  N_13
REMARK    3  A    between atoms: C_21  and  C_23
REMARK    4  A    between atoms: C_23  and  C_26
REMARK                            x       y       z     vdW  Elec       q    Type
REMARK                         _______ _______ _______ _____ _____    ______ ____
ROOT
ATOM      1  N   UNL     1       8.337  -2.815  23.306  0.00  0.00    +0.000 NA
ATOM      2  C   UNL     1       9.473  -2.092  22.879  0.00  0.00    +0.000 C 
ATOM      3  C   UNL     1       9.217  -0.966  21.946  0.00  0.00    +0.000 C 
ATOM      4  N   UNL     1       7.787  -0.614  21.753  0.00  0.00    +0.000 N 
ATOM      5  C   UNL     1       7.592   0.355  20.812  0.00  0.00    +0.000 C 
ATOM      6  O   UNL     1       7.882  -0.111  19.627  0.00  0.00    +0.000 OA
ATOM      7  C   UNL     1       6.835  -1.704  21.745  0.00  0.00    +0.000 C 
ATOM      8  C   UNL     1       7.474  -3.018  22.210  0.00  0.00    +0.000 C 
ENDROOT
BRANCH   1   9
ATOM      9  S   UNL     1       8.619  -4.035  24.276  0.00  0.00    +0.000 S 
ATOM     10  O   UNL     1       8.143  -5.309  23.774  0.00  0.00    +0.000 OA
ATOM     11  O   UNL     1      10.065  -4.149  24.591  0.00  0.00    +0.000 OA
BRANCH   9  17
ATOM     12  C   UNL     1       5.820  -2.076  25.457  0.00  0.00    +0.000 A 
ATOM     13  C   UNL     1       6.742  -1.044  26.099  0.00  0.00    +0.000 A 
ATOM     14  C   UNL     1       8.130  -1.206  26.591  0.00  0.00    +0.000 A 
ATOM     15  F   UNL     1       8.864  -0.702  25.570  0.00  0.00    +0.000 F 
ATOM     16  C   UNL     1       8.421  -2.673  26.435  0.00  0.00    +0.000 A 
ATOM     17  C   UNL     1       7.848  -3.820  25.896  0.00  0.00    +0.000 A 
ATOM     18  C   UNL     1       6.380  -3.432  25.538  0.00  0.00    +0.000 A 
ENDBRANCH   9  17
ENDBRANCH   1   9
BRANCH   5  19
ATOM     19  C   UNL     1       6.671   1.441  20.754  0.00  0.00    +0.000 C 
BRANCH  19  20
ATOM     20  C   UNL     1       6.486   2.390  21.892  0.00  0.00    +0.000 A 
ATOM     21  C   UNL     1       7.922   2.962  22.017  0.00  0.00    +0.000 A 
ATOM     22  C   UNL     1       8.817   2.879  23.145  0.00  0.00    +0.000 A 
ATOM     23  C   UNL     1       8.104   2.464  24.386  0.00  0.00    +0.000 A 
ATOM     24  C   UNL     1       6.574   2.080  24.491  0.00  0.00    +0.000 A 
ATOM     25  C   UNL     1       5.838   2.250  23.163  0.00  0.00    +0.000 A 
ATOM     26  O   UNL     1       6.162   2.721  25.659  0.00  0.00    +0.000 OA
ATOM     27  C   UNL     1       7.232   3.363  26.333  0.00  0.00    +0.000 C 
ATOM     28  O   UNL     1       8.411   3.253  25.532  0.00  0.00    +0.000 OA
ENDBRANCH  19  20
ENDBRANCH   5  19
TORSDOF 4
ENDMDL
MODEL 9
REMARK VINA RESULT:      -7.7      2.801      3.931
REMARK  Name = 
REMARK  4 active torsions:
REMARK  status: ('A' for Active; 'I' for Inactive)
REMARK    1  A    between atoms: C_9  and  S_10
REMARK    2  A    between atoms: S_10  and  N_13
REMARK    3  A    between atoms: C_21  and  C_23
REMARK    4  A    between atoms: C_23  and  C_26
REMARK                            x       y       z     vdW  Elec       q    Type
REMARK                         _______ _______ _______ _____ _____    ______ ____
ROOT
ATOM      1  N   UNL     1       6.964  -3.957  24.408  0.00  0.00    +0.000 NA
ATOM      2  C   UNL     1       7.838  -3.225  25.243  0.00  0.00    +0.000 C 
ATOM      3  C   UNL     1       8.769  -2.295  24.556  0.00  0.00    +0.000 C 
ATOM      4  N   UNL     1       8.516  -2.098  23.106  0.00  0.00    +0.000 N 
ATOM      5  C   UNL     1       9.455  -1.319  22.495  0.00  0.00    +0.000 C 
ATOM      6  O   UNL     1      10.597  -1.951  22.451  0.00  0.00    +0.000 OA
ATOM      7  C   UNL     1       8.062  -3.249  22.354  0.00  0.00    +0.000 C 
ATOM      8  C   UNL     1       7.671  -4.410  23.276  0.00  0.00    +0.000 C 
ENDROOT
BRANCH   1   9
ATOM      9  S   UNL     1       5.994  -4.971  25.144  0.00  0.00    +0.000 S 
ATOM     10  O   UNL     1       6.664  -5.846  26.087  0.00  0.00    +0.000 OA
ATOM     11  O   UNL     1       4.897  -4.256  25.842  0.00  0.00    +0.000 OA
BRANCH   9  17
ATOM     12  C   UNL     1       2.619  -5.038  23.853  0.00  0.00    +0.000 A 
ATOM     13  C   UNL     1       2.236  -6.204  24.761  0.00  0.00    +0.000 A 
ATOM     14  C   UNL     1       3.101  -7.247  25.360  0.00  0.00    +0.000 A 
ATOM     15  F   UNL     1       3.282  -6.788  26.622  0.00  0.00    +0.000 F 
ATOM     16  C   UNL     1       4.464  -6.990  24.779  0.00  0.00    +0.000 A 
ATOM     17  C   UNL     1       5.127  -6.057  23.989  0.00  0.00    +0.000 A 
ATOM     18  C   UNL     1       4.015  -5.133  23.404  0.00  0.00    +0.000 A 
ENDBRANCH   9  17
ENDBRANCH   1   9
BRANCH   5  19
ATOM     19  C   UNL     1       9.342  -0.337  21.468  0.00  0.00    +0.000 C 
BRANCH  19  20
ATOM     20  C   UNL     1       8.777   1.022  21.725  0.00  0.00    +0.000 A 
ATOM     21  C   UNL     1      10.067   1.792  22.112  0.00  0.00    +0.000 A 
ATOM     22  C   UNL     1      10.368   2.448  23.362  0.00  0.00    +0.000 A 
ATOM     23  C   UNL     1       9.148   2.630  24.198  0.00  0.00    +0.000 A 
ATOM     24  C   UNL     1       7.695   2.122  23.841  0.00  0.00    +0.000 A 
ATOM     25  C   UNL     1       7.632   1.461  22.464  0.00  0.00    +0.000 A 
ATOM     26  O   UNL     1       6.884   3.201  24.187  0.00  0.00    +0.000 OA
ATOM     27  C   UNL     1       7.613   4.258  24.789  0.00  0.00    +0.000 C 
ATOM     28  O   UNL     1       9.005   3.936  24.751  0.00  0.00    +0.000 OA
ENDBRANCH  19  20
ENDBRANCH   5  19
TORSDOF 4
ENDMDL
