MODEL 1
REMARK VINA RESULT:      -8.8      0.000      0.000
REMARK  Name = 
REMARK  8 active torsions:
REMARK  status: ('A' for Active; 'I' for Inactive)
REMARK    1  A    between atoms: C_7  and  N_8
REMARK    2  A    between atoms: C_11  and  N_12
REMARK    3  A    between atoms: C_20  and  O_22
REMARK    4  A    between atoms: O_22  and  C_23
REMARK    5  A    between atoms: C_23  and  C_25
REMARK    6  A    between atoms: C_32  and  N_33
REMARK    7  A    between atoms: N_33  and  S_35
REMARK    8  A    between atoms: S_35  and  C_38
REMARK                            x       y       z     vdW  Elec       q    Type
REMARK                         _______ _______ _______ _____ _____    ______ ____
ROOT
ATOM      1  N   UNL     1       7.405  -5.055  25.993  0.00  0.00    +0.000 N 
ATOM      2  C   UNL     1       8.765  -5.498  26.056  0.00  0.00    +0.000 C 
ATOM      3  C   UNL     1       9.676  -4.830  25.039  0.00  0.00    +0.000 C 
ATOM      4  N   UNL     1       8.880  -3.982  24.140  0.00  0.00    +0.000 N 
ATOM      5  C   UNL     1       8.851  -2.657  24.371  0.00  0.00    +0.000 C 
ATOM      6  O   UNL     1       8.301  -2.241  25.369  0.00  0.00    +0.000 OA
ATOM      7  C   UNL     1       7.689  -4.637  23.591  0.00  0.00    +0.000 C 
ATOM      8  C   UNL     1       6.724  -4.971  24.707  0.00  0.00    +0.000 C 
ENDROOT
BRANCH   1  13
ATOM      9  C   UNL     1       4.036  -3.991  27.029  0.00  0.00    +0.000 A 
ATOM     10  C   UNL     1       3.819  -5.455  27.095  0.00  0.00    +0.000 A 
ATOM     11  C   UNL     1       4.783  -6.594  27.343  0.00  0.00    +0.000 A 
ATOM     12  C   UNL     1       6.060  -5.799  27.622  0.00  0.00    +0.000 A 
ATOM     13  C   UNL     1       6.701  -4.615  27.115  0.00  0.00    +0.000 A 
ATOM     14  C   UNL     1       5.509  -3.701  26.828  0.00  0.00    +0.000 A 
BRANCH  12  15
ATOM     15  N   UNL     1       6.340  -6.119  28.720  0.00  0.00    +0.000 N 
ATOM     16  O   UNL     1       6.705  -7.239  29.089  0.00  0.00    +0.000 OA
ATOM     17  O   UNL     1       6.133  -5.494  29.900  0.00  0.00    +0.000 OA
ENDBRANCH  12  15
ENDBRANCH   1  13
BRANCH   5  18
ATOM     18  O   UNL     1      10.004  -2.077  23.973  0.00  0.00    +0.000 OA
BRANCH  18  19
ATOM     19  C   UNL     1       9.728  -0.750  23.779  0.00  0.00    +0.000 C 
ATOM     20  O   UNL     1       9.987   0.041  24.656  0.00  0.00    +0.000 OA
BRANCH  19  21
ATOM     21  C   UNL     1       9.971  -0.434  22.378  0.00  0.00    +0.000 A 
ATOM     22  C   UNL     1      10.108   1.059  22.448  0.00  0.00    +0.000 A 
ATOM     23  C   UNL     1       9.205   2.109  21.915  0.00  0.00    +0.000 A 
ATOM     24  C   UNL     1       8.064   1.345  21.313  0.00  0.00    +0.000 A 
ATOM     25  C   UNL     1       7.773   0.015  20.883  0.00  0.00    +0.000 A 
ATOM     26  C   UNL     1       8.931  -0.846  21.378  0.00  0.00    +0.000 A 
BRANCH  25  27
ATOM     27  N   UNL     1       7.743   0.193  19.496  0.00  0.00    +0.000 N 
ATOM     28  H   UNL     1       7.915   1.112  19.308  0.00  0.00    +0.000 HD
BRANCH  27  29
ATOM     29  S   UNL     1       6.252  -0.231  19.000  0.00  0.00    +0.000 S 
ATOM     30  O   UNL     1       5.733  -1.203  19.927  0.00  0.00    +0.000 OA
ATOM     31  O   UNL     1       6.332  -0.653  17.634  0.00  0.00    +0.000 OA
ATOM     32  C   UNL     1       5.163   1.180  19.076  0.00  0.00    +0.000 C 
ENDBRANCH  27  29
ENDBRANCH  25  27
ENDBRANCH  19  21
ENDBRANCH  18  19
ENDBRANCH   5  18
TORSDOF 7
ENDMDL
MODEL 2
REMARK VINA RESULT:      -8.8      1.910      2.390
REMARK  Name = 
REMARK  8 active torsions:
REMARK  status: ('A' for Active; 'I' for Inactive)
REMARK    1  A    between atoms: C_7  and  N_8
REMARK    2  A    between atoms: C_11  and  N_12
REMARK    3  A    between atoms: C_20  and  O_22
REMARK    4  A    between atoms: O_22  and  C_23
REMARK    5  A    between atoms: C_23  and  C_25
REMARK    6  A    between atoms: C_32  and  N_33
REMARK    7  A    between atoms: N_33  and  S_35
REMARK    8  A    between atoms: S_35  and  C_38
REMARK                            x       y       z     vdW  Elec       q    Type
REMARK                         _______ _______ _______ _____ _____    ______ ____
ROOT
ATOM      1  N   UNL     1       6.258  -4.104  24.687  0.00  0.00    +0.000 N 
ATOM      2  C   UNL     1       6.015  -3.881  23.294  0.00  0.00    +0.000 C 
ATOM      3  C   UNL     1       6.931  -2.841  22.669  0.00  0.00    +0.000 C 
ATOM      4  N   UNL     1       7.759  -2.217  23.712  0.00  0.00    +0.000 N 
ATOM      5  C   UNL     1       9.026  -2.644  23.862  0.00  0.00    +0.000 C 
ATOM      6  O   UNL     1       9.229  -3.769  24.271  0.00  0.00    +0.000 OA
ATOM      7  C   UNL     1       7.010  -1.777  24.892  0.00  0.00    +0.000 C 
ATOM      8  C   UNL     1       6.402  -2.971  25.592  0.00  0.00    +0.000 C 
ENDROOT
BRANCH   1  13
ATOM      9  C   UNL     1       6.527  -5.835  27.925  0.00  0.00    +0.000 A 
ATOM     10  C   UNL     1       5.050  -5.754  27.856  0.00  0.00    +0.000 A 
ATOM     11  C   UNL     1       4.110  -5.686  26.673  0.00  0.00    +0.000 A 
ATOM     12  C   UNL     1       5.117  -5.836  25.532  0.00  0.00    +0.000 A 
ATOM     13  C   UNL     1       6.446  -5.377  25.226  0.00  0.00    +0.000 A 
ATOM     14  C   UNL     1       7.123  -5.419  26.596  0.00  0.00    +0.000 A 
BRANCH  12  15
ATOM     15  N   UNL     1       4.763  -6.819  24.990  0.00  0.00    +0.000 N 
ATOM     16  O   UNL     1       5.090  -7.198  23.862  0.00  0.00    +0.000 OA
ATOM     17  O   UNL     1       3.761  -7.677  25.287  0.00  0.00    +0.000 OA
ENDBRANCH  12  15
ENDBRANCH   1  13
BRANCH   5  18
ATOM     18  O   UNL     1       9.814  -2.157  22.879  0.00  0.00    +0.000 OA
BRANCH  18  19
ATOM     19  C   UNL     1       9.927  -0.810  23.099  0.00  0.00    +0.000 C 
ATOM     20  O   UNL     1      10.580  -0.419  24.039  0.00  0.00    +0.000 OA
BRANCH  19  21
ATOM     21  C   UNL     1       9.981  -0.140  21.807  0.00  0.00    +0.000 A 
ATOM     22  C   UNL     1       9.824   1.292  22.228  0.00  0.00    +0.000 A 
ATOM     23  C   UNL     1       8.688   2.218  21.996  0.00  0.00    +0.000 A 
ATOM     24  C   UNL     1       7.674   1.385  21.270  0.00  0.00    +0.000 A 
ATOM     25  C   UNL     1       7.617   0.157  20.545  0.00  0.00    +0.000 A 
ATOM     26  C   UNL     1       8.961  -0.526  20.776  0.00  0.00    +0.000 A 
BRANCH  25  27
ATOM     27  N   UNL     1       7.434   0.634  19.243  0.00  0.00    +0.000 N 
ATOM     28  H   UNL     1       7.479   1.587  19.264  0.00  0.00    +0.000 HD
BRANCH  27  29
ATOM     29  S   UNL     1       5.961   0.133  18.762  0.00  0.00    +0.000 S 
ATOM     30  O   UNL     1       5.589  -0.998  19.572  0.00  0.00    +0.000 OA
ATOM     31  O   UNL     1       6.000  -0.097  17.350  0.00  0.00    +0.000 OA
ATOM     32  C   UNL     1       4.754   1.408  19.078  0.00  0.00    +0.000 C 
ENDBRANCH  27  29
ENDBRANCH  25  27
ENDBRANCH  19  21
ENDBRANCH  18  19
ENDBRANCH   5  18
TORSDOF 7
ENDMDL
MODEL 3
REMARK VINA RESULT:      -8.0      2.391      3.086
REMARK  Name = 
REMARK  8 active torsions:
REMARK  status: ('A' for Active; 'I' for Inactive)
REMARK    1  A    between atoms: C_7  and  N_8
REMARK    2  A    between atoms: C_11  and  N_12
REMARK    3  A    between atoms: C_20  and  O_22
REMARK    4  A    between atoms: O_22  and  C_23
REMARK    5  A    between atoms: C_23  and  C_25
REMARK    6  A    between atoms: C_32  and  N_33
REMARK    7  A    between atoms: N_33  and  S_35
REMARK    8  A    between atoms: S_35  and  C_38
REMARK                            x       y       z     vdW  Elec       q    Type
REMARK                         _______ _______ _______ _____ _____    ______ ____
ROOT
ATOM      1  N   UNL     1       7.093  -3.460  25.279  0.00  0.00    +0.000 N 
ATOM      2  C   UNL     1       6.518  -2.689  24.218  0.00  0.00    +0.000 C 
ATOM      3  C   UNL     1       7.380  -1.518  23.774  0.00  0.00    +0.000 C 
ATOM      4  N   UNL     1       8.545  -1.393  24.663  0.00  0.00    +0.000 N 
ATOM      5  C   UNL     1       9.724  -1.886  24.243  0.00  0.00    +0.000 C 
ATOM      6  O   UNL     1       9.855  -3.087  24.120  0.00  0.00    +0.000 OA
ATOM      7  C   UNL     1       8.221  -1.437  26.091  0.00  0.00    +0.000 C 
ATOM      8  C   UNL     1       7.648  -2.791  26.448  0.00  0.00    +0.000 C 
ENDROOT
BRANCH   1  13
ATOM      9  C   UNL     1       5.198  -6.547  25.939  0.00  0.00    +0.000 A 
ATOM     10  C   UNL     1       4.636  -6.242  24.603  0.00  0.00    +0.000 A 
ATOM     11  C   UNL     1       5.217  -5.489  23.427  0.00  0.00    +0.000 A 
ATOM     12  C   UNL     1       6.622  -5.211  23.964  0.00  0.00    +0.000 A 
ATOM     13  C   UNL     1       7.222  -4.848  25.220  0.00  0.00    +0.000 A 
ATOM     14  C   UNL     1       6.372  -5.632  26.220  0.00  0.00    +0.000 A 
BRANCH  12  15
ATOM     15  N   UNL     1       7.318  -5.756  23.187  0.00  0.00    +0.000 N 
ATOM     16  O   UNL     1       8.537  -5.928  23.283  0.00  0.00    +0.000 OA
ATOM     17  O   UNL     1       7.088  -6.129  21.908  0.00  0.00    +0.000 OA
ENDBRANCH  12  15
ENDBRANCH   1  13
BRANCH   5  18
ATOM     18  O   UNL     1      10.281  -1.073  23.320  0.00  0.00    +0.000 OA
BRANCH  18  19
ATOM     19  C   UNL     1      10.387   0.163  23.900  0.00  0.00    +0.000 C 
ATOM     20  O   UNL     1      11.213   0.340  24.765  0.00  0.00    +0.000 OA
BRANCH  19  21
ATOM     21  C   UNL     1      10.133   1.169  22.878  0.00  0.00    +0.000 A 
ATOM     22  C   UNL     1       9.340   2.172  23.663  0.00  0.00    +0.000 A 
ATOM     23  C   UNL     1       7.908   2.539  23.540  0.00  0.00    +0.000 A 
ATOM     24  C   UNL     1       7.386   1.635  22.462  0.00  0.00    +0.000 A 
ATOM     25  C   UNL     1       7.897   0.811  21.415  0.00  0.00    +0.000 A 
ATOM     26  C   UNL     1       9.404   0.738  21.639  0.00  0.00    +0.000 A 
BRANCH  25  27
ATOM     27  N   UNL     1       7.520   1.555  20.293  0.00  0.00    +0.000 N 
ATOM     28  H   UNL     1       6.963   2.274  20.583  0.00  0.00    +0.000 HD
BRANCH  27  29
ATOM     29  S   UNL     1       6.699   0.546  19.314  0.00  0.00    +0.000 S 
ATOM     30  O   UNL     1       6.498  -0.694  20.019  0.00  0.00    +0.000 OA
ATOM     31  O   UNL     1       7.403   0.449  18.071  0.00  0.00    +0.000 OA
ATOM     32  C   UNL     1       5.079   1.211  18.976  0.00  0.00    +0.000 C 
ENDBRANCH  27  29
ENDBRANCH  25  27
ENDBRANCH  19  21
ENDBRANCH  18  19
ENDBRANCH   5  18
TORSDOF 7
ENDMDL
MODEL 4
REMARK VINA RESULT:      -7.7      2.393      3.284
REMARK  Name = 
REMARK  8 active torsions:
REMARK  status: ('A' for Active; 'I' for Inactive)
REMARK    1  A    between atoms: C_7  and  N_8
REMARK    2  A    between atoms: C_11  and  N_12
REMARK    3  A    between atoms: C_20  and  O_22
REMARK    4  A    between atoms: O_22  and  C_23
REMARK    5  A    between atoms: C_23  and  C_25
REMARK    6  A    between atoms: C_32  and  N_33
REMARK    7  A    between atoms: N_33  and  S_35
REMARK    8  A    between atoms: S_35  and  C_38
REMARK                            x       y       z     vdW  Elec       q    Type
REMARK                         _______ _______ _______ _____ _____    ______ ____
ROOT
ATOM      1  N   UNL     1       6.153  -4.851  25.568  0.00  0.00    +0.000 N 
ATOM      2  C   UNL     1       5.567  -3.580  25.868  0.00  0.00    +0.000 C 
ATOM      3  C   UNL     1       6.544  -2.418  25.784  0.00  0.00    +0.000 C 
ATOM      4  N   UNL     1       7.902  -2.928  25.546  0.00  0.00    +0.000 N 
ATOM      5  C   UNL     1       8.387  -2.889  24.291  0.00  0.00    +0.000 C 
ATOM      6  O   UNL     1       7.892  -3.601  23.441  0.00  0.00    +0.000 OA
ATOM      7  C   UNL     1       8.298  -4.027  26.430  0.00  0.00    +0.000 C 
ATOM      8  C   UNL     1       7.420  -5.232  26.178  0.00  0.00    +0.000 C 
ENDROOT
BRANCH   1  13
ATOM      9  C   UNL     1       3.230  -7.033  25.073  0.00  0.00    +0.000 A 
ATOM     10  C   UNL     1       2.601  -5.754  24.673  0.00  0.00    +0.000 A 
ATOM     11  C   UNL     1       3.195  -4.492  24.088  0.00  0.00    +0.000 A 
ATOM     12  C   UNL     1       4.646  -4.945  23.913  0.00  0.00    +0.000 A 
ATOM     13  C   UNL     1       5.602  -5.736  24.641  0.00  0.00    +0.000 A 
ATOM     14  C   UNL     1       4.724  -6.842  25.227  0.00  0.00    +0.000 A 
BRANCH  12  15
ATOM     15  N   UNL     1       4.820  -4.846  22.753  0.00  0.00    +0.000 N 
ATOM     16  O   UNL     1       5.105  -5.757  21.971  0.00  0.00    +0.000 OA
ATOM     17  O   UNL     1       5.002  -3.752  21.979  0.00  0.00    +0.000 OA
ENDBRANCH  12  15
ENDBRANCH   1  13
BRANCH   5  18
ATOM     18  O   UNL     1       8.749  -1.632  23.957  0.00  0.00    +0.000 OA
BRANCH  18  19
ATOM     19  C   UNL     1      10.057  -1.694  23.554  0.00  0.00    +0.000 C 
ATOM     20  O   UNL     1      10.618  -2.765  23.538  0.00  0.00    +0.000 OA
BRANCH  19  21
ATOM     21  C   UNL     1      10.253  -0.720  22.490  0.00  0.00    +0.000 A 
ATOM     22  C   UNL     1      10.191   0.561  23.269  0.00  0.00    +0.000 A 
ATOM     23  C   UNL     1       9.156   1.624  23.245  0.00  0.00    +0.000 A 
ATOM     24  C   UNL     1       8.126   1.115  22.282  0.00  0.00    +0.000 A 
ATOM     25  C   UNL     1       8.013   0.130  21.255  0.00  0.00    +0.000 A 
ATOM     26  C   UNL     1       9.275  -0.720  21.352  0.00  0.00    +0.000 A 
BRANCH  25  27
ATOM     27  N   UNL     1       7.958   0.946  20.120  0.00  0.00    +0.000 N 
ATOM     28  H   UNL     1       7.907   1.855  20.406  0.00  0.00    +0.000 HD
BRANCH  27  29
ATOM     29  S   UNL     1       6.616   0.521  19.301  0.00  0.00    +0.000 S 
ATOM     30  O   UNL     1       6.974   0.355  17.915  0.00  0.00    +0.000 OA
ATOM     31  O   UNL     1       5.596   1.488  19.570  0.00  0.00    +0.000 OA
ATOM     32  C   UNL     1       6.034  -1.066  19.871  0.00  0.00    +0.000 C 
ENDBRANCH  27  29
ENDBRANCH  25  27
ENDBRANCH  19  21
ENDBRANCH  18  19
ENDBRANCH   5  18
TORSDOF 7
ENDMDL
MODEL 5
REMARK VINA RESULT:      -7.7      3.244      8.338
REMARK  Name = 
REMARK  8 active torsions:
REMARK  status: ('A' for Active; 'I' for Inactive)
REMARK    1  A    between atoms: C_7  and  N_8
REMARK    2  A    between atoms: C_11  and  N_12
REMARK    3  A    between atoms: C_20  and  O_22
REMARK    4  A    between atoms: O_22  and  C_23
REMARK    5  A    between atoms: C_23  and  C_25
REMARK    6  A    between atoms: C_32  and  N_33
REMARK    7  A    between atoms: N_33  and  S_35
REMARK    8  A    between atoms: S_35  and  C_38
REMARK                            x       y       z     vdW  Elec       q    Type
REMARK                         _______ _______ _______ _____ _____    ______ ____
ROOT
ATOM      1  N   UNL     1       8.434   0.922  23.708  0.00  0.00    +0.000 N 
ATOM      2  C   UNL     1       9.415  -0.008  24.177  0.00  0.00    +0.000 C 
ATOM      3  C   UNL     1       9.014  -1.464  24.003  0.00  0.00    +0.000 C 
ATOM      4  N   UNL     1       7.629  -1.543  23.514  0.00  0.00    +0.000 N 
ATOM      5  C   UNL     1       7.428  -1.759  22.201  0.00  0.00    +0.000 C 
ATOM      6  O   UNL     1       7.739  -0.898  21.403  0.00  0.00    +0.000 OA
ATOM      7  C   UNL     1       6.680  -0.707  24.253  0.00  0.00    +0.000 C 
ATOM      8  C   UNL     1       7.034   0.753  24.077  0.00  0.00    +0.000 C 
ENDROOT
BRANCH   1  13
ATOM      9  C   UNL     1       6.914   3.884  22.136  0.00  0.00    +0.000 A 
ATOM     10  C   UNL     1       7.238   4.490  23.448  0.00  0.00    +0.000 A 
ATOM     11  C   UNL     1       8.312   4.160  24.460  0.00  0.00    +0.000 A 
ATOM     12  C   UNL     1       9.065   3.071  23.693  0.00  0.00    +0.000 A 
ATOM     13  C   UNL     1       8.739   1.965  22.833  0.00  0.00    +0.000 A 
ATOM     14  C   UNL     1       7.560   2.518  22.031  0.00  0.00    +0.000 A 
BRANCH  12  15
ATOM     15  N   UNL     1      10.148   3.519  23.585  0.00  0.00    +0.000 N 
ATOM     16  O   UNL     1      11.202   2.885  23.486  0.00  0.00    +0.000 OA
ATOM     17  O   UNL     1      10.603   4.779  23.773  0.00  0.00    +0.000 OA
ENDBRANCH  12  15
ENDBRANCH   1  13
BRANCH   5  18
ATOM     18  O   UNL     1       7.662  -3.051  21.888  0.00  0.00    +0.000 OA
BRANCH  18  19
ATOM     19  C   UNL     1       6.470  -3.711  22.026  0.00  0.00    +0.000 C 
ATOM     20  O   UNL     1       5.640  -3.617  21.152  0.00  0.00    +0.000 OA
BRANCH  19  21
ATOM     21  C   UNL     1       6.724  -4.978  22.698  0.00  0.00    +0.000 A 
ATOM     22  C   UNL     1       5.442  -5.705  22.418  0.00  0.00    +0.000 A 
ATOM     23  C   UNL     1       4.364  -6.101  23.358  0.00  0.00    +0.000 A 
ATOM     24  C   UNL     1       4.815  -5.564  24.684  0.00  0.00    +0.000 A 
ATOM     25  C   UNL     1       6.013  -5.087  25.296  0.00  0.00    +0.000 A 
ATOM     26  C   UNL     1       7.028  -4.942  24.167  0.00  0.00    +0.000 A 
BRANCH  25  27
ATOM     27  N   UNL     1       6.287  -6.136  26.180  0.00  0.00    +0.000 N 
ATOM     28  H   UNL     1       5.489  -6.647  26.295  0.00  0.00    +0.000 HD
BRANCH  27  29
ATOM     29  S   UNL     1       6.746  -5.456  27.587  0.00  0.00    +0.000 S 
ATOM     30  O   UNL     1       7.931  -4.677  27.339  0.00  0.00    +0.000 OA
ATOM     31  O   UNL     1       6.873  -6.490  28.569  0.00  0.00    +0.000 OA
ATOM     32  C   UNL     1       5.493  -4.317  28.148  0.00  0.00    +0.000 C 
ENDBRANCH  27  29
ENDBRANCH  25  27
ENDBRANCH  19  21
ENDBRANCH  18  19
ENDBRANCH   5  18
TORSDOF 7
ENDMDL
MODEL 6
REMARK VINA RESULT:      -7.5      3.159      8.082
REMARK  Name = 
REMARK  8 active torsions:
REMARK  status: ('A' for Active; 'I' for Inactive)
REMARK    1  A    between atoms: C_7  and  N_8
REMARK    2  A    between atoms: C_11  and  N_12
REMARK    3  A    between atoms: C_20  and  O_22
REMARK    4  A    between atoms: O_22  and  C_23
REMARK    5  A    between atoms: C_23  and  C_25
REMARK    6  A    between atoms: C_32  and  N_33
REMARK    7  A    between atoms: N_33  and  S_35
REMARK    8  A    between atoms: S_35  and  C_38
REMARK                            x       y       z     vdW  Elec       q    Type
REMARK                         _______ _______ _______ _____ _____    ______ ____
ROOT
ATOM      1  N   UNL     1       8.184  -0.348  24.086  0.00  0.00    +0.000 N 
ATOM      2  C   UNL     1       8.767  -1.301  24.981  0.00  0.00    +0.000 C 
ATOM      3  C   UNL     1       8.156  -2.690  24.882  0.00  0.00    +0.000 C 
ATOM      4  N   UNL     1       7.004  -2.662  23.969  0.00  0.00    +0.000 N 
ATOM      5  C   UNL     1       7.178  -3.098  22.709  0.00  0.00    +0.000 C 
ATOM      6  O   UNL     1       7.885  -2.462  21.953  0.00  0.00    +0.000 OA
ATOM      7  C   UNL     1       6.060  -1.571  24.223  0.00  0.00    +0.000 C 
ATOM      8  C   UNL     1       6.734  -0.239  23.980  0.00  0.00    +0.000 C 
ENDROOT
BRANCH   1  13
ATOM      9  C   UNL     1       7.913   2.642  21.955  0.00  0.00    +0.000 A 
ATOM     10  C   UNL     1       8.100   3.330  23.253  0.00  0.00    +0.000 A 
ATOM     11  C   UNL     1       8.798   2.892  24.521  0.00  0.00    +0.000 A 
ATOM     12  C   UNL     1       9.369   1.552  24.054  0.00  0.00    +0.000 A 
ATOM     13  C   UNL     1       8.945   0.450  23.232  0.00  0.00    +0.000 A 
ATOM     14  C   UNL     1       8.167   1.158  22.123  0.00  0.00    +0.000 A 
BRANCH  12  15
ATOM     15  N   UNL     1      10.531   1.697  24.180  0.00  0.00    +0.000 N 
ATOM     16  O   UNL     1      11.205   2.640  23.757  0.00  0.00    +0.000 OA
ATOM     17  O   UNL     1      11.489   0.831  24.579  0.00  0.00    +0.000 OA
ENDBRANCH  12  15
ENDBRANCH   1  13
BRANCH   5  18
ATOM     18  O   UNL     1       7.235  -4.447  22.672  0.00  0.00    +0.000 OA
BRANCH  18  19
ATOM     19  C   UNL     1       6.059  -4.873  22.113  0.00  0.00    +0.000 C 
ATOM     20  O   UNL     1       5.954  -4.898  20.909  0.00  0.00    +0.000 OA
BRANCH  19  21
ATOM     21  C   UNL     1       5.521  -5.942  22.943  0.00  0.00    +0.000 A 
ATOM     22  C   UNL     1       4.099  -5.489  23.095  0.00  0.00    +0.000 A 
ATOM     23  C   UNL     1       3.396  -4.998  24.307  0.00  0.00    +0.000 A 
ATOM     24  C   UNL     1       4.450  -5.004  25.374  0.00  0.00    +0.000 A 
ATOM     25  C   UNL     1       5.737  -5.575  25.605  0.00  0.00    +0.000 A 
ATOM     26  C   UNL     1       6.168  -6.185  24.275  0.00  0.00    +0.000 A 
BRANCH  25  27
ATOM     27  N   UNL     1       5.427  -6.516  26.593  0.00  0.00    +0.000 N 
ATOM     28  H   UNL     1       4.483  -6.508  26.730  0.00  0.00    +0.000 HD
BRANCH  27  29
ATOM     29  S   UNL     1       6.211  -6.055  27.943  0.00  0.00    +0.000 S 
ATOM     30  O   UNL     1       7.455  -5.443  27.550  0.00  0.00    +0.000 OA
ATOM     31  O   UNL     1       6.321  -7.186  28.813  0.00  0.00    +0.000 OA
ATOM     32  C   UNL     1       5.270  -4.799  28.793  0.00  0.00    +0.000 C 
ENDBRANCH  27  29
ENDBRANCH  25  27
ENDBRANCH  19  21
ENDBRANCH  18  19
ENDBRANCH   5  18
TORSDOF 7
ENDMDL
MODEL 7
REMARK VINA RESULT:      -7.4      3.359      8.375
REMARK  Name = 
REMARK  8 active torsions:
REMARK  status: ('A' for Active; 'I' for Inactive)
REMARK    1  A    between atoms: C_7  and  N_8
REMARK    2  A    between atoms: C_11  and  N_12
REMARK    3  A    between atoms: C_20  and  O_22
REMARK    4  A    between atoms: O_22  and  C_23
REMARK    5  A    between atoms: C_23  and  C_25
REMARK    6  A    between atoms: C_32  and  N_33
REMARK    7  A    between atoms: N_33  and  S_35
REMARK    8  A    between atoms: S_35  and  C_38
REMARK                            x       y       z     vdW  Elec       q    Type
REMARK                         _______ _______ _______ _____ _____    ______ ____
ROOT
ATOM      1  N   UNL     1       9.180   1.529  23.347  0.00  0.00    +0.000 N 
ATOM      2  C   UNL     1       9.464   1.005  22.046  0.00  0.00    +0.000 C 
ATOM      3  C   UNL     1      10.050  -0.398  22.063  0.00  0.00    +0.000 C 
ATOM      4  N   UNL     1      10.309  -0.811  23.450  0.00  0.00    +0.000 N 
ATOM      5  C   UNL     1       9.418  -1.621  24.052  0.00  0.00    +0.000 C 
ATOM      6  O   UNL     1       8.309  -1.197  24.308  0.00  0.00    +0.000 OA
ATOM      7  C   UNL     1      11.023   0.185  24.253  0.00  0.00    +0.000 C 
ATOM      8  C   UNL     1      10.175   1.427  24.407  0.00  0.00    +0.000 C 
ENDROOT
BRANCH   1  13
ATOM      9  C   UNL     1       7.508   3.371  26.061  0.00  0.00    +0.000 A 
ATOM     10  C   UNL     1       8.178   4.522  25.413  0.00  0.00    +0.000 A 
ATOM     11  C   UNL     1       8.612   4.745  23.981  0.00  0.00    +0.000 A 
ATOM     12  C   UNL     1       8.061   3.469  23.341  0.00  0.00    +0.000 A 
ATOM     13  C   UNL     1       7.943   2.078  23.687  0.00  0.00    +0.000 A 
ATOM     14  C   UNL     1       7.640   2.144  25.184  0.00  0.00    +0.000 A 
BRANCH  12  15
ATOM     15  N   UNL     1       7.301   3.878  22.540  0.00  0.00    +0.000 N 
ATOM     16  O   UNL     1       6.560   3.207  21.818  0.00  0.00    +0.000 OA
ATOM     17  O   UNL     1       7.170   5.110  21.999  0.00  0.00    +0.000 OA
ENDBRANCH  12  15
ENDBRANCH   1  13
BRANCH   5  18
ATOM     18  O   UNL     1       9.542  -2.887  23.601  0.00  0.00    +0.000 OA
BRANCH  18  19
ATOM     19  C   UNL     1       8.276  -3.332  23.328  0.00  0.00    +0.000 C 
ATOM     20  O   UNL     1       7.744  -2.996  22.295  0.00  0.00    +0.000 OA
BRANCH  19  21
ATOM     21  C   UNL     1       8.149  -4.690  23.839  0.00  0.00    +0.000 A 
ATOM     22  C   UNL     1       7.274  -5.304  22.786  0.00  0.00    +0.000 A 
ATOM     23  C   UNL     1       5.867  -5.766  22.889  0.00  0.00    +0.000 A 
ATOM     24  C   UNL     1       5.472  -5.438  24.298  0.00  0.00    +0.000 A 
ATOM     25  C   UNL     1       6.099  -5.111  25.538  0.00  0.00    +0.000 A 
ATOM     26  C   UNL     1       7.569  -4.868  25.211  0.00  0.00    +0.000 A 
BRANCH  25  27
ATOM     27  N   UNL     1       5.860  -6.282  26.265  0.00  0.00    +0.000 N 
ATOM     28  H   UNL     1       5.022  -6.643  25.984  0.00  0.00    +0.000 HD
BRANCH  27  29
ATOM     29  S   UNL     1       5.811  -5.859  27.836  0.00  0.00    +0.000 S 
ATOM     30  O   UNL     1       5.376  -4.488  27.915  0.00  0.00    +0.000 OA
ATOM     31  O   UNL     1       7.086  -6.142  28.421  0.00  0.00    +0.000 OA
ATOM     32  C   UNL     1       4.586  -6.834  28.690  0.00  0.00    +0.000 C 
ENDBRANCH  27  29
ENDBRANCH  25  27
ENDBRANCH  19  21
ENDBRANCH  18  19
ENDBRANCH   5  18
TORSDOF 7
ENDMDL
MODEL 8
REMARK VINA RESULT:      -7.3      3.307      8.331
REMARK  Name = 
REMARK  8 active torsions:
REMARK  status: ('A' for Active; 'I' for Inactive)
REMARK    1  A    between atoms: C_7  and  N_8
REMARK    2  A    between atoms: C_11  and  N_12
REMARK    3  A    between atoms: C_20  and  O_22
REMARK    4  A    between atoms: O_22  and  C_23
REMARK    5  A    between atoms: C_23  and  C_25
REMARK    6  A    between atoms: C_32  and  N_33
REMARK    7  A    between atoms: N_33  and  S_35
REMARK    8  A    between atoms: S_35  and  C_38
REMARK                            x       y       z     vdW  Elec       q    Type
REMARK                         _______ _______ _______ _____ _____    ______ ____
ROOT
ATOM      1  N   UNL     1       8.754   0.777  23.283  0.00  0.00    +0.000 N 
ATOM      2  C   UNL     1       9.226   0.588  21.945  0.00  0.00    +0.000 C 
ATOM      3  C   UNL     1       9.338  -0.871  21.534  0.00  0.00    +0.000 C 
ATOM      4  N   UNL     1       9.059  -1.736  22.691  0.00  0.00    +0.000 N 
ATOM      5  C   UNL     1       7.836  -2.287  22.794  0.00  0.00    +0.000 C 
ATOM      6  O   UNL     1       6.878  -1.571  23.006  0.00  0.00    +0.000 OA
ATOM      7  C   UNL     1       9.779  -1.363  23.910  0.00  0.00    +0.000 C 
ATOM      8  C   UNL     1       9.331   0.005  24.376  0.00  0.00    +0.000 C 
ENDROOT
BRANCH   1  13
ATOM      9  C   UNL     1       7.700   3.235  25.814  0.00  0.00    +0.000 A 
ATOM     10  C   UNL     1       8.569   4.126  25.011  0.00  0.00    +0.000 A 
ATOM     11  C   UNL     1       8.955   4.087  23.549  0.00  0.00    +0.000 A 
ATOM     12  C   UNL     1       8.097   2.909  23.084  0.00  0.00    +0.000 A 
ATOM     13  C   UNL     1       7.693   1.627  23.597  0.00  0.00    +0.000 A 
ATOM     14  C   UNL     1       7.502   1.922  25.085  0.00  0.00    +0.000 A 
BRANCH  12  15
ATOM     15  N   UNL     1       7.400   3.392  22.267  0.00  0.00    +0.000 N 
ATOM     16  O   UNL     1       7.297   4.593  22.003  0.00  0.00    +0.000 OA
ATOM     17  O   UNL     1       6.370   2.867  21.566  0.00  0.00    +0.000 OA
ENDBRANCH  12  15
ENDBRANCH   1  13
BRANCH   5  18
ATOM     18  O   UNL     1       7.700  -3.317  21.932  0.00  0.00    +0.000 OA
BRANCH  18  19
ATOM     19  C   UNL     1       6.459  -3.852  22.153  0.00  0.00    +0.000 C 
ATOM     20  O   UNL     1       5.595  -3.700  21.321  0.00  0.00    +0.000 OA
BRANCH  19  21
ATOM     21  C   UNL     1       6.627  -5.121  22.848  0.00  0.00    +0.000 A 
ATOM     22  C   UNL     1       5.303  -5.770  22.568  0.00  0.00    +0.000 A 
ATOM     23  C   UNL     1       4.195  -6.081  23.505  0.00  0.00    +0.000 A 
ATOM     24  C   UNL     1       4.668  -5.551  24.826  0.00  0.00    +0.000 A 
ATOM     25  C   UNL     1       5.888  -5.140  25.440  0.00  0.00    +0.000 A 
ATOM     26  C   UNL     1       6.920  -5.079  24.319  0.00  0.00    +0.000 A 
BRANCH  25  27
ATOM     27  N   UNL     1       6.087  -6.189  26.345  0.00  0.00    +0.000 N 
ATOM     28  H   UNL     1       5.264  -6.660  26.443  0.00  0.00    +0.000 HD
BRANCH  27  29
ATOM     29  S   UNL     1       6.539  -5.512  27.756  0.00  0.00    +0.000 S 
ATOM     30  O   UNL     1       7.576  -4.553  27.478  0.00  0.00    +0.000 OA
ATOM     31  O   UNL     1       6.885  -6.558  28.669  0.00  0.00    +0.000 OA
ATOM     32  C   UNL     1       5.174  -4.602  28.456  0.00  0.00    +0.000 C 
ENDBRANCH  27  29
ENDBRANCH  25  27
ENDBRANCH  19  21
ENDBRANCH  18  19
ENDBRANCH   5  18
TORSDOF 7
ENDMDL
MODEL 9
REMARK VINA RESULT:      -7.3      3.112      8.477
REMARK  Name = 
REMARK  8 active torsions:
REMARK  status: ('A' for Active; 'I' for Inactive)
REMARK    1  A    between atoms: C_7  and  N_8
REMARK    2  A    between atoms: C_11  and  N_12
REMARK    3  A    between atoms: C_20  and  O_22
REMARK    4  A    between atoms: O_22  and  C_23
REMARK    5  A    between atoms: C_23  and  C_25
REMARK    6  A    between atoms: C_32  and  N_33
REMARK    7  A    between atoms: N_33  and  S_35
REMARK    8  A    between atoms: S_35  and  C_38
REMARK                            x       y       z     vdW  Elec       q    Type
REMARK                         _______ _______ _______ _____ _____    ______ ____
ROOT
ATOM      1  N   UNL     1       8.777  -0.169  24.597  0.00  0.00    +0.000 N 
ATOM      2  C   UNL     1       9.796  -0.961  23.977  0.00  0.00    +0.000 C 
ATOM      3  C   UNL     1       9.416  -2.422  23.799  0.00  0.00    +0.000 C 
ATOM      4  N   UNL     1       8.123  -2.682  24.450  0.00  0.00    +0.000 N 
ATOM      5  C   UNL     1       7.019  -2.728  23.682  0.00  0.00    +0.000 C 
ATOM      6  O   UNL     1       6.627  -1.712  23.145  0.00  0.00    +0.000 OA
ATOM      7  C   UNL     1       8.021  -2.161  25.816  0.00  0.00    +0.000 C 
ATOM      8  C   UNL     1       8.111  -0.652  25.800  0.00  0.00    +0.000 C 
ENDROOT
BRANCH   1  13
ATOM      9  C   UNL     1       9.899   3.266  23.897  0.00  0.00    +0.000 A 
ATOM     10  C   UNL     1      10.491   2.610  22.708  0.00  0.00    +0.000 A 
ATOM     11  C   UNL     1      10.083   1.367  21.951  0.00  0.00    +0.000 A 
ATOM     12  C   UNL     1       8.794   1.018  22.699  0.00  0.00    +0.000 A 
ATOM     13  C   UNL     1       8.322   1.034  24.057  0.00  0.00    +0.000 A 
ATOM     14  C   UNL     1       8.981   2.296  24.612  0.00  0.00    +0.000 A 
BRANCH  12  15
ATOM     15  N   UNL     1       7.973   1.071  21.856  0.00  0.00    +0.000 N 
ATOM     16  O   UNL     1       8.092   0.695  20.687  0.00  0.00    +0.000 OA
ATOM     17  O   UNL     1       6.799   1.740  21.811  0.00  0.00    +0.000 OA
ENDBRANCH  12  15
ENDBRANCH   1  13
BRANCH   5  18
ATOM     18  O   UNL     1       6.961  -3.890  22.997  0.00  0.00    +0.000 OA
BRANCH  18  19
ATOM     19  C   UNL     1       5.701  -4.393  23.185  0.00  0.00    +0.000 C 
ATOM     20  O   UNL     1       4.844  -4.158  22.364  0.00  0.00    +0.000 OA
BRANCH  19  21
ATOM     21  C   UNL     1       5.821  -5.708  23.799  0.00  0.00    +0.000 A 
ATOM     22  C   UNL     1       4.428  -6.233  23.611  0.00  0.00    +0.000 A 
ATOM     23  C   UNL     1       3.384  -6.506  24.629  0.00  0.00    +0.000 A 
ATOM     24  C   UNL     1       4.013  -6.090  25.925  0.00  0.00    +0.000 A 
ATOM     25  C   UNL     1       5.313  -5.812  26.445  0.00  0.00    +0.000 A 
ATOM     26  C   UNL     1       6.245  -5.771  25.237  0.00  0.00    +0.000 A 
BRANCH  25  27
ATOM     27  N   UNL     1       5.501  -6.922  27.276  0.00  0.00    +0.000 N 
ATOM     28  H   UNL     1       4.695  -7.432  27.282  0.00  0.00    +0.000 HD
BRANCH  27  29
ATOM     29  S   UNL     1       5.833  -6.345  28.762  0.00  0.00    +0.000 S 
ATOM     30  O   UNL     1       6.332  -5.002  28.617  0.00  0.00    +0.000 OA
ATOM     31  O   UNL     1       6.706  -7.267  29.421  0.00  0.00    +0.000 OA
ATOM     32  C   UNL     1       4.331  -6.232  29.718  0.00  0.00    +0.000 C 
ENDBRANCH  27  29
ENDBRANCH  25  27
ENDBRANCH  19  21
ENDBRANCH  18  19
ENDBRANCH   5  18
TORSDOF 7
ENDMDL
