MODEL 1
REMARK VINA RESULT:      -8.7      0.000      0.000
REMARK  Name = 
REMARK  3 active torsions:
REMARK  status: ('A' for Active; 'I' for Inactive)
REMARK    1  A    between atoms: C_7  and  C_8
REMARK    2  A    between atoms: N_10  and  C_12
REMARK    3  A    between atoms: C_33  and  C_35
REMARK                            x       y       z     vdW  Elec       q    Type
REMARK                         _______ _______ _______ _____ _____    ______ ____
ROOT
ATOM      1  C   UNL     1       9.132  -0.280  22.897  0.00  0.00    +0.000 C 
ATOM      2  C   UNL     1       9.338   0.404  24.222  0.00  0.00    +0.000 C 
ATOM      3  C   UNL     1       9.613  -0.578  25.336  0.00  0.00    +0.000 C 
ATOM      4  N   UNL     1       8.694  -1.731  25.115  0.00  0.00    +0.000 N 
ATOM      5  C   UNL     1       8.272  -2.399  26.212  0.00  0.00    +0.000 C 
ATOM      6  O   UNL     1       8.970  -3.270  26.674  0.00  0.00    +0.000 OA
ATOM      7  N   UNL     1       6.942  -2.283  26.458  0.00  0.00    +0.000 N 
ATOM      8  C   UNL     1       6.464  -1.032  27.046  0.00  0.00    +0.000 C 
ATOM      9  C   UNL     1       5.011  -0.793  26.680  0.00  0.00    +0.000 C 
ATOM     10  C   UNL     1       4.188  -2.033  26.704  0.00  0.00    +0.000 C 
ATOM     11  C   UNL     1       4.858  -3.198  27.421  0.00  0.00    +0.000 C 
ATOM     12  C   UNL     1       6.228  -3.498  26.872  0.00  0.00    +0.000 C 
ATOM     13  C   UNL     1       9.154  -2.560  23.973  0.00  0.00    +0.000 C 
ATOM     14  C   UNL     1       9.679  -1.685  22.871  0.00  0.00    +0.000 C 
ENDROOT
BRANCH  11  15
ATOM     15  C   UNL     1       3.946  -4.398  27.253  0.00  0.00    +0.000 C 
ATOM     16  N   UNL     1       4.732  -5.450  26.508  0.00  0.00    +0.000 NA
ATOM     17  C   UNL     1       3.854  -6.261  25.774  0.00  0.00    +0.000 A 
ATOM     18  C   UNL     1       4.832  -6.524  24.617  0.00  0.00    +0.000 A 
ATOM     19  C   UNL     1       4.689  -6.124  23.192  0.00  0.00    +0.000 A 
ATOM     20  C   UNL     1       3.324  -5.536  23.080  0.00  0.00    +0.000 A 
ATOM     21  C   UNL     1       2.201  -5.247  23.889  0.00  0.00    +0.000 A 
ATOM     22  C   UNL     1       2.651  -5.570  25.326  0.00  0.00    +0.000 A 
ATOM     23  S   UNL     1       2.535  -4.010  26.169  0.00  0.00    +0.000 S 
ENDBRANCH  11  15
BRANCH   1  26
ATOM     24  C   UNL     1       7.299  -0.706  21.355  0.00  0.00    +0.000 C 
ATOM     25  O   UNL     1       6.757  -1.712  21.205  0.00  0.00    +0.000 OA
ATOM     26  N   UNL     1       7.734  -0.263  22.541  0.00  0.00    +0.000 N 
ATOM     27  H   UNL     1       7.092   0.270  22.981  0.00  0.00    +0.000 HD
BRANCH  24  31
ATOM     28  C   UNL     1       5.205   0.757  18.447  0.00  0.00    +0.000 A 
ATOM     29  C   UNL     1       6.450  -0.049  18.205  0.00  0.00    +0.000 A 
ATOM     30  C   UNL     1       7.639  -0.141  19.052  0.00  0.00    +0.000 A 
ATOM     31  C   UNL     1       7.348   0.483  20.451  0.00  0.00    +0.000 A 
ATOM     32  C   UNL     1       6.361   1.561  20.683  0.00  0.00    +0.000 A 
ATOM     33  C   UNL     1       5.323   1.734  19.536  0.00  0.00    +0.000 A 
ENDBRANCH  24  31
ENDBRANCH   1  26
TORSDOF 3
ENDMDL
MODEL 2
REMARK VINA RESULT:      -8.6      2.287      3.117
REMARK  Name = 
REMARK  3 active torsions:
REMARK  status: ('A' for Active; 'I' for Inactive)
REMARK    1  A    between atoms: C_7  and  C_8
REMARK    2  A    between atoms: N_10  and  C_12
REMARK    3  A    between atoms: C_33  and  C_35
REMARK                            x       y       z     vdW  Elec       q    Type
REMARK                         _______ _______ _______ _____ _____    ______ ____
ROOT
ATOM      1  C   UNL     1       8.787   0.919  21.565  0.00  0.00    +0.000 C 
ATOM      2  C   UNL     1       9.778   1.182  22.667  0.00  0.00    +0.000 C 
ATOM      3  C   UNL     1      10.452  -0.082  23.145  0.00  0.00    +0.000 C 
ATOM      4  N   UNL     1       9.391  -1.130  23.195  0.00  0.00    +0.000 N 
ATOM      5  C   UNL     1       9.528  -2.098  24.129  0.00  0.00    +0.000 C 
ATOM      6  O   UNL     1      10.219  -3.057  23.882  0.00  0.00    +0.000 OA
ATOM      7  N   UNL     1       8.577  -2.076  25.097  0.00  0.00    +0.000 N 
ATOM      8  C   UNL     1       8.693  -1.061  26.144  0.00  0.00    +0.000 C 
ATOM      9  C   UNL     1       7.330  -0.742  26.729  0.00  0.00    +0.000 C 
ATOM     10  C   UNL     1       6.468  -1.945  26.897  0.00  0.00    +0.000 C 
ATOM     11  C   UNL     1       7.226  -3.261  26.794  0.00  0.00    +0.000 C 
ATOM     12  C   UNL     1       8.019  -3.368  25.518  0.00  0.00    +0.000 C 
ATOM     13  C   UNL     1       9.028  -1.577  21.827  0.00  0.00    +0.000 C 
ATOM     14  C   UNL     1       9.006  -0.408  20.884  0.00  0.00    +0.000 C 
ENDROOT
BRANCH  11  15
ATOM     15  C   UNL     1       6.193  -4.369  26.870  0.00  0.00    +0.000 C 
ATOM     16  N   UNL     1       6.463  -5.305  25.717  0.00  0.00    +0.000 NA
ATOM     17  C   UNL     1       5.269  -5.930  25.331  0.00  0.00    +0.000 A 
ATOM     18  C   UNL     1       5.633  -6.027  23.840  0.00  0.00    +0.000 A 
ATOM     19  C   UNL     1       4.954  -5.373  22.690  0.00  0.00    +0.000 A 
ATOM     20  C   UNL     1       3.747  -4.712  23.265  0.00  0.00    +0.000 A 
ATOM     21  C   UNL     1       3.111  -4.522  24.512  0.00  0.00    +0.000 A 
ATOM     22  C   UNL     1       4.080  -5.117  25.551  0.00  0.00    +0.000 A 
ATOM     23  S   UNL     1       4.514  -3.728  26.572  0.00  0.00    +0.000 S 
ENDBRANCH  11  15
BRANCH   1  26
ATOM     24  C   UNL     1       6.700   2.124  21.894  0.00  0.00    +0.000 C 
ATOM     25  O   UNL     1       5.832   2.199  21.139  0.00  0.00    +0.000 OA
ATOM     26  N   UNL     1       7.440   1.023  22.071  0.00  0.00    +0.000 N 
ATOM     27  H   UNL     1       7.095   0.465  22.750  0.00  0.00    +0.000 HD
BRANCH  24  31
ATOM     28  C   UNL     1       5.214   5.281  23.570  0.00  0.00    +0.000 A 
ATOM     29  C   UNL     1       6.385   5.354  22.632  0.00  0.00    +0.000 A 
ATOM     30  C   UNL     1       7.424   4.348  22.413  0.00  0.00    +0.000 A 
ATOM     31  C   UNL     1       7.006   2.996  23.068  0.00  0.00    +0.000 A 
ATOM     32  C   UNL     1       6.119   2.892  24.248  0.00  0.00    +0.000 A 
ATOM     33  C   UNL     1       5.280   4.173  24.531  0.00  0.00    +0.000 A 
ENDBRANCH  24  31
ENDBRANCH   1  26
TORSDOF 3
ENDMDL
MODEL 3
REMARK VINA RESULT:      -8.3      2.371      3.746
REMARK  Name = 
REMARK  3 active torsions:
REMARK  status: ('A' for Active; 'I' for Inactive)
REMARK    1  A    between atoms: C_7  and  C_8
REMARK    2  A    between atoms: N_10  and  C_12
REMARK    3  A    between atoms: C_33  and  C_35
REMARK                            x       y       z     vdW  Elec       q    Type
REMARK                         _______ _______ _______ _____ _____    ______ ____
ROOT
ATOM      1  C   UNL     1       8.175   1.015  21.129  0.00  0.00    +0.000 C 
ATOM      2  C   UNL     1       9.480   0.416  21.580  0.00  0.00    +0.000 C 
ATOM      3  C   UNL     1       9.432  -1.093  21.624  0.00  0.00    +0.000 C 
ATOM      4  N   UNL     1       8.098  -1.454  22.185  0.00  0.00    +0.000 N 
ATOM      5  C   UNL     1       8.022  -2.599  22.900  0.00  0.00    +0.000 C 
ATOM      6  O   UNL     1       7.866  -3.646  22.319  0.00  0.00    +0.000 OA
ATOM      7  N   UNL     1       7.752  -2.416  24.218  0.00  0.00    +0.000 N 
ATOM      8  C   UNL     1       8.839  -1.958  25.081  0.00  0.00    +0.000 C 
ATOM      9  C   UNL     1       8.289  -1.215  26.284  0.00  0.00    +0.000 C 
ATOM     10  C   UNL     1       7.056  -1.835  26.842  0.00  0.00    +0.000 C 
ATOM     11  C   UNL     1       6.802  -3.251  26.342  0.00  0.00    +0.000 C 
ATOM     12  C   UNL     1       6.786  -3.333  24.838  0.00  0.00    +0.000 C 
ATOM     13  C   UNL     1       7.027  -1.229  21.182  0.00  0.00    +0.000 C 
ATOM     14  C   UNL     1       7.296   0.027  20.405  0.00  0.00    +0.000 C 
ENDROOT
BRANCH  11  15
ATOM     15  C   UNL     1       5.464  -3.682  26.909  0.00  0.00    +0.000 C 
ATOM     16  N   UNL     1       5.437  -5.191  26.884  0.00  0.00    +0.000 NA
ATOM     17  C   UNL     1       4.113  -5.635  26.764  0.00  0.00    +0.000 A 
ATOM     18  C   UNL     1       4.455  -6.891  25.946  0.00  0.00    +0.000 A 
ATOM     19  C   UNL     1       4.049  -7.212  24.552  0.00  0.00    +0.000 A 
ATOM     20  C   UNL     1       3.112  -6.123  24.152  0.00  0.00    +0.000 A 
ATOM     21  C   UNL     1       2.547  -4.937  24.673  0.00  0.00    +0.000 A 
ATOM     22  C   UNL     1       3.249  -4.722  26.027  0.00  0.00    +0.000 A 
ATOM     23  S   UNL     1       4.091  -3.168  25.828  0.00  0.00    +0.000 S 
ENDBRANCH  11  15
BRANCH   1  26
ATOM     24  C   UNL     1       6.839   2.768  22.156  0.00  0.00    +0.000 C 
ATOM     25  O   UNL     1       5.691   2.868  22.104  0.00  0.00    +0.000 OA
ATOM     26  N   UNL     1       7.482   1.598  22.251  0.00  0.00    +0.000 N 
ATOM     27  H   UNL     1       7.640   1.348  23.148  0.00  0.00    +0.000 HD
BRANCH  24  31
ATOM     28  C   UNL     1       7.452   5.368  24.958  0.00  0.00    +0.000 A 
ATOM     29  C   UNL     1       6.836   5.747  23.640  0.00  0.00    +0.000 A 
ATOM     30  C   UNL     1       7.079   5.145  22.330  0.00  0.00    +0.000 A 
ATOM     31  C   UNL     1       7.860   3.805  22.493  0.00  0.00    +0.000 A 
ATOM     32  C   UNL     1       8.782   3.521  23.615  0.00  0.00    +0.000 A 
ATOM     33  C   UNL     1       8.595   4.455  24.847  0.00  0.00    +0.000 A 
ENDBRANCH  24  31
ENDBRANCH   1  26
TORSDOF 3
ENDMDL
MODEL 4
REMARK VINA RESULT:      -8.1      2.998      7.632
REMARK  Name = 
REMARK  3 active torsions:
REMARK  status: ('A' for Active; 'I' for Inactive)
REMARK    1  A    between atoms: C_7  and  C_8
REMARK    2  A    between atoms: N_10  and  C_12
REMARK    3  A    between atoms: C_33  and  C_35
REMARK                            x       y       z     vdW  Elec       q    Type
REMARK                         _______ _______ _______ _____ _____    ______ ____
ROOT
ATOM      1  C   UNL     1       7.591  -4.100  25.287  0.00  0.00    +0.000 C 
ATOM      2  C   UNL     1       8.631  -4.320  24.221  0.00  0.00    +0.000 C 
ATOM      3  C   UNL     1       9.705  -3.259  24.242  0.00  0.00    +0.000 C 
ATOM      4  N   UNL     1       9.010  -1.963  24.489  0.00  0.00    +0.000 N 
ATOM      5  C   UNL     1       9.566  -0.854  23.950  0.00  0.00    +0.000 C 
ATOM      6  O   UNL     1      10.452  -0.292  24.548  0.00  0.00    +0.000 OA
ATOM      7  N   UNL     1       8.819  -0.273  22.978  0.00  0.00    +0.000 N 
ATOM      8  C   UNL     1       8.808  -0.900  21.658  0.00  0.00    +0.000 C 
ATOM      9  C   UNL     1       7.525  -0.568  20.920  0.00  0.00    +0.000 C 
ATOM     10  C   UNL     1       7.080   0.838  21.120  0.00  0.00    +0.000 C 
ATOM     11  C   UNL     1       8.154   1.742  21.709  0.00  0.00    +0.000 C 
ATOM     12  C   UNL     1       8.727   1.194  22.990  0.00  0.00    +0.000 C 
ATOM     13  C   UNL     1       8.572  -1.862  25.904  0.00  0.00    +0.000 C 
ATOM     14  C   UNL     1       8.066  -3.189  26.390  0.00  0.00    +0.000 C 
ENDROOT
BRANCH  11  15
ATOM     15  C   UNL     1       7.506   3.091  21.955  0.00  0.00    +0.000 C 
ATOM     16  N   UNL     1       8.261   3.746  23.086  0.00  0.00    +0.000 NA
ATOM     17  C   UNL     1       7.407   4.615  23.779  0.00  0.00    +0.000 A 
ATOM     18  C   UNL     1       8.063   4.398  25.153  0.00  0.00    +0.000 A 
ATOM     19  C   UNL     1       7.455   3.803  26.372  0.00  0.00    +0.000 A 
ATOM     20  C   UNL     1       6.018   3.587  26.033  0.00  0.00    +0.000 A 
ATOM     21  C   UNL     1       5.126   3.756  24.951  0.00  0.00    +0.000 A 
ATOM     22  C   UNL     1       6.009   4.200  23.770  0.00  0.00    +0.000 A 
ATOM     23  S   UNL     1       5.803   2.903  22.572  0.00  0.00    +0.000 S 
ENDBRANCH  11  15
BRANCH   1  26
ATOM     24  C   UNL     1       5.169  -4.055  25.075  0.00  0.00    +0.000 C 
ATOM     25  O   UNL     1       4.439  -3.456  25.738  0.00  0.00    +0.000 OA
ATOM     26  N   UNL     1       6.371  -3.606  24.697  0.00  0.00    +0.000 N 
ATOM     27  H   UNL     1       6.341  -3.152  23.870  0.00  0.00    +0.000 HD
BRANCH  24  31
ATOM     28  C   UNL     1       2.277  -6.555  24.470  0.00  0.00    +0.000 A 
ATOM     29  C   UNL     1       3.460  -6.899  25.329  0.00  0.00    +0.000 A 
ATOM     30  C   UNL     1       4.837  -6.424  25.194  0.00  0.00    +0.000 A 
ATOM     31  C   UNL     1       4.894  -5.229  24.194  0.00  0.00    +0.000 A 
ATOM     32  C   UNL     1       3.938  -5.041  23.080  0.00  0.00    +0.000 A 
ATOM     33  C   UNL     1       2.620  -5.858  23.225  0.00  0.00    +0.000 A 
ENDBRANCH  24  31
ENDBRANCH   1  26
TORSDOF 3
ENDMDL
MODEL 5
REMARK VINA RESULT:      -8.0      2.421      3.651
REMARK  Name = 
REMARK  3 active torsions:
REMARK  status: ('A' for Active; 'I' for Inactive)
REMARK    1  A    between atoms: C_7  and  C_8
REMARK    2  A    between atoms: N_10  and  C_12
REMARK    3  A    between atoms: C_33  and  C_35
REMARK                            x       y       z     vdW  Elec       q    Type
REMARK                         _______ _______ _______ _____ _____    ______ ____
ROOT
ATOM      1  C   UNL     1       8.106   0.320  22.619  0.00  0.00    +0.000 C 
ATOM      2  C   UNL     1       9.370  -0.498  22.634  0.00  0.00    +0.000 C 
ATOM      3  C   UNL     1       9.150  -1.900  22.116  0.00  0.00    +0.000 C 
ATOM      4  N   UNL     1       7.843  -2.353  22.673  0.00  0.00    +0.000 N 
ATOM      5  C   UNL     1       7.703  -3.677  22.911  0.00  0.00    +0.000 C 
ATOM      6  O   UNL     1       7.370  -4.404  22.006  0.00  0.00    +0.000 OA
ATOM      7  N   UNL     1       7.583  -3.997  24.225  0.00  0.00    +0.000 N 
ATOM      8  C   UNL     1       8.795  -3.986  25.043  0.00  0.00    +0.000 C 
ATOM      9  C   UNL     1       8.453  -3.727  26.498  0.00  0.00    +0.000 C 
ATOM     10  C   UNL     1       7.216  -4.425  26.943  0.00  0.00    +0.000 C 
ATOM     11  C   UNL     1       6.751  -5.516  25.988  0.00  0.00    +0.000 C 
ATOM     12  C   UNL     1       6.581  -5.011  24.579  0.00  0.00    +0.000 C 
ATOM     13  C   UNL     1       6.715  -1.683  21.981  0.00  0.00    +0.000 C 
ATOM     14  C   UNL     1       7.052  -0.246  21.701  0.00  0.00    +0.000 C 
ENDROOT
BRANCH  11  15
ATOM     15  C   UNL     1       5.432  -6.037  26.526  0.00  0.00    +0.000 C 
ATOM     16  N   UNL     1       4.825  -6.902  25.448  0.00  0.00    +0.000 NA
ATOM     17  C   UNL     1       3.428  -6.885  25.565  0.00  0.00    +0.000 A 
ATOM     18  C   UNL     1       3.155  -7.022  24.057  0.00  0.00    +0.000 A 
ATOM     19  C   UNL     1       2.487  -6.045  23.158  0.00  0.00    +0.000 A 
ATOM     20  C   UNL     1       1.998  -4.955  24.050  0.00  0.00    +0.000 A 
ATOM     21  C   UNL     1       2.002  -4.592  25.416  0.00  0.00    +0.000 A 
ATOM     22  C   UNL     1       2.896  -5.640  26.105  0.00  0.00    +0.000 A 
ATOM     23  S   UNL     1       4.238  -4.683  26.771  0.00  0.00    +0.000 S 
ENDBRANCH  11  15
BRANCH   1  26
ATOM     24  C   UNL     1       6.360   0.925  24.200  0.00  0.00    +0.000 C 
ATOM     25  O   UNL     1       5.485   0.254  24.537  0.00  0.00    +0.000 OA
ATOM     26  N   UNL     1       7.597   0.473  23.960  0.00  0.00    +0.000 N 
ATOM     27  H   UNL     1       8.149   0.516  24.724  0.00  0.00    +0.000 HD
BRANCH  24  31
ATOM     28  C   UNL     1       9.064   3.593  23.456  0.00  0.00    +0.000 A 
ATOM     29  C   UNL     1       8.815   3.077  24.845  0.00  0.00    +0.000 A 
ATOM     30  C   UNL     1       7.553   2.609  25.417  0.00  0.00    +0.000 A 
ATOM     31  C   UNL     1       6.496   2.411  24.287  0.00  0.00    +0.000 A 
ATOM     32  C   UNL     1       6.492   3.175  23.020  0.00  0.00    +0.000 A 
ATOM     33  C   UNL     1       7.844   3.873  22.691  0.00  0.00    +0.000 A 
ENDBRANCH  24  31
ENDBRANCH   1  26
TORSDOF 3
ENDMDL
MODEL 6
REMARK VINA RESULT:      -7.7      3.563      6.725
REMARK  Name = 
REMARK  3 active torsions:
REMARK  status: ('A' for Active; 'I' for Inactive)
REMARK    1  A    between atoms: C_7  and  C_8
REMARK    2  A    between atoms: N_10  and  C_12
REMARK    3  A    between atoms: C_33  and  C_35
REMARK                            x       y       z     vdW  Elec       q    Type
REMARK                         _______ _______ _______ _____ _____    ______ ____
ROOT
ATOM      1  C   UNL     1       9.142  -1.855  22.341  0.00  0.00    +0.000 C 
ATOM      2  C   UNL     1       8.731  -0.863  21.286  0.00  0.00    +0.000 C 
ATOM      3  C   UNL     1       9.391   0.482  21.478  0.00  0.00    +0.000 C 
ATOM      4  N   UNL     1       9.375   0.752  22.945  0.00  0.00    +0.000 N 
ATOM      5  C   UNL     1       9.297   2.046  23.331  0.00  0.00    +0.000 C 
ATOM      6  O   UNL     1      10.310   2.700  23.400  0.00  0.00    +0.000 OA
ATOM      7  N   UNL     1       8.141   2.370  23.963  0.00  0.00    +0.000 N 
ATOM      8  C   UNL     1       6.943   2.551  23.144  0.00  0.00    +0.000 C 
ATOM      9  C   UNL     1       5.694   2.272  23.959  0.00  0.00    +0.000 C 
ATOM     10  C   UNL     1       5.774   2.792  25.352  0.00  0.00    +0.000 C 
ATOM     11  C   UNL     1       6.907   3.786  25.570  0.00  0.00    +0.000 C 
ATOM     12  C   UNL     1       8.243   3.235  25.146  0.00  0.00    +0.000 C 
ATOM     13  C   UNL     1      10.378  -0.088  23.646  0.00  0.00    +0.000 C 
ATOM     14  C   UNL     1      10.415  -1.465  23.049  0.00  0.00    +0.000 C 
ENDROOT
BRANCH  11  15
ATOM     15  C   UNL     1       6.918   4.120  27.049  0.00  0.00    +0.000 C 
ATOM     16  N   UNL     1       7.302   2.859  27.785  0.00  0.00    +0.000 NA
ATOM     17  C   UNL     1       6.736   2.874  29.068  0.00  0.00    +0.000 A 
ATOM     18  C   UNL     1       6.537   1.352  29.156  0.00  0.00    +0.000 A 
ATOM     19  C   UNL     1       5.257   0.603  29.260  0.00  0.00    +0.000 A 
ATOM     20  C   UNL     1       4.199   1.644  29.410  0.00  0.00    +0.000 A 
ATOM     21  C   UNL     1       4.066   3.050  29.459  0.00  0.00    +0.000 A 
ATOM     22  C   UNL     1       5.472   3.596  29.147  0.00  0.00    +0.000 A 
ATOM     23  S   UNL     1       5.246   4.524  27.648  0.00  0.00    +0.000 S 
ENDBRANCH  11  15
BRANCH   1  26
ATOM     24  C   UNL     1       7.643  -3.278  23.622  0.00  0.00    +0.000 C 
ATOM     25  O   UNL     1       7.880  -3.782  24.631  0.00  0.00    +0.000 OA
ATOM     26  N   UNL     1       8.068  -2.055  23.282  0.00  0.00    +0.000 N 
ATOM     27  H   UNL     1       7.447  -1.383  23.512  0.00  0.00    +0.000 HD
BRANCH  24  31
ATOM     28  C   UNL     1       4.918  -5.989  23.161  0.00  0.00    +0.000 A 
ATOM     29  C   UNL     1       6.242  -6.061  22.454  0.00  0.00    +0.000 A 
ATOM     30  C   UNL     1       7.081  -4.952  22.003  0.00  0.00    +0.000 A 
ATOM     31  C   UNL     1       6.579  -3.614  22.628  0.00  0.00    +0.000 A 
ATOM     32  C   UNL     1       5.174  -3.363  23.016  0.00  0.00    +0.000 A 
ATOM     33  C   UNL     1       4.314  -4.652  23.171  0.00  0.00    +0.000 A 
ENDBRANCH  24  31
ENDBRANCH   1  26
TORSDOF 3
ENDMDL
MODEL 7
REMARK VINA RESULT:      -7.6      2.708      5.157
REMARK  Name = 
REMARK  3 active torsions:
REMARK  status: ('A' for Active; 'I' for Inactive)
REMARK    1  A    between atoms: C_7  and  C_8
REMARK    2  A    between atoms: N_10  and  C_12
REMARK    3  A    between atoms: C_33  and  C_35
REMARK                            x       y       z     vdW  Elec       q    Type
REMARK                         _______ _______ _______ _____ _____    ______ ____
ROOT
ATOM      1  C   UNL     1       7.343  -3.469  22.305  0.00  0.00    +0.000 C 
ATOM      2  C   UNL     1       7.646  -4.906  22.636  0.00  0.00    +0.000 C 
ATOM      3  C   UNL     1       6.393  -5.723  22.844  0.00  0.00    +0.000 C 
ATOM      4  N   UNL     1       5.453  -4.858  23.615  0.00  0.00    +0.000 N 
ATOM      5  C   UNL     1       4.591  -5.481  24.450  0.00  0.00    +0.000 C 
ATOM      6  O   UNL     1       3.554  -5.913  24.008  0.00  0.00    +0.000 OA
ATOM      7  N   UNL     1       4.806  -5.224  25.766  0.00  0.00    +0.000 N 
ATOM      8  C   UNL     1       5.921  -5.906  26.421  0.00  0.00    +0.000 C 
ATOM      9  C   UNL     1       6.422  -5.096  27.602  0.00  0.00    +0.000 C 
ATOM     10  C   UNL     1       5.326  -4.461  28.384  0.00  0.00    +0.000 C 
ATOM     11  C   UNL     1       3.946  -5.026  28.074  0.00  0.00    +0.000 C 
ATOM     12  C   UNL     1       3.625  -4.981  26.604  0.00  0.00    +0.000 C 
ATOM     13  C   UNL     1       4.883  -3.796  22.748  0.00  0.00    +0.000 C 
ATOM     14  C   UNL     1       5.933  -3.266  21.814  0.00  0.00    +0.000 C 
ENDROOT
BRANCH  11  15
ATOM     15  C   UNL     1       2.947  -4.198  28.860  0.00  0.00    +0.000 C 
ATOM     16  N   UNL     1       2.554  -3.033  27.986  0.00  0.00    +0.000 NA
ATOM     17  C   UNL     1       2.191  -1.944  28.791  0.00  0.00    +0.000 A 
ATOM     18  C   UNL     1       2.697  -0.868  27.816  0.00  0.00    +0.000 A 
ATOM     19  C   UNL     1       3.791   0.116  28.030  0.00  0.00    +0.000 A 
ATOM     20  C   UNL     1       4.207  -0.057  29.452  0.00  0.00    +0.000 A 
ATOM     21  C   UNL     1       3.897  -0.849  30.580  0.00  0.00    +0.000 A 
ATOM     22  C   UNL     1       2.891  -1.896  30.069  0.00  0.00    +0.000 A 
ATOM     23  S   UNL     1       3.721  -3.447  30.328  0.00  0.00    +0.000 S 
ENDBRANCH  11  15
BRANCH   1  26
ATOM     24  C   UNL     1       7.787  -1.306  23.323  0.00  0.00    +0.000 C 
ATOM     25  O   UNL     1       6.997  -0.528  23.639  0.00  0.00    +0.000 OA
ATOM     26  N   UNL     1       7.621  -2.628  23.443  0.00  0.00    +0.000 N 
ATOM     27  H   UNL     1       7.947  -2.957  24.265  0.00  0.00    +0.000 HD
BRANCH  24  31
ATOM     28  C   UNL     1      10.280   1.644  23.058  0.00  0.00    +0.000 A 
ATOM     29  C   UNL     1       9.687   0.991  21.842  0.00  0.00    +0.000 A 
ATOM     30  C   UNL     1       9.280  -0.405  21.680  0.00  0.00    +0.000 A 
ATOM     31  C   UNL     1       9.247  -1.116  23.068  0.00  0.00    +0.000 A 
ATOM     32  C   UNL     1      10.098  -0.726  24.213  0.00  0.00    +0.000 A 
ATOM     33  C   UNL     1      10.710   0.701  24.098  0.00  0.00    +0.000 A 
ENDBRANCH  24  31
ENDBRANCH   1  26
TORSDOF 3
ENDMDL
MODEL 8
REMARK VINA RESULT:      -7.6      2.662      4.716
REMARK  Name = 
REMARK  3 active torsions:
REMARK  status: ('A' for Active; 'I' for Inactive)
REMARK    1  A    between atoms: C_7  and  C_8
REMARK    2  A    between atoms: N_10  and  C_12
REMARK    3  A    between atoms: C_33  and  C_35
REMARK                            x       y       z     vdW  Elec       q    Type
REMARK                         _______ _______ _______ _____ _____    ______ ____
ROOT
ATOM      1  C   UNL     1       8.335   0.987  21.271  0.00  0.00    +0.000 C 
ATOM      2  C   UNL     1       9.566   0.246  21.721  0.00  0.00    +0.000 C 
ATOM      3  C   UNL     1       9.391  -1.252  21.650  0.00  0.00    +0.000 C 
ATOM      4  N   UNL     1       8.009  -1.536  22.135  0.00  0.00    +0.000 N 
ATOM      5  C   UNL     1       7.808  -2.719  22.759  0.00  0.00    +0.000 C 
ATOM      6  O   UNL     1       7.589  -3.703  22.095  0.00  0.00    +0.000 OA
ATOM      7  N   UNL     1       7.500  -2.608  24.076  0.00  0.00    +0.000 N 
ATOM      8  C   UNL     1       8.585  -2.309  25.009  0.00  0.00    +0.000 C 
ATOM      9  C   UNL     1       8.050  -1.610  26.244  0.00  0.00    +0.000 C 
ATOM     10  C   UNL     1       6.747  -2.160  26.711  0.00  0.00    +0.000 C 
ATOM     11  C   UNL     1       6.397  -3.509  26.097  0.00  0.00    +0.000 C 
ATOM     12  C   UNL     1       6.436  -3.481  24.592  0.00  0.00    +0.000 C 
ATOM     13  C   UNL     1       7.003  -1.148  21.115  0.00  0.00    +0.000 C 
ATOM     14  C   UNL     1       7.407   0.133  20.444  0.00  0.00    +0.000 C 
ENDROOT
BRANCH  11  15
ATOM     15  C   UNL     1       5.005  -3.863  26.583  0.00  0.00    +0.000 C 
ATOM     16  N   UNL     1       4.183  -2.598  26.532  0.00  0.00    +0.000 NA
ATOM     17  C   UNL     1       3.174  -2.654  27.505  0.00  0.00    +0.000 A 
ATOM     18  C   UNL     1       3.163  -1.143  27.788  0.00  0.00    +0.000 A 
ATOM     19  C   UNL     1       3.508  -0.449  29.057  0.00  0.00    +0.000 A 
ATOM     20  C   UNL     1       3.732  -1.535  30.055  0.00  0.00    +0.000 A 
ATOM     21  C   UNL     1       3.731  -2.946  30.135  0.00  0.00    +0.000 A 
ATOM     22  C   UNL     1       3.537  -3.428  28.685  0.00  0.00    +0.000 A 
ATOM     23  S   UNL     1       5.021  -4.344  28.339  0.00  0.00    +0.000 S 
ENDBRANCH  11  15
BRANCH   1  26
ATOM     24  C   UNL     1       6.963   2.693  22.330  0.00  0.00    +0.000 C 
ATOM     25  O   UNL     1       5.811   2.753  22.302  0.00  0.00    +0.000 OA
ATOM     26  N   UNL     1       7.647   1.545  22.409  0.00  0.00    +0.000 N 
ATOM     27  H   UNL     1       7.834   1.300  23.301  0.00  0.00    +0.000 HD
BRANCH  24  31
ATOM     28  C   UNL     1       7.441   5.442  25.013  0.00  0.00    +0.000 A 
ATOM     29  C   UNL     1       6.863   5.742  23.659  0.00  0.00    +0.000 A 
ATOM     30  C   UNL     1       7.158   5.079  22.389  0.00  0.00    +0.000 A 
ATOM     31  C   UNL     1       7.955   3.764  22.645  0.00  0.00    +0.000 A 
ATOM     32  C   UNL     1       8.844   3.553  23.810  0.00  0.00    +0.000 A 
ATOM     33  C   UNL     1       8.601   4.545  24.986  0.00  0.00    +0.000 A 
ENDBRANCH  24  31
ENDBRANCH   1  26
TORSDOF 3
ENDMDL
MODEL 9
REMARK VINA RESULT:      -7.5      2.648      4.340
REMARK  Name = 
REMARK  3 active torsions:
REMARK  status: ('A' for Active; 'I' for Inactive)
REMARK    1  A    between atoms: C_7  and  C_8
REMARK    2  A    between atoms: N_10  and  C_12
REMARK    3  A    between atoms: C_33  and  C_35
REMARK                            x       y       z     vdW  Elec       q    Type
REMARK                         _______ _______ _______ _____ _____    ______ ____
ROOT
ATOM      1  C   UNL     1       8.169   0.340  22.602  0.00  0.00    +0.000 C 
ATOM      2  C   UNL     1       9.436  -0.473  22.590  0.00  0.00    +0.000 C 
ATOM      3  C   UNL     1       9.214  -1.871  22.062  0.00  0.00    +0.000 C 
ATOM      4  N   UNL     1       7.917  -2.335  22.635  0.00  0.00    +0.000 N 
ATOM      5  C   UNL     1       7.786  -3.661  22.862  0.00  0.00    +0.000 C 
ATOM      6  O   UNL     1       7.442  -4.381  21.955  0.00  0.00    +0.000 OA
ATOM      7  N   UNL     1       7.688  -3.995  24.174  0.00  0.00    +0.000 N 
ATOM      8  C   UNL     1       8.912  -3.987  24.974  0.00  0.00    +0.000 C 
ATOM      9  C   UNL     1       8.591  -3.743  26.436  0.00  0.00    +0.000 C 
ATOM     10  C   UNL     1       7.363  -4.450  26.893  0.00  0.00    +0.000 C 
ATOM     11  C   UNL     1       6.889  -5.534  25.935  0.00  0.00    +0.000 C 
ATOM     12  C   UNL     1       6.696  -5.016  24.534  0.00  0.00    +0.000 C 
ATOM     13  C   UNL     1       6.776  -1.662  21.966  0.00  0.00    +0.000 C 
ATOM     14  C   UNL     1       7.103  -0.222  21.695  0.00  0.00    +0.000 C 
ENDROOT
BRANCH  11  15
ATOM     15  C   UNL     1       5.580  -6.065  26.487  0.00  0.00    +0.000 C 
ATOM     16  N   UNL     1       4.578  -4.939  26.411  0.00  0.00    +0.000 NA
ATOM     17  C   UNL     1       3.619  -5.095  27.422  0.00  0.00    +0.000 A 
ATOM     18  C   UNL     1       3.391  -3.590  27.639  0.00  0.00    +0.000 A 
ATOM     19  C   UNL     1       3.667  -2.791  28.862  0.00  0.00    +0.000 A 
ATOM     20  C   UNL     1       4.080  -3.782  29.898  0.00  0.00    +0.000 A 
ATOM     21  C   UNL     1       4.291  -5.172  30.040  0.00  0.00    +0.000 A 
ATOM     22  C   UNL     1       4.128  -5.749  28.621  0.00  0.00    +0.000 A 
ATOM     23  S   UNL     1       5.720  -6.452  28.262  0.00  0.00    +0.000 S 
ENDBRANCH  11  15
BRANCH   1  26
ATOM     24  C   UNL     1       6.442   0.916  24.215  0.00  0.00    +0.000 C 
ATOM     25  O   UNL     1       5.579   0.234  24.561  0.00  0.00    +0.000 OA
ATOM     26  N   UNL     1       7.679   0.478  23.952  0.00  0.00    +0.000 N 
ATOM     27  H   UNL     1       8.243   0.520  24.708  0.00  0.00    +0.000 HD
BRANCH  24  31
ATOM     28  C   UNL     1       9.084   3.622  23.386  0.00  0.00    +0.000 A 
ATOM     29  C   UNL     1       8.899   3.089  24.779  0.00  0.00    +0.000 A 
ATOM     30  C   UNL     1       7.667   2.602  25.398  0.00  0.00    +0.000 A 
ATOM     31  C   UNL     1       6.566   2.402  24.311  0.00  0.00    +0.000 A 
ATOM     32  C   UNL     1       6.500   3.179  23.053  0.00  0.00    +0.000 A 
ATOM     33  C   UNL     1       7.830   3.895  22.675  0.00  0.00    +0.000 A 
ENDBRANCH  24  31
ENDBRANCH   1  26
TORSDOF 3
ENDMDL
