MODEL 1
REMARK VINA RESULT:      -8.6      0.000      0.000
REMARK  Name = 
REMARK  5 active torsions:
REMARK  status: ('A' for Active; 'I' for Inactive)
REMARK    1  A    between atoms: N_5  and  S_7
REMARK    2  A    between atoms: S_7  and  C_10
REMARK    3  A    between atoms: C_15  and  S_16
REMARK    4  A    between atoms: S_16  and  C_19
REMARK    5  A    between atoms: N_28  and  C_29
REMARK                            x       y       z     vdW  Elec       q    Type
REMARK                         _______ _______ _______ _____ _____    ______ ____
ROOT
ATOM      1  C   UNL     1       8.543   0.706  21.235  0.00  0.00    +0.000 A 
ATOM      2  C   UNL     1       7.225   0.039  21.042  0.00  0.00    +0.000 A 
ATOM      3  C   UNL     1       6.916  -1.331  21.418  0.00  0.00    +0.000 A 
ATOM      4  C   UNL     1       8.079  -2.034  22.122  0.00  0.00    +0.000 A 
ATOM      5  C   UNL     1       9.481  -1.642  22.004  0.00  0.00    +0.000 A 
ATOM      6  C   UNL     1       9.680  -0.184  21.456  0.00  0.00    +0.000 A 
ENDROOT
BRANCH   1   7
ATOM      7  S   UNL     1       8.235   1.950  22.469  0.00  0.00    +0.000 S 
ATOM      8  O   UNL     1       7.962   1.375  23.739  0.00  0.00    +0.000 OA
ATOM      9  O   UNL     1       7.115   2.747  21.946  0.00  0.00    +0.000 OA
BRANCH   7  13
ATOM     10  C   UNL     1       9.219   5.315  24.594  0.00  0.00    +0.000 A 
ATOM     11  N   UNL     1       9.057   3.806  24.401  0.00  0.00    +0.000 NA
ATOM     12  C   UNL     1       9.995   3.300  23.747  0.00  0.00    +0.000 A 
ATOM     13  N   UNL     1       9.560   2.859  22.516  0.00  0.00    +0.000 N 
ATOM     14  H   UNL     1       9.315   3.754  22.106  0.00  0.00    +0.000 HD
ATOM     15  C   UNL     1      11.295   3.801  23.489  0.00  0.00    +0.000 A 
ATOM     16  C   UNL     1      11.702   5.181  23.410  0.00  0.00    +0.000 A 
ATOM     17  C   UNL     1      10.314   5.772  23.807  0.00  0.00    +0.000 A 
ENDBRANCH   7  13
ENDBRANCH   1   7
BRANCH   4  18
ATOM     18  S   UNL     1       7.452  -2.410  23.742  0.00  0.00    +0.000 S 
ATOM     19  O   UNL     1       6.091  -1.951  23.861  0.00  0.00    +0.000 OA
ATOM     20  O   UNL     1       8.310  -1.692  24.713  0.00  0.00    +0.000 OA
BRANCH  18  21
ATOM     21  C   UNL     1       7.676  -4.099  24.162  0.00  0.00    +0.000 A 
ATOM     22  C   UNL     1       7.481  -4.799  22.830  0.00  0.00    +0.000 A 
ATOM     23  C   UNL     1       6.450  -5.796  22.545  0.00  0.00    +0.000 A 
ATOM     24  C   UNL     1       5.517  -5.935  23.583  0.00  0.00    +0.000 A 
ATOM     25  C   UNL     1       5.651  -5.440  25.106  0.00  0.00    +0.000 A 
ATOM     26  C   UNL     1       6.918  -4.658  25.279  0.00  0.00    +0.000 A 
ATOM     27  N   UNL     1       5.301  -6.440  25.867  0.00  0.00    +0.000 N 
ATOM     28  C   UNL     1       5.519  -6.037  27.043  0.00  0.00    +0.000 C 
ATOM     29  C   UNL     1       4.158  -6.865  25.290  0.00  0.00    +0.000 C 
ATOM     30  C   UNL     1       3.416  -5.944  24.439  0.00  0.00    +0.000 C 
ATOM     31  C   UNL     1       3.991  -5.440  23.186  0.00  0.00    +0.000 C 
ENDBRANCH  18  21
ENDBRANCH   4  18
TORSDOF 4
ENDMDL
MODEL 2
REMARK VINA RESULT:      -8.4      2.161      8.438
REMARK  Name = 
REMARK  5 active torsions:
REMARK  status: ('A' for Active; 'I' for Inactive)
REMARK    1  A    between atoms: N_5  and  S_7
REMARK    2  A    between atoms: S_7  and  C_10
REMARK    3  A    between atoms: C_15  and  S_16
REMARK    4  A    between atoms: S_16  and  C_19
REMARK    5  A    between atoms: N_28  and  C_29
REMARK                            x       y       z     vdW  Elec       q    Type
REMARK                         _______ _______ _______ _____ _____    ______ ____
ROOT
ATOM      1  C   UNL     1       8.600  -3.631  26.360  0.00  0.00    +0.000 A 
ATOM      2  C   UNL     1       8.267  -2.182  26.438  0.00  0.00    +0.000 A 
ATOM      3  C   UNL     1       8.268  -1.259  25.314  0.00  0.00    +0.000 A 
ATOM      4  C   UNL     1       8.580  -1.944  23.981  0.00  0.00    +0.000 A 
ATOM      5  C   UNL     1       9.291  -3.212  23.843  0.00  0.00    +0.000 A 
ATOM      6  C   UNL     1       9.335  -4.052  25.169  0.00  0.00    +0.000 A 
ENDROOT
BRANCH   1   7
ATOM      7  S   UNL     1       7.062  -4.459  26.699  0.00  0.00    +0.000 S 
ATOM      8  O   UNL     1       6.241  -3.703  27.577  0.00  0.00    +0.000 OA
ATOM      9  O   UNL     1       7.440  -5.769  27.249  0.00  0.00    +0.000 OA
BRANCH   7  13
ATOM     10  C   UNL     1       4.133  -7.018  25.401  0.00  0.00    +0.000 A 
ATOM     11  N   UNL     1       4.652  -5.747  26.077  0.00  0.00    +0.000 NA
ATOM     12  C   UNL     1       4.987  -4.865  25.255  0.00  0.00    +0.000 A 
ATOM     13  N   UNL     1       6.350  -4.665  25.272  0.00  0.00    +0.000 N 
ATOM     14  H   UNL     1       6.647  -5.571  24.926  0.00  0.00    +0.000 HD
ATOM     15  C   UNL     1       4.639  -4.719  23.890  0.00  0.00    +0.000 A 
ATOM     16  C   UNL     1       4.299  -5.761  22.955  0.00  0.00    +0.000 A 
ATOM     17  C   UNL     1       4.350  -6.921  23.997  0.00  0.00    +0.000 A 
ENDBRANCH   7  13
ENDBRANCH   1   7
BRANCH   4  18
ATOM     18  S   UNL     1       7.113  -1.700  23.006  0.00  0.00    +0.000 S 
ATOM     19  O   UNL     1       5.956  -1.651  23.864  0.00  0.00    +0.000 OA
ATOM     20  O   UNL     1       7.009  -2.858  22.089  0.00  0.00    +0.000 OA
BRANCH  18  21
ATOM     21  C   UNL     1       7.258  -0.327  21.924  0.00  0.00    +0.000 A 
ATOM     22  C   UNL     1       8.697  -0.427  21.454  0.00  0.00    +0.000 A 
ATOM     23  C   UNL     1       9.722   0.596  21.658  0.00  0.00    +0.000 A 
ATOM     24  C   UNL     1       9.302   1.639  22.497  0.00  0.00    +0.000 A 
ATOM     25  C   UNL     1       7.800   2.016  22.928  0.00  0.00    +0.000 A 
ATOM     26  C   UNL     1       6.844   0.993  22.395  0.00  0.00    +0.000 A 
ATOM     27  N   UNL     1       7.664   3.301  22.759  0.00  0.00    +0.000 N 
ATOM     28  C   UNL     1       6.449   3.529  23.013  0.00  0.00    +0.000 C 
ATOM     29  C   UNL     1       8.781   3.796  23.333  0.00  0.00    +0.000 C 
ATOM     30  C   UNL     1       9.484   2.983  24.315  0.00  0.00    +0.000 C 
ATOM     31  C   UNL     1      10.110   1.709  23.937  0.00  0.00    +0.000 C 
ENDBRANCH  18  21
ENDBRANCH   4  18
TORSDOF 4
ENDMDL
MODEL 3
REMARK VINA RESULT:      -8.4      2.298      3.380
REMARK  Name = 
REMARK  5 active torsions:
REMARK  status: ('A' for Active; 'I' for Inactive)
REMARK    1  A    between atoms: N_5  and  S_7
REMARK    2  A    between atoms: S_7  and  C_10
REMARK    3  A    between atoms: C_15  and  S_16
REMARK    4  A    between atoms: S_16  and  C_19
REMARK    5  A    between atoms: N_28  and  C_29
REMARK                            x       y       z     vdW  Elec       q    Type
REMARK                         _______ _______ _______ _____ _____    ______ ____
ROOT
ATOM      1  C   UNL     1       8.315   0.459  25.656  0.00  0.00    +0.000 A 
ATOM      2  C   UNL     1       8.888  -0.756  26.297  0.00  0.00    +0.000 A 
ATOM      3  C   UNL     1       8.414  -2.115  26.092  0.00  0.00    +0.000 A 
ATOM      4  C   UNL     1       7.280  -2.203  25.067  0.00  0.00    +0.000 A 
ATOM      5  C   UNL     1       6.403  -1.095  24.701  0.00  0.00    +0.000 A 
ATOM      6  C   UNL     1       6.971   0.313  25.102  0.00  0.00    +0.000 A 
ENDROOT
BRANCH   1   7
ATOM      7  S   UNL     1       9.591   1.024  24.552  0.00  0.00    +0.000 S 
ATOM      8  O   UNL     1      10.882   0.633  24.997  0.00  0.00    +0.000 OA
ATOM      9  O   UNL     1       9.425   2.483  24.480  0.00  0.00    +0.000 OA
BRANCH   7  13
ATOM     10  C   UNL     1       6.914   2.035  21.616  0.00  0.00    +0.000 A 
ATOM     11  N   UNL     1       8.244   2.143  22.365  0.00  0.00    +0.000 NA
ATOM     12  C   UNL     1       9.046   1.233  22.059  0.00  0.00    +0.000 A 
ATOM     13  N   UNL     1       9.250   0.378  23.120  0.00  0.00    +0.000 N 
ATOM     14  H   UNL     1       8.317  -0.012  23.190  0.00  0.00    +0.000 HD
ATOM     15  C   UNL     1       9.063   0.382  20.927  0.00  0.00    +0.000 A 
ATOM     16  C   UNL     1       7.937  -0.056  20.143  0.00  0.00    +0.000 A 
ATOM     17  C   UNL     1       6.879   0.803  20.903  0.00  0.00    +0.000 A 
ENDBRANCH   7  13
ENDBRANCH   1   7
BRANCH   4  18
ATOM     18  S   UNL     1       7.945  -3.208  23.760  0.00  0.00    +0.000 S 
ATOM     19  O   UNL     1       9.303  -2.817  23.481  0.00  0.00    +0.000 OA
ATOM     20  O   UNL     1       7.101  -2.973  22.565  0.00  0.00    +0.000 OA
BRANCH  18  21
ATOM     21  C   UNL     1       7.746  -4.922  24.076  0.00  0.00    +0.000 A 
ATOM     22  C   UNL     1       7.343  -5.465  22.718  0.00  0.00    +0.000 A 
ATOM     23  C   UNL     1       6.085  -6.151  22.425  0.00  0.00    +0.000 A 
ATOM     24  C   UNL     1       5.178  -6.118  23.493  0.00  0.00    +0.000 A 
ATOM     25  C   UNL     1       5.476  -5.771  25.034  0.00  0.00    +0.000 A 
ATOM     26  C   UNL     1       6.904  -5.344  25.193  0.00  0.00    +0.000 A 
ATOM     27  N   UNL     1       4.908  -6.698  25.753  0.00  0.00    +0.000 N 
ATOM     28  C   UNL     1       5.253  -6.438  26.939  0.00  0.00    +0.000 C 
ATOM     29  C   UNL     1       3.678  -6.785  25.205  0.00  0.00    +0.000 C 
ATOM     30  C   UNL     1       3.169  -5.655  24.440  0.00  0.00    +0.000 C 
ATOM     31  C   UNL     1       3.816  -5.232  23.191  0.00  0.00    +0.000 C 
ENDBRANCH  18  21
ENDBRANCH   4  18
TORSDOF 4
ENDMDL
MODEL 4
REMARK VINA RESULT:      -8.3      2.068      2.742
REMARK  Name = 
REMARK  5 active torsions:
REMARK  status: ('A' for Active; 'I' for Inactive)
REMARK    1  A    between atoms: N_5  and  S_7
REMARK    2  A    between atoms: S_7  and  C_10
REMARK    3  A    between atoms: C_15  and  S_16
REMARK    4  A    between atoms: S_16  and  C_19
REMARK    5  A    between atoms: N_28  and  C_29
REMARK                            x       y       z     vdW  Elec       q    Type
REMARK                         _______ _______ _______ _____ _____    ______ ____
ROOT
ATOM      1  C   UNL     1       8.256   1.492  21.272  0.00  0.00    +0.000 A 
ATOM      2  C   UNL     1       7.159   0.953  20.422  0.00  0.00    +0.000 A 
ATOM      3  C   UNL     1       6.897  -0.458  20.187  0.00  0.00    +0.000 A 
ATOM      4  C   UNL     1       7.833  -1.378  20.974  0.00  0.00    +0.000 A 
ATOM      5  C   UNL     1       9.142  -0.988  21.490  0.00  0.00    +0.000 A 
ATOM      6  C   UNL     1       9.348   0.567  21.565  0.00  0.00    +0.000 A 
ENDROOT
BRANCH   1   7
ATOM      7  S   UNL     1       7.421   2.228  22.660  0.00  0.00    +0.000 S 
ATOM      8  O   UNL     1       6.081   2.577  22.343  0.00  0.00    +0.000 OA
ATOM      9  O   UNL     1       8.244   3.387  23.038  0.00  0.00    +0.000 OA
BRANCH   7  13
ATOM     10  C   UNL     1      10.495   0.708  24.908  0.00  0.00    +0.000 A 
ATOM     11  N   UNL     1       9.422   1.743  24.561  0.00  0.00    +0.000 NA
ATOM     12  C   UNL     1       8.278   1.391  24.923  0.00  0.00    +0.000 A 
ATOM     13  N   UNL     1       7.472   1.132  23.835  0.00  0.00    +0.000 N 
ATOM     14  H   UNL     1       7.964   0.327  23.463  0.00  0.00    +0.000 HD
ATOM     15  C   UNL     1       7.887   0.417  25.875  0.00  0.00    +0.000 A 
ATOM     16  C   UNL     1       8.605  -0.772  26.258  0.00  0.00    +0.000 A 
ATOM     17  C   UNL     1       9.865  -0.475  25.388  0.00  0.00    +0.000 A 
ENDBRANCH   7  13
ENDBRANCH   1   7
BRANCH   4  18
ATOM     18  S   UNL     1       6.752  -2.291  22.050  0.00  0.00    +0.000 S 
ATOM     19  O   UNL     1       5.544  -2.645  21.347  0.00  0.00    +0.000 OA
ATOM     20  O   UNL     1       6.426  -1.403  23.189  0.00  0.00    +0.000 OA
BRANCH  18  21
ATOM     21  C   UNL     1       7.563  -3.652  22.805  0.00  0.00    +0.000 A 
ATOM     22  C   UNL     1       7.045  -4.831  22.003  0.00  0.00    +0.000 A 
ATOM     23  C   UNL     1       6.290  -5.956  22.554  0.00  0.00    +0.000 A 
ATOM     24  C   UNL     1       5.924  -5.771  23.895  0.00  0.00    +0.000 A 
ATOM     25  C   UNL     1       6.520  -4.711  24.945  0.00  0.00    +0.000 A 
ATOM     26  C   UNL     1       7.493  -3.802  24.256  0.00  0.00    +0.000 A 
ATOM     27  N   UNL     1       6.783  -5.363  26.042  0.00  0.00    +0.000 N 
ATOM     28  C   UNL     1       7.337  -4.514  26.794  0.00  0.00    +0.000 C 
ATOM     29  C   UNL     1       5.661  -6.090  26.230  0.00  0.00    +0.000 C 
ATOM     30  C   UNL     1       4.426  -5.652  25.594  0.00  0.00    +0.000 C 
ATOM     31  C   UNL     1       4.295  -5.623  24.132  0.00  0.00    +0.000 C 
ENDBRANCH  18  21
ENDBRANCH   4  18
TORSDOF 4
ENDMDL
MODEL 5
REMARK VINA RESULT:      -8.3      2.396      4.291
REMARK  Name = 
REMARK  5 active torsions:
REMARK  status: ('A' for Active; 'I' for Inactive)
REMARK    1  A    between atoms: N_5  and  S_7
REMARK    2  A    between atoms: S_7  and  C_10
REMARK    3  A    between atoms: C_15  and  S_16
REMARK    4  A    between atoms: S_16  and  C_19
REMARK    5  A    between atoms: N_28  and  C_29
REMARK                            x       y       z     vdW  Elec       q    Type
REMARK                         _______ _______ _______ _____ _____    ______ ____
ROOT
ATOM      1  C   UNL     1       9.655   1.225  22.695  0.00  0.00    +0.000 A 
ATOM      2  C   UNL     1      10.014  -0.026  21.971  0.00  0.00    +0.000 A 
ATOM      3  C   UNL     1      10.342  -1.294  22.602  0.00  0.00    +0.000 A 
ATOM      4  C   UNL     1      10.213  -1.253  24.127  0.00  0.00    +0.000 A 
ATOM      5  C   UNL     1      10.268  -0.038  24.934  0.00  0.00    +0.000 A 
ATOM      6  C   UNL     1      10.032   1.275  24.105  0.00  0.00    +0.000 A 
ENDROOT
BRANCH   1   7
ATOM      7  S   UNL     1       7.940   1.490  22.303  0.00  0.00    +0.000 S 
ATOM      8  O   UNL     1       7.683   2.843  21.954  0.00  0.00    +0.000 OA
ATOM      9  O   UNL     1       7.198   1.052  23.495  0.00  0.00    +0.000 OA
BRANCH   7  13
ATOM     10  C   UNL     1       5.030   1.521  19.415  0.00  0.00    +0.000 A 
ATOM     11  N   UNL     1       6.371   1.935  20.025  0.00  0.00    +0.000 NA
ATOM     12  C   UNL     1       7.259   1.067  19.872  0.00  0.00    +0.000 A 
ATOM     13  N   UNL     1       7.611   0.502  21.078  0.00  0.00    +0.000 N 
ATOM     14  H   UNL     1       6.734   0.043  21.300  0.00  0.00    +0.000 HD
ATOM     15  C   UNL     1       7.323  -0.014  18.958  0.00  0.00    +0.000 A 
ATOM     16  C   UNL     1       6.221  -0.733  18.373  0.00  0.00    +0.000 A 
ATOM     17  C   UNL     1       5.107   0.162  18.998  0.00  0.00    +0.000 A 
ENDBRANCH   7  13
ENDBRANCH   1   7
BRANCH   4  18
ATOM     18  S   UNL     1       8.942  -2.440  24.494  0.00  0.00    +0.000 S 
ATOM     19  O   UNL     1       8.489  -2.271  25.851  0.00  0.00    +0.000 OA
ATOM     20  O   UNL     1       9.546  -3.783  24.330  0.00  0.00    +0.000 OA
BRANCH  18  21
ATOM     21  C   UNL     1       7.653  -2.419  23.304  0.00  0.00    +0.000 A 
ATOM     22  C   UNL     1       6.476  -1.888  24.101  0.00  0.00    +0.000 A 
ATOM     23  C   UNL     1       5.221  -2.604  24.327  0.00  0.00    +0.000 A 
ATOM     24  C   UNL     1       5.255  -3.932  23.877  0.00  0.00    +0.000 A 
ATOM     25  C   UNL     1       6.307  -4.606  22.865  0.00  0.00    +0.000 A 
ATOM     26  C   UNL     1       7.387  -3.625  22.524  0.00  0.00    +0.000 A 
ATOM     27  N   UNL     1       5.617  -5.268  21.979  0.00  0.00    +0.000 N 
ATOM     28  C   UNL     1       6.475  -5.692  21.157  0.00  0.00    +0.000 C 
ATOM     29  C   UNL     1       4.732  -5.946  22.740  0.00  0.00    +0.000 C 
ATOM     30  C   UNL     1       5.043  -6.174  24.144  0.00  0.00    +0.000 C 
ATOM     31  C   UNL     1       5.162  -5.054  25.086  0.00  0.00    +0.000 C 
ENDBRANCH  18  21
ENDBRANCH   4  18
TORSDOF 4
ENDMDL
MODEL 6
REMARK VINA RESULT:      -8.0      2.196      8.380
REMARK  Name = 
REMARK  5 active torsions:
REMARK  status: ('A' for Active; 'I' for Inactive)
REMARK    1  A    between atoms: N_5  and  S_7
REMARK    2  A    between atoms: S_7  and  C_10
REMARK    3  A    between atoms: C_15  and  S_16
REMARK    4  A    between atoms: S_16  and  C_19
REMARK    5  A    between atoms: N_28  and  C_29
REMARK                            x       y       z     vdW  Elec       q    Type
REMARK                         _______ _______ _______ _____ _____    ______ ____
ROOT
ATOM      1  C   UNL     1       9.171  -3.601  25.367  0.00  0.00    +0.000 A 
ATOM      2  C   UNL     1       8.472  -2.715  26.338  0.00  0.00    +0.000 A 
ATOM      3  C   UNL     1       8.029  -1.357  26.065  0.00  0.00    +0.000 A 
ATOM      4  C   UNL     1       8.286  -0.925  24.620  0.00  0.00    +0.000 A 
ATOM      5  C   UNL     1       9.283  -1.523  23.738  0.00  0.00    +0.000 A 
ATOM      6  C   UNL     1       9.781  -2.933  24.220  0.00  0.00    +0.000 A 
ENDROOT
BRANCH   1   7
ATOM      7  S   UNL     1       8.001  -4.896  25.024  0.00  0.00    +0.000 S 
ATOM      8  O   UNL     1       8.115  -5.967  25.951  0.00  0.00    +0.000 OA
ATOM      9  O   UNL     1       8.270  -5.305  23.637  0.00  0.00    +0.000 OA
BRANCH   7  13
ATOM     10  C   UNL     1       4.349  -5.931  23.474  0.00  0.00    +0.000 A 
ATOM     11  N   UNL     1       5.476  -5.996  24.507  0.00  0.00    +0.000 NA
ATOM     12  C   UNL     1       5.459  -5.030  25.300  0.00  0.00    +0.000 A 
ATOM     13  N   UNL     1       6.549  -4.210  25.106  0.00  0.00    +0.000 N 
ATOM     14  H   UNL     1       6.331  -3.877  24.173  0.00  0.00    +0.000 HD
ATOM     15  C   UNL     1       4.410  -4.131  25.614  0.00  0.00    +0.000 A 
ATOM     16  C   UNL     1       3.321  -3.725  24.763  0.00  0.00    +0.000 A 
ATOM     17  C   UNL     1       3.690  -4.674  23.581  0.00  0.00    +0.000 A 
ENDBRANCH   7  13
ENDBRANCH   1   7
BRANCH   4  18
ATOM     18  S   UNL     1       6.665  -0.615  23.957  0.00  0.00    +0.000 S 
ATOM     19  O   UNL     1       5.660  -1.096  24.871  0.00  0.00    +0.000 OA
ATOM     20  O   UNL     1       6.575  -1.356  22.678  0.00  0.00    +0.000 OA
BRANCH  18  21
ATOM     21  C   UNL     1       6.454   1.060  23.481  0.00  0.00    +0.000 A 
ATOM     22  C   UNL     1       6.881   1.046  22.025  0.00  0.00    +0.000 A 
ATOM     23  C   UNL     1       7.986   1.822  21.464  0.00  0.00    +0.000 A 
ATOM     24  C   UNL     1       8.754   2.473  22.441  0.00  0.00    +0.000 A 
ATOM     25  C   UNL     1       8.365   2.760  23.974  0.00  0.00    +0.000 A 
ATOM     26  C   UNL     1       7.054   2.110  24.299  0.00  0.00    +0.000 A 
ATOM     27  N   UNL     1       8.637   4.013  24.210  0.00  0.00    +0.000 N 
ATOM     28  C   UNL     1       8.224   4.213  25.386  0.00  0.00    +0.000 C 
ATOM     29  C   UNL     1       9.873   4.152  23.686  0.00  0.00    +0.000 C 
ATOM     30  C   UNL     1      10.696   2.964  23.505  0.00  0.00    +0.000 C 
ATOM     31  C   UNL     1      10.299   1.902  22.571  0.00  0.00    +0.000 C 
ENDBRANCH  18  21
ENDBRANCH   4  18
TORSDOF 4
ENDMDL
MODEL 7
REMARK VINA RESULT:      -8.0      2.392      3.691
REMARK  Name = 
REMARK  5 active torsions:
REMARK  status: ('A' for Active; 'I' for Inactive)
REMARK    1  A    between atoms: N_5  and  S_7
REMARK    2  A    between atoms: S_7  and  C_10
REMARK    3  A    between atoms: C_15  and  S_16
REMARK    4  A    between atoms: S_16  and  C_19
REMARK    5  A    between atoms: N_28  and  C_29
REMARK                            x       y       z     vdW  Elec       q    Type
REMARK                         _______ _______ _______ _____ _____    ______ ____
ROOT
ATOM      1  C   UNL     1       9.514   0.438  23.196  0.00  0.00    +0.000 A 
ATOM      2  C   UNL     1       9.638  -0.863  22.482  0.00  0.00    +0.000 A 
ATOM      3  C   UNL     1       9.419  -2.171  23.079  0.00  0.00    +0.000 A 
ATOM      4  C   UNL     1       8.962  -2.093  24.538  0.00  0.00    +0.000 A 
ATOM      5  C   UNL     1       9.191  -0.953  25.421  0.00  0.00    +0.000 A 
ATOM      6  C   UNL     1       9.555   0.370  24.655  0.00  0.00    +0.000 A 
ENDROOT
BRANCH   1   7
ATOM      7  S   UNL     1       8.093   1.216  22.460  0.00  0.00    +0.000 S 
ATOM      8  O   UNL     1       8.349   2.575  22.134  0.00  0.00    +0.000 OA
ATOM      9  O   UNL     1       7.009   1.052  23.440  0.00  0.00    +0.000 OA
BRANCH   7  13
ATOM     10  C   UNL     1       5.164   1.540  19.610  0.00  0.00    +0.000 A 
ATOM     11  N   UNL     1       6.509   1.890  20.249  0.00  0.00    +0.000 NA
ATOM     12  C   UNL     1       7.395   1.042  20.003  0.00  0.00    +0.000 A 
ATOM     13  N   UNL     1       7.756   0.357  21.143  0.00  0.00    +0.000 N 
ATOM     14  H   UNL     1       6.880  -0.121  21.323  0.00  0.00    +0.000 HD
ATOM     15  C   UNL     1       7.453   0.060  18.984  0.00  0.00    +0.000 A 
ATOM     16  C   UNL     1       6.346  -0.597  18.336  0.00  0.00    +0.000 A 
ATOM     17  C   UNL     1       5.236   0.230  19.056  0.00  0.00    +0.000 A 
ENDBRANCH   7  13
ENDBRANCH   1   7
BRANCH   4  18
ATOM     18  S   UNL     1       7.345  -2.832  24.534  0.00  0.00    +0.000 S 
ATOM     19  O   UNL     1       6.595  -2.367  23.395  0.00  0.00    +0.000 OA
ATOM     20  O   UNL     1       6.674  -2.406  25.783  0.00  0.00    +0.000 OA
BRANCH  18  21
ATOM     21  C   UNL     1       7.416  -4.579  24.678  0.00  0.00    +0.000 A 
ATOM     22  C   UNL     1       7.291  -5.035  23.236  0.00  0.00    +0.000 A 
ATOM     23  C   UNL     1       6.222  -5.884  22.711  0.00  0.00    +0.000 A 
ATOM     24  C   UNL     1       5.196  -6.115  23.639  0.00  0.00    +0.000 A 
ATOM     25  C   UNL     1       5.232  -5.887  25.229  0.00  0.00    +0.000 A 
ATOM     26  C   UNL     1       6.529  -5.249  25.625  0.00  0.00    +0.000 A 
ATOM     27  N   UNL     1       4.751  -6.966  25.782  0.00  0.00    +0.000 N 
ATOM     28  C   UNL     1       4.893  -6.779  27.022  0.00  0.00    +0.000 C 
ATOM     29  C   UNL     1       3.635  -7.197  25.059  0.00  0.00    +0.000 C 
ATOM     30  C   UNL     1       3.034  -6.092  24.324  0.00  0.00    +0.000 C 
ATOM     31  C   UNL     1       3.747  -5.439  23.220  0.00  0.00    +0.000 C 
ENDBRANCH  18  21
ENDBRANCH   4  18
TORSDOF 4
ENDMDL
MODEL 8
REMARK VINA RESULT:      -8.0      2.636      3.546
REMARK  Name = 
REMARK  5 active torsions:
REMARK  status: ('A' for Active; 'I' for Inactive)
REMARK    1  A    between atoms: N_5  and  S_7
REMARK    2  A    between atoms: S_7  and  C_10
REMARK    3  A    between atoms: C_15  and  S_16
REMARK    4  A    between atoms: S_16  and  C_19
REMARK    5  A    between atoms: N_28  and  C_29
REMARK                            x       y       z     vdW  Elec       q    Type
REMARK                         _______ _______ _______ _____ _____    ______ ____
ROOT
ATOM      1  C   UNL     1       9.838   1.280  22.912  0.00  0.00    +0.000 A 
ATOM      2  C   UNL     1       9.317   1.161  21.522  0.00  0.00    +0.000 A 
ATOM      3  C   UNL     1       8.859  -0.071  20.901  0.00  0.00    +0.000 A 
ATOM      4  C   UNL     1       8.888  -1.267  21.855  0.00  0.00    +0.000 A 
ATOM      5  C   UNL     1       9.722  -1.357  23.050  0.00  0.00    +0.000 A 
ATOM      6  C   UNL     1      10.268   0.032  23.539  0.00  0.00    +0.000 A 
ENDROOT
BRANCH   1   7
ATOM      7  S   UNL     1       8.606   2.237  23.768  0.00  0.00    +0.000 S 
ATOM      8  O   UNL     1       7.599   2.708  22.884  0.00  0.00    +0.000 OA
ATOM      9  O   UNL     1       9.347   3.322  24.428  0.00  0.00    +0.000 OA
BRANCH   7  13
ATOM     10  C   UNL     1       6.893   2.932  27.427  0.00  0.00    +0.000 A 
ATOM     11  N   UNL     1       6.887   2.826  25.900  0.00  0.00    +0.000 NA
ATOM     12  C   UNL     1       6.816   1.644  25.499  0.00  0.00    +0.000 A 
ATOM     13  N   UNL     1       7.987   1.259  24.884  0.00  0.00    +0.000 N 
ATOM     14  H   UNL     1       8.608   1.301  25.685  0.00  0.00    +0.000 HD
ATOM     15  C   UNL     1       6.393   0.477  26.183  0.00  0.00    +0.000 A 
ATOM     16  C   UNL     1       6.464   0.217  27.598  0.00  0.00    +0.000 A 
ATOM     17  C   UNL     1       7.006   1.628  27.985  0.00  0.00    +0.000 A 
ENDBRANCH   7  13
ENDBRANCH   1   7
BRANCH   4  18
ATOM     18  S   UNL     1       7.188  -1.771  21.986  0.00  0.00    +0.000 S 
ATOM     19  O   UNL     1       6.459  -1.345  20.818  0.00  0.00    +0.000 OA
ATOM     20  O   UNL     1       6.635  -1.110  23.190  0.00  0.00    +0.000 OA
BRANCH  18  21
ATOM     21  C   UNL     1       7.030  -3.481  22.342  0.00  0.00    +0.000 A 
ATOM     22  C   UNL     1       5.543  -3.628  22.605  0.00  0.00    +0.000 A 
ATOM     23  C   UNL     1       4.951  -4.091  23.859  0.00  0.00    +0.000 A 
ATOM     24  C   UNL     1       5.889  -4.233  24.892  0.00  0.00    +0.000 A 
ATOM     25  C   UNL     1       7.490  -4.309  24.770  0.00  0.00    +0.000 A 
ATOM     26  C   UNL     1       7.905  -4.079  23.348  0.00  0.00    +0.000 A 
ATOM     27  N   UNL     1       7.881  -5.323  25.489  0.00  0.00    +0.000 N 
ATOM     28  C   UNL     1       9.124  -5.401  25.281  0.00  0.00    +0.000 C 
ATOM     29  C   UNL     1       7.201  -5.149  26.642  0.00  0.00    +0.000 C 
ATOM     30  C   UNL     1       6.703  -3.820  26.968  0.00  0.00    +0.000 C 
ATOM     31  C   UNL     1       5.682  -3.168  26.138  0.00  0.00    +0.000 C 
ENDBRANCH  18  21
ENDBRANCH   4  18
TORSDOF 4
ENDMDL
MODEL 9
REMARK VINA RESULT:      -8.0      2.625      3.590
REMARK  Name = 
REMARK  5 active torsions:
REMARK  status: ('A' for Active; 'I' for Inactive)
REMARK    1  A    between atoms: N_5  and  S_7
REMARK    2  A    between atoms: S_7  and  C_10
REMARK    3  A    between atoms: C_15  and  S_16
REMARK    4  A    between atoms: S_16  and  C_19
REMARK    5  A    between atoms: N_28  and  C_29
REMARK                            x       y       z     vdW  Elec       q    Type
REMARK                         _______ _______ _______ _____ _____    ______ ____
ROOT
ATOM      1  C   UNL     1       9.498   1.763  22.463  0.00  0.00    +0.000 A 
ATOM      2  C   UNL     1       9.585   0.567  21.581  0.00  0.00    +0.000 A 
ATOM      3  C   UNL     1      10.076  -0.740  21.987  0.00  0.00    +0.000 A 
ATOM      4  C   UNL     1      10.439  -0.806  23.473  0.00  0.00    +0.000 A 
ATOM      5  C   UNL     1      10.770   0.351  24.299  0.00  0.00    +0.000 A 
ATOM      6  C   UNL     1      10.305   1.717  23.680  0.00  0.00    +0.000 A 
ENDROOT
BRANCH   1   7
ATOM      7  S   UNL     1       7.752   2.046  22.658  0.00  0.00    +0.000 S 
ATOM      8  O   UNL     1       6.983   1.110  21.916  0.00  0.00    +0.000 OA
ATOM      9  O   UNL     1       7.534   3.436  22.232  0.00  0.00    +0.000 OA
BRANCH   7  13
ATOM     10  C   UNL     1       4.576   3.174  24.991  0.00  0.00    +0.000 A 
ATOM     11  N   UNL     1       5.323   2.235  24.042  0.00  0.00    +0.000 NA
ATOM     12  C   UNL     1       6.191   1.549  24.625  0.00  0.00    +0.000 A 
ATOM     13  N   UNL     1       7.459   1.918  24.233  0.00  0.00    +0.000 N 
ATOM     14  H   UNL     1       7.473   2.859  24.610  0.00  0.00    +0.000 HD
ATOM     15  C   UNL     1       6.334   1.247  26.002  0.00  0.00    +0.000 A 
ATOM     16  C   UNL     1       5.906   2.044  27.123  0.00  0.00    +0.000 A 
ATOM     17  C   UNL     1       5.207   3.146  26.267  0.00  0.00    +0.000 A 
ENDBRANCH   7  13
ENDBRANCH   1   7
BRANCH   4  18
ATOM     18  S   UNL     1       9.330  -2.022  24.145  0.00  0.00    +0.000 S 
ATOM     19  O   UNL     1       8.922  -1.634  25.472  0.00  0.00    +0.000 OA
ATOM     20  O   UNL     1      10.077  -3.299  24.205  0.00  0.00    +0.000 OA
BRANCH  18  21
ATOM     21  C   UNL     1       7.996  -2.372  23.061  0.00  0.00    +0.000 A 
ATOM     22  C   UNL     1       6.824  -1.697  23.751  0.00  0.00    +0.000 A 
ATOM     23  C   UNL     1       5.620  -2.378  24.224  0.00  0.00    +0.000 A 
ATOM     24  C   UNL     1       5.708  -3.775  24.140  0.00  0.00    +0.000 A 
ATOM     25  C   UNL     1       6.753  -4.651  23.289  0.00  0.00    +0.000 A 
ATOM     26  C   UNL     1       7.765  -3.752  22.644  0.00  0.00    +0.000 A 
ATOM     27  N   UNL     1       6.065  -5.553  22.647  0.00  0.00    +0.000 N 
ATOM     28  C   UNL     1       6.912  -6.145  21.922  0.00  0.00    +0.000 C 
ATOM     29  C   UNL     1       5.250  -6.040  23.606  0.00  0.00    +0.000 C 
ATOM     30  C   UNL     1       5.628  -5.872  25.002  0.00  0.00    +0.000 C 
ATOM     31  C   UNL     1       5.724  -4.537  25.606  0.00  0.00    +0.000 C 
ENDBRANCH  18  21
ENDBRANCH   4  18
TORSDOF 4
ENDMDL
