MODEL 1
REMARK VINA RESULT:      -8.8      0.000      0.000
REMARK  Name = 
REMARK  7 active torsions:
REMARK  status: ('A' for Active; 'I' for Inactive)
REMARK    1  A    between atoms: C_5  and  N_6
REMARK    2  A    between atoms: C_8  and  C_10
REMARK    3  A    between atoms: C_10  and  C_13
REMARK    4  A    between atoms: N_22  and  C_23
REMARK    5  A    between atoms: C_28  and  O_29
REMARK    6  A    between atoms: O_29  and  C_30
REMARK    7  A    between atoms: C_46  and  N_47
REMARK                            x       y       z     vdW  Elec       q    Type
REMARK                         _______ _______ _______ _____ _____    ______ ____
ROOT
ATOM      1  C   UNL     1       8.976  -1.401  24.767  0.00  0.00    +0.000 C 
ENDROOT
BRANCH   1   2
ATOM      2  C   UNL     1       7.835  -2.288  25.170  0.00  0.00    +0.000 C 
ATOM      3  O   UNL     1       6.782  -2.208  24.493  0.00  0.00    +0.000 OA
ATOM      4  N   UNL     1       7.840  -2.928  26.353  0.00  0.00    +0.000 N 
ATOM      5  C   UNL     1       6.512  -3.083  27.029  0.00  0.00    +0.000 C 
ATOM      6  C   UNL     1       5.852  -4.335  26.517  0.00  0.00    +0.000 C 
ATOM      7  N   UNL     1       6.839  -5.084  25.660  0.00  0.00    +0.000 N 
ATOM      8  C   UNL     1       8.111  -5.351  26.374  0.00  0.00    +0.000 C 
ATOM      9  C   UNL     1       8.770  -4.006  26.662  0.00  0.00    +0.000 C 
BRANCH   7  10
ATOM     10  C   UNL     1       6.928  -4.672  24.402  0.00  0.00    +0.000 A 
ATOM     11  C   UNL     1       5.491  -4.597  24.006  0.00  0.00    +0.000 A 
ATOM     12  C   UNL     1       4.902  -4.993  22.724  0.00  0.00    +0.000 A 
ATOM     13  C   UNL     1       5.977  -5.499  21.739  0.00  0.00    +0.000 A 
ATOM     14  C   UNL     1       7.332  -5.910  22.104  0.00  0.00    +0.000 A 
ATOM     15  C   UNL     1       7.853  -5.154  23.408  0.00  0.00    +0.000 A 
BRANCH  13  16
ATOM     16  O   UNL     1       5.828  -4.878  20.404  0.00  0.00    +0.000 OA
ATOM     17  C   UNL     1       5.892  -3.484  20.491  0.00  0.00    +0.000 C 
ENDBRANCH  13  16
ENDBRANCH   7  10
ENDBRANCH   1   2
BRANCH   1  20
ATOM     18  N   UNL     1      10.040  -1.515  22.485  0.00  0.00    +0.000 N 
ATOM     19  H   UNL     1      11.089  -1.530  22.461  0.00  0.00    +0.000 HD
ATOM     20  C   UNL     1       9.779  -1.993  23.669  0.00  0.00    +0.000 C 
ATOM     21  O   UNL     1      10.249  -3.178  23.827  0.00  0.00    +0.000 OA
BRANCH  18  24
ATOM     22  C   UNL     1       8.274   1.286  23.330  0.00  0.00    +0.000 A 
ATOM     23  C   UNL     1       9.552   0.624  22.917  0.00  0.00    +0.000 A 
ATOM     24  C   UNL     1       9.748  -0.441  21.922  0.00  0.00    +0.000 A 
ATOM     25  C   UNL     1       8.400  -0.682  21.321  0.00  0.00    +0.000 A 
ATOM     26  C   UNL     1       7.110  -0.168  21.390  0.00  0.00    +0.000 A 
ATOM     27  C   UNL     1       7.075   0.699  22.692  0.00  0.00    +0.000 A 
BRANCH  26  28
ATOM     28  N   UNL     1       6.993   0.696  20.303  0.00  0.00    +0.000 N 
ATOM     29  C   UNL     1       6.916  -0.110  19.149  0.00  0.00    +0.000 C 
ATOM     30  O   UNL     1       7.970  -0.335  18.581  0.00  0.00    +0.000 OA
ATOM     31  C   UNL     1       5.678   0.283  18.340  0.00  0.00    +0.000 C 
ATOM     32  C   UNL     1       5.134   1.533  19.035  0.00  0.00    +0.000 C 
ATOM     33  C   UNL     1       5.955   1.715  20.325  0.00  0.00    +0.000 C 
ENDBRANCH  26  28
ENDBRANCH  18  24
ENDBRANCH   1  20
TORSDOF 6
ENDMDL
MODEL 2
REMARK VINA RESULT:      -8.4      1.986      6.294
REMARK  Name = 
REMARK  7 active torsions:
REMARK  status: ('A' for Active; 'I' for Inactive)
REMARK    1  A    between atoms: C_5  and  N_6
REMARK    2  A    between atoms: C_8  and  C_10
REMARK    3  A    between atoms: C_10  and  C_13
REMARK    4  A    between atoms: N_22  and  C_23
REMARK    5  A    between atoms: C_28  and  O_29
REMARK    6  A    between atoms: O_29  and  C_30
REMARK    7  A    between atoms: C_46  and  N_47
REMARK                            x       y       z     vdW  Elec       q    Type
REMARK                         _______ _______ _______ _____ _____    ______ ____
ROOT
ATOM      1  C   UNL     1       7.422   0.275  25.803  0.00  0.00    +0.000 C 
ENDROOT
BRANCH   1   2
ATOM      2  C   UNL     1       8.371   0.649  24.702  0.00  0.00    +0.000 C 
ATOM      3  O   UNL     1       8.552  -0.194  23.792  0.00  0.00    +0.000 OA
ATOM      4  N   UNL     1       9.191   1.708  24.826  0.00  0.00    +0.000 N 
ATOM      5  C   UNL     1      10.545   1.575  24.199  0.00  0.00    +0.000 C 
ATOM      6  C   UNL     1      10.455   1.996  22.757  0.00  0.00    +0.000 C 
ATOM      7  N   UNL     1       9.088   2.583  22.513  0.00  0.00    +0.000 N 
ATOM      8  C   UNL     1       8.774   3.682  23.458  0.00  0.00    +0.000 C 
ATOM      9  C   UNL     1       8.708   3.081  24.858  0.00  0.00    +0.000 C 
BRANCH   7  10
ATOM     10  C   UNL     1       8.126   1.704  22.268  0.00  0.00    +0.000 A 
ATOM     11  C   UNL     1       8.771   0.824  21.250  0.00  0.00    +0.000 A 
ATOM     12  C   UNL     1       8.150   0.248  20.054  0.00  0.00    +0.000 A 
ATOM     13  C   UNL     1       6.659   0.629  19.951  0.00  0.00    +0.000 A 
ATOM     14  C   UNL     1       6.009   1.711  20.688  0.00  0.00    +0.000 A 
ATOM     15  C   UNL     1       6.727   1.996  22.083  0.00  0.00    +0.000 A 
BRANCH  13  16
ATOM     16  O   UNL     1       5.814  -0.552  19.659  0.00  0.00    +0.000 OA
ATOM     17  C   UNL     1       5.920  -0.922  18.315  0.00  0.00    +0.000 C 
ENDBRANCH  13  16
ENDBRANCH   7  10
ENDBRANCH   1   2
BRANCH   1  20
ATOM     18  N   UNL     1       7.580  -2.018  26.835  0.00  0.00    +0.000 N 
ATOM     19  H   UNL     1       8.450  -2.566  26.623  0.00  0.00    +0.000 HD
ATOM     20  C   UNL     1       7.977  -0.787  26.677  0.00  0.00    +0.000 C 
ATOM     21  O   UNL     1       8.943  -0.485  27.468  0.00  0.00    +0.000 OA
BRANCH  18  24
ATOM     22  C   UNL     1       6.782  -5.336  26.657  0.00  0.00    +0.000 A 
ATOM     23  C   UNL     1       6.447  -3.933  27.058  0.00  0.00    +0.000 A 
ATOM     24  C   UNL     1       6.672  -2.690  26.306  0.00  0.00    +0.000 A 
ATOM     25  C   UNL     1       7.235  -3.115  24.987  0.00  0.00    +0.000 A 
ATOM     26  C   UNL     1       7.524  -4.286  24.295  0.00  0.00    +0.000 A 
ATOM     27  C   UNL     1       7.508  -5.422  25.370  0.00  0.00    +0.000 A 
BRANCH  26  28
ATOM     28  N   UNL     1       6.441  -4.495  23.443  0.00  0.00    +0.000 N 
ATOM     29  C   UNL     1       6.894  -4.224  22.135  0.00  0.00    +0.000 C 
ATOM     30  O   UNL     1       6.718  -3.089  21.730  0.00  0.00    +0.000 OA
ATOM     31  C   UNL     1       6.574  -5.418  21.233  0.00  0.00    +0.000 C 
ATOM     32  C   UNL     1       5.715  -6.345  22.096  0.00  0.00    +0.000 C 
ATOM     33  C   UNL     1       5.721  -5.756  23.519  0.00  0.00    +0.000 C 
ENDBRANCH  26  28
ENDBRANCH  18  24
ENDBRANCH   1  20
TORSDOF 6
ENDMDL
MODEL 3
REMARK VINA RESULT:      -8.4      2.331      6.841
REMARK  Name = 
REMARK  7 active torsions:
REMARK  status: ('A' for Active; 'I' for Inactive)
REMARK    1  A    between atoms: C_5  and  N_6
REMARK    2  A    between atoms: C_8  and  C_10
REMARK    3  A    between atoms: C_10  and  C_13
REMARK    4  A    between atoms: N_22  and  C_23
REMARK    5  A    between atoms: C_28  and  O_29
REMARK    6  A    between atoms: O_29  and  C_30
REMARK    7  A    between atoms: C_46  and  N_47
REMARK                            x       y       z     vdW  Elec       q    Type
REMARK                         _______ _______ _______ _____ _____    ______ ____
ROOT
ATOM      1  C   UNL     1       7.960  -0.396  20.935  0.00  0.00    +0.000 C 
ENDROOT
BRANCH   1   2
ATOM      2  C   UNL     1       7.853   0.696  21.958  0.00  0.00    +0.000 C 
ATOM      3  O   UNL     1       6.849   0.681  22.709  0.00  0.00    +0.000 OA
ATOM      4  N   UNL     1       8.642   1.784  21.893  0.00  0.00    +0.000 N 
ATOM      5  C   UNL     1       8.025   3.077  22.330  0.00  0.00    +0.000 C 
ATOM      6  C   UNL     1       8.197   3.218  23.818  0.00  0.00    +0.000 C 
ATOM      7  N   UNL     1       9.095   2.110  24.305  0.00  0.00    +0.000 N 
ATOM      8  C   UNL     1      10.385   2.071  23.574  0.00  0.00    +0.000 C 
ATOM      9  C   UNL     1      10.080   1.730  22.119  0.00  0.00    +0.000 C 
BRANCH   7  10
ATOM     10  C   UNL     1       8.495   0.948  24.532  0.00  0.00    +0.000 A 
ATOM     11  C   UNL     1       7.396   1.352  25.458  0.00  0.00    +0.000 A 
ATOM     12  C   UNL     1       6.919   0.625  26.637  0.00  0.00    +0.000 A 
ATOM     13  C   UNL     1       7.682  -0.702  26.833  0.00  0.00    +0.000 A 
ATOM     14  C   UNL     1       8.955  -1.046  26.201  0.00  0.00    +0.000 A 
ATOM     15  C   UNL     1       9.142  -0.311  24.798  0.00  0.00    +0.000 A 
BRANCH  13  16
ATOM     16  O   UNL     1       6.757  -1.831  27.080  0.00  0.00    +0.000 OA
ATOM     17  C   UNL     1       7.209  -2.994  26.449  0.00  0.00    +0.000 C 
ENDBRANCH  13  16
ENDBRANCH   7  10
ENDBRANCH   1   2
BRANCH   1  20
ATOM     18  N   UNL     1       6.109  -2.054  21.357  0.00  0.00    +0.000 N 
ATOM     19  H   UNL     1       5.178  -1.653  21.631  0.00  0.00    +0.000 HD
ATOM     20  C   UNL     1       6.657  -1.069  20.704  0.00  0.00    +0.000 C 
ATOM     21  O   UNL     1       5.962  -0.719  19.682  0.00  0.00    +0.000 OA
BRANCH  18  24
ATOM     22  C   UNL     1       7.080  -5.271  21.975  0.00  0.00    +0.000 A 
ATOM     23  C   UNL     1       7.359  -3.800  21.980  0.00  0.00    +0.000 A 
ATOM     24  C   UNL     1       6.459  -2.702  22.364  0.00  0.00    +0.000 A 
ATOM     25  C   UNL     1       5.205  -3.360  22.846  0.00  0.00    +0.000 A 
ATOM     26  C   UNL     1       4.711  -4.638  23.080  0.00  0.00    +0.000 A 
ATOM     27  C   UNL     1       5.681  -5.606  22.326  0.00  0.00    +0.000 A 
BRANCH  26  28
ATOM     28  N   UNL     1       4.872  -4.858  24.447  0.00  0.00    +0.000 N 
ATOM     29  C   UNL     1       3.605  -4.679  25.039  0.00  0.00    +0.000 C 
ATOM     30  O   UNL     1       3.365  -3.564  25.465  0.00  0.00    +0.000 OA
ATOM     31  C   UNL     1       3.262  -5.911  25.880  0.00  0.00    +0.000 C 
ATOM     32  C   UNL     1       4.537  -6.756  25.878  0.00  0.00    +0.000 C 
ATOM     33  C   UNL     1       5.510  -6.088  24.890  0.00  0.00    +0.000 C 
ENDBRANCH  26  28
ENDBRANCH  18  24
ENDBRANCH   1  20
TORSDOF 6
ENDMDL
MODEL 4
REMARK VINA RESULT:      -8.3      2.539      3.887
REMARK  Name = 
REMARK  7 active torsions:
REMARK  status: ('A' for Active; 'I' for Inactive)
REMARK    1  A    between atoms: C_5  and  N_6
REMARK    2  A    between atoms: C_8  and  C_10
REMARK    3  A    between atoms: C_10  and  C_13
REMARK    4  A    between atoms: N_22  and  C_23
REMARK    5  A    between atoms: C_28  and  O_29
REMARK    6  A    between atoms: O_29  and  C_30
REMARK    7  A    between atoms: C_46  and  N_47
REMARK                            x       y       z     vdW  Elec       q    Type
REMARK                         _______ _______ _______ _____ _____    ______ ____
ROOT
ATOM      1  C   UNL     1       8.322  -1.763  22.833  0.00  0.00    +0.000 C 
ENDROOT
BRANCH   1   2
ATOM      2  C   UNL     1       7.876  -2.457  24.086  0.00  0.00    +0.000 C 
ATOM      3  O   UNL     1       6.667  -2.342  24.403  0.00  0.00    +0.000 OA
ATOM      4  N   UNL     1       8.771  -2.941  24.965  0.00  0.00    +0.000 N 
ATOM      5  C   UNL     1       8.390  -2.857  26.412  0.00  0.00    +0.000 C 
ATOM      6  C   UNL     1       7.589  -4.079  26.773  0.00  0.00    +0.000 C 
ATOM      7  N   UNL     1       7.623  -5.037  25.610  0.00  0.00    +0.000 N 
ATOM      8  C   UNL     1       9.009  -5.356  25.188  0.00  0.00    +0.000 C 
ATOM      9  C   UNL     1       9.640  -4.070  24.666  0.00  0.00    +0.000 C 
BRANCH   7  10
ATOM     10  C   UNL     1       6.739  -4.799  24.650  0.00  0.00    +0.000 A 
ATOM     11  C   UNL     1       5.452  -4.859  25.403  0.00  0.00    +0.000 A 
ATOM     12  C   UNL     1       4.192  -5.461  24.958  0.00  0.00    +0.000 A 
ATOM     13  C   UNL     1       4.312  -6.038  23.532  0.00  0.00    +0.000 A 
ATOM     14  C   UNL     1       5.566  -6.318  22.836  0.00  0.00    +0.000 A 
ATOM     15  C   UNL     1       6.745  -5.361  23.324  0.00  0.00    +0.000 A 
BRANCH  13  16
ATOM     16  O   UNL     1       3.179  -5.616  22.677  0.00  0.00    +0.000 OA
ATOM     17  C   UNL     1       2.009  -6.297  23.027  0.00  0.00    +0.000 C 
ENDBRANCH  13  16
ENDBRANCH   7  10
ENDBRANCH   1   2
BRANCH   1  20
ATOM     18  N   UNL     1       6.705   0.134  22.462  0.00  0.00    +0.000 N 
ATOM     19  H   UNL     1       6.791   0.648  21.551  0.00  0.00    +0.000 HD
ATOM     20  C   UNL     1       7.210  -1.033  22.175  0.00  0.00    +0.000 C 
ATOM     21  O   UNL     1       6.571  -1.618  21.228  0.00  0.00    +0.000 OA
BRANCH  18  24
ATOM     22  C   UNL     1       6.047   3.459  22.898  0.00  0.00    +0.000 A 
ATOM     23  C   UNL     1       5.958   2.039  23.365  0.00  0.00    +0.000 A 
ATOM     24  C   UNL     1       6.994   0.996  23.316  0.00  0.00    +0.000 A 
ATOM     25  C   UNL     1       8.217   1.669  22.776  0.00  0.00    +0.000 A 
ATOM     26  C   UNL     1       8.637   2.938  22.396  0.00  0.00    +0.000 A 
ATOM     27  C   UNL     1       7.329   3.780  22.233  0.00  0.00    +0.000 A 
BRANCH  26  28
ATOM     28  N   UNL     1       9.333   3.447  23.490  0.00  0.00    +0.000 N 
ATOM     29  C   UNL     1      10.683   3.073  23.323  0.00  0.00    +0.000 C 
ATOM     30  O   UNL     1      11.023   2.035  23.861  0.00  0.00    +0.000 OA
ATOM     31  C   UNL     1      11.568   4.317  23.429  0.00  0.00    +0.000 C 
ATOM     32  C   UNL     1      10.621   5.437  23.865  0.00  0.00    +0.000 C 
ATOM     33  C   UNL     1       9.196   4.857  23.817  0.00  0.00    +0.000 C 
ENDBRANCH  26  28
ENDBRANCH  18  24
ENDBRANCH   1  20
TORSDOF 6
ENDMDL
MODEL 5
REMARK VINA RESULT:      -8.0      2.325      5.041
REMARK  Name = 
REMARK  7 active torsions:
REMARK  status: ('A' for Active; 'I' for Inactive)
REMARK    1  A    between atoms: C_5  and  N_6
REMARK    2  A    between atoms: C_8  and  C_10
REMARK    3  A    between atoms: C_10  and  C_13
REMARK    4  A    between atoms: N_22  and  C_23
REMARK    5  A    between atoms: C_28  and  O_29
REMARK    6  A    between atoms: O_29  and  C_30
REMARK    7  A    between atoms: C_46  and  N_47
REMARK                            x       y       z     vdW  Elec       q    Type
REMARK                         _______ _______ _______ _____ _____    ______ ____
ROOT
ATOM      1  C   UNL     1       5.088  -5.269  21.866  0.00  0.00    +0.000 C 
ENDROOT
BRANCH   1   2
ATOM      2  C   UNL     1       4.743  -5.841  23.209  0.00  0.00    +0.000 C 
ATOM      3  O   UNL     1       5.647  -6.468  23.812  0.00  0.00    +0.000 OA
ATOM      4  N   UNL     1       3.465  -5.917  23.621  0.00  0.00    +0.000 N 
ATOM      5  C   UNL     1       3.108  -7.110  24.455  0.00  0.00    +0.000 C 
ATOM      6  C   UNL     1       3.404  -6.799  25.897  0.00  0.00    +0.000 C 
ATOM      7  N   UNL     1       3.767  -5.340  26.010  0.00  0.00    +0.000 N 
ATOM      8  C   UNL     1       2.726  -4.458  25.428  0.00  0.00    +0.000 C 
ATOM      9  C   UNL     1       2.664  -4.742  23.931  0.00  0.00    +0.000 C 
BRANCH   7  10
ATOM     10  C   UNL     1       5.030  -5.044  25.736  0.00  0.00    +0.000 A 
ATOM     11  C   UNL     1       5.762  -5.954  26.666  0.00  0.00    +0.000 A 
ATOM     12  C   UNL     1       6.965  -5.645  27.444  0.00  0.00    +0.000 A 
ATOM     13  C   UNL     1       7.462  -4.209  27.174  0.00  0.00    +0.000 A 
ATOM     14  C   UNL     1       6.676  -3.146  26.550  0.00  0.00    +0.000 A 
ATOM     15  C   UNL     1       5.578  -3.726  25.548  0.00  0.00    +0.000 A 
BRANCH  13  16
ATOM     16  O   UNL     1       8.918  -4.178  26.908  0.00  0.00    +0.000 OA
ATOM     17  C   UNL     1       9.217  -4.798  25.691  0.00  0.00    +0.000 C 
ENDBRANCH  13  16
ENDBRANCH   7  10
ENDBRANCH   1   2
BRANCH   1  20
ATOM     18  N   UNL     1       7.281  -4.032  21.973  0.00  0.00    +0.000 N 
ATOM     19  H   UNL     1       8.007  -4.426  22.622  0.00  0.00    +0.000 HD
ATOM     20  C   UNL     1       6.550  -5.077  21.702  0.00  0.00    +0.000 C 
ATOM     21  O   UNL     1       7.232  -6.016  21.152  0.00  0.00    +0.000 OA
BRANCH  18  24
ATOM     22  C   UNL     1       6.965  -0.845  20.783  0.00  0.00    +0.000 A 
ATOM     23  C   UNL     1       6.387  -2.047  21.463  0.00  0.00    +0.000 A 
ATOM     24  C   UNL     1       7.017  -2.918  22.467  0.00  0.00    +0.000 A 
ATOM     25  C   UNL     1       8.350  -2.303  22.752  0.00  0.00    +0.000 A 
ATOM     26  C   UNL     1       9.084  -1.175  22.404  0.00  0.00    +0.000 A 
ATOM     27  C   UNL     1       8.380  -0.593  21.135  0.00  0.00    +0.000 A 
BRANCH  26  28
ATOM     28  N   UNL     1       8.896  -0.269  23.446  0.00  0.00    +0.000 N 
ATOM     29  C   UNL     1       9.886  -0.546  24.410  0.00  0.00    +0.000 C 
ATOM     30  O   UNL     1       9.567  -1.310  25.303  0.00  0.00    +0.000 OA
ATOM     31  C   UNL     1      10.647   0.741  24.738  0.00  0.00    +0.000 C 
ATOM     32  C   UNL     1       9.880   1.847  24.009  0.00  0.00    +0.000 C 
ATOM     33  C   UNL     1       8.820   1.150  23.137  0.00  0.00    +0.000 C 
ENDBRANCH  26  28
ENDBRANCH  18  24
ENDBRANCH   1  20
TORSDOF 6
ENDMDL
MODEL 6
REMARK VINA RESULT:      -8.0      2.808      7.215
REMARK  Name = 
REMARK  7 active torsions:
REMARK  status: ('A' for Active; 'I' for Inactive)
REMARK    1  A    between atoms: C_5  and  N_6
REMARK    2  A    between atoms: C_8  and  C_10
REMARK    3  A    between atoms: C_10  and  C_13
REMARK    4  A    between atoms: N_22  and  C_23
REMARK    5  A    between atoms: C_28  and  O_29
REMARK    6  A    between atoms: O_29  and  C_30
REMARK    7  A    between atoms: C_46  and  N_47
REMARK                            x       y       z     vdW  Elec       q    Type
REMARK                         _______ _______ _______ _____ _____    ______ ____
ROOT
ATOM      1  C   UNL     1       6.388   1.647  26.379  0.00  0.00    +0.000 C 
ENDROOT
BRANCH   1   2
ATOM      2  C   UNL     1       7.367   2.403  25.529  0.00  0.00    +0.000 C 
ATOM      3  O   UNL     1       8.446   1.829  25.251  0.00  0.00    +0.000 OA
ATOM      4  N   UNL     1       7.218   3.722  25.310  0.00  0.00    +0.000 N 
ATOM      5  C   UNL     1       8.480   4.524  25.211  0.00  0.00    +0.000 C 
ATOM      6  C   UNL     1       8.966   4.488  23.787  0.00  0.00    +0.000 C 
ATOM      7  N   UNL     1       7.912   3.827  22.936  0.00  0.00    +0.000 N 
ATOM      8  C   UNL     1       6.587   4.477  23.080  0.00  0.00    +0.000 C 
ATOM      9  C   UNL     1       6.126   4.272  24.519  0.00  0.00    +0.000 C 
BRANCH   7  10
ATOM     10  C   UNL     1       7.937   2.500  22.928  0.00  0.00    +0.000 A 
ATOM     11  C   UNL     1       9.381   2.226  22.675  0.00  0.00    +0.000 A 
ATOM     12  C   UNL     1       9.948   1.187  21.809  0.00  0.00    +0.000 A 
ATOM     13  C   UNL     1       8.845   0.322  21.166  0.00  0.00    +0.000 A 
ATOM     14  C   UNL     1       7.430   0.679  21.084  0.00  0.00    +0.000 A 
ATOM     15  C   UNL     1       6.985   1.632  22.284  0.00  0.00    +0.000 A 
BRANCH  13  16
ATOM     16  O   UNL     1       9.140  -1.123  21.297  0.00  0.00    +0.000 OA
ATOM     17  C   UNL     1       9.976  -1.364  22.392  0.00  0.00    +0.000 C 
ENDBRANCH  13  16
ENDBRANCH   7  10
ENDBRANCH   1   2
BRANCH   1  20
ATOM     18  N   UNL     1       5.596  -0.243  24.911  0.00  0.00    +0.000 N 
ATOM     19  H   UNL     1       4.838  -0.853  25.307  0.00  0.00    +0.000 HD
ATOM     20  C   UNL     1       5.422   0.875  25.559  0.00  0.00    +0.000 C 
ATOM     21  O   UNL     1       4.253   1.370  25.366  0.00  0.00    +0.000 OA
BRANCH  18  24
ATOM     22  C   UNL     1       6.122  -3.330  23.544  0.00  0.00    +0.000 A 
ATOM     23  C   UNL     1       6.418  -1.863  23.608  0.00  0.00    +0.000 A 
ATOM     24  C   UNL     1       6.569  -1.015  24.800  0.00  0.00    +0.000 A 
ATOM     25  C   UNL     1       6.456  -1.940  25.969  0.00  0.00    +0.000 A 
ATOM     26  C   UNL     1       6.322  -3.300  26.225  0.00  0.00    +0.000 A 
ATOM     27  C   UNL     1       5.873  -3.938  24.870  0.00  0.00    +0.000 A 
BRANCH  26  28
ATOM     28  N   UNL     1       7.608  -3.757  26.503  0.00  0.00    +0.000 N 
ATOM     29  C   UNL     1       7.594  -5.154  26.311  0.00  0.00    +0.000 C 
ATOM     30  O   UNL     1       7.372  -5.830  27.300  0.00  0.00    +0.000 OA
ATOM     31  C   UNL     1       8.723  -5.544  25.355  0.00  0.00    +0.000 C 
ATOM     32  C   UNL     1       9.526  -4.258  25.149  0.00  0.00    +0.000 C 
ATOM     33  C   UNL     1       8.737  -3.128  25.836  0.00  0.00    +0.000 C 
ENDBRANCH  26  28
ENDBRANCH  18  24
ENDBRANCH   1  20
TORSDOF 6
ENDMDL
MODEL 7
REMARK VINA RESULT:      -8.0      2.791      4.667
REMARK  Name = 
REMARK  7 active torsions:
REMARK  status: ('A' for Active; 'I' for Inactive)
REMARK    1  A    between atoms: C_5  and  N_6
REMARK    2  A    between atoms: C_8  and  C_10
REMARK    3  A    between atoms: C_10  and  C_13
REMARK    4  A    between atoms: N_22  and  C_23
REMARK    5  A    between atoms: C_28  and  O_29
REMARK    6  A    between atoms: O_29  and  C_30
REMARK    7  A    between atoms: C_46  and  N_47
REMARK                            x       y       z     vdW  Elec       q    Type
REMARK                         _______ _______ _______ _____ _____    ______ ____
ROOT
ATOM      1  C   UNL     1       8.485  -3.033  25.130  0.00  0.00    +0.000 C 
ENDROOT
BRANCH   1   2
ATOM      2  C   UNL     1       7.684  -4.138  24.507  0.00  0.00    +0.000 C 
ATOM      3  O   UNL     1       7.592  -5.210  25.152  0.00  0.00    +0.000 OA
ATOM      4  N   UNL     1       7.320  -4.085  23.214  0.00  0.00    +0.000 N 
ATOM      5  C   UNL     1       7.291  -5.391  22.479  0.00  0.00    +0.000 C 
ATOM      6  C   UNL     1       5.944  -6.030  22.683  0.00  0.00    +0.000 C 
ATOM      7  N   UNL     1       5.045  -5.045  23.385  0.00  0.00    +0.000 N 
ATOM      8  C   UNL     1       4.968  -3.748  22.669  0.00  0.00    +0.000 C 
ATOM      9  C   UNL     1       6.357  -3.119  22.704  0.00  0.00    +0.000 C 
BRANCH   7  10
ATOM     10  C   UNL     1       5.171  -4.999  24.705  0.00  0.00    +0.000 A 
ATOM     11  C   UNL     1       4.925  -6.422  25.081  0.00  0.00    +0.000 A 
ATOM     12  C   UNL     1       4.161  -6.917  26.230  0.00  0.00    +0.000 A 
ATOM     13  C   UNL     1       3.624  -5.757  27.095  0.00  0.00    +0.000 A 
ATOM     14  C   UNL     1       3.527  -4.361  26.671  0.00  0.00    +0.000 A 
ATOM     15  C   UNL     1       4.631  -3.991  25.581  0.00  0.00    +0.000 A 
BRANCH  13  16
ATOM     16  O   UNL     1       3.897  -5.979  28.533  0.00  0.00    +0.000 OA
ATOM     17  C   UNL     1       4.942  -6.891  28.708  0.00  0.00    +0.000 C 
ENDBRANCH  13  16
ENDBRANCH   7  10
ENDBRANCH   1   2
BRANCH   1  20
ATOM     18  N   UNL     1       9.636  -1.351  23.648  0.00  0.00    +0.000 N 
ATOM     19  H   UNL     1      10.589  -1.034  23.954  0.00  0.00    +0.000 HD
ATOM     20  C   UNL     1       9.533  -2.521  24.213  0.00  0.00    +0.000 C 
ATOM     21  O   UNL     1      10.456  -3.327  23.830  0.00  0.00    +0.000 OA
BRANCH  18  24
ATOM     22  C   UNL     1       8.995   1.294  21.581  0.00  0.00    +0.000 A 
ATOM     23  C   UNL     1       8.527   0.111  22.369  0.00  0.00    +0.000 A 
ATOM     24  C   UNL     1       8.946  -0.314  23.713  0.00  0.00    +0.000 A 
ATOM     25  C   UNL     1       9.891   0.742  24.192  0.00  0.00    +0.000 A 
ATOM     26  C   UNL     1      10.399   1.966  23.774  0.00  0.00    +0.000 A 
ATOM     27  C   UNL     1      10.080   2.051  22.245  0.00  0.00    +0.000 A 
BRANCH  26  28
ATOM     28  N   UNL     1       9.631   2.932  24.421  0.00  0.00    +0.000 N 
ATOM     29  C   UNL     1       9.632   4.074  23.594  0.00  0.00    +0.000 C 
ATOM     30  O   UNL     1      10.489   4.906  23.831  0.00  0.00    +0.000 OA
ATOM     31  C   UNL     1       8.189   4.513  23.336  0.00  0.00    +0.000 C 
ATOM     32  C   UNL     1       7.340   3.626  24.249  0.00  0.00    +0.000 C 
ATOM     33  C   UNL     1       8.290   2.582  24.863  0.00  0.00    +0.000 C 
ENDBRANCH  26  28
ENDBRANCH  18  24
ENDBRANCH   1  20
TORSDOF 6
ENDMDL
MODEL 8
REMARK VINA RESULT:      -7.9      1.991      5.978
REMARK  Name = 
REMARK  7 active torsions:
REMARK  status: ('A' for Active; 'I' for Inactive)
REMARK    1  A    between atoms: C_5  and  N_6
REMARK    2  A    between atoms: C_8  and  C_10
REMARK    3  A    between atoms: C_10  and  C_13
REMARK    4  A    between atoms: N_22  and  C_23
REMARK    5  A    between atoms: C_28  and  O_29
REMARK    6  A    between atoms: O_29  and  C_30
REMARK    7  A    between atoms: C_46  and  N_47
REMARK                            x       y       z     vdW  Elec       q    Type
REMARK                         _______ _______ _______ _____ _____    ______ ____
ROOT
ATOM      1  C   UNL     1      10.429  -0.274  23.942  0.00  0.00    +0.000 C 
ENDROOT
BRANCH   1   2
ATOM      2  C   UNL     1       9.325   0.737  23.830  0.00  0.00    +0.000 C 
ATOM      3  O   UNL     1       9.341   1.493  22.830  0.00  0.00    +0.000 OA
ATOM      4  N   UNL     1       8.524   1.004  24.877  0.00  0.00    +0.000 N 
ATOM      5  C   UNL     1       8.065   2.424  25.015  0.00  0.00    +0.000 C 
ATOM      6  C   UNL     1       6.817   2.611  24.195  0.00  0.00    +0.000 C 
ATOM      7  N   UNL     1       6.367   1.265  23.689  0.00  0.00    +0.000 N 
ATOM      8  C   UNL     1       6.197   0.282  24.788  0.00  0.00    +0.000 C 
ATOM      9  C   UNL     1       7.570   0.040  25.407  0.00  0.00    +0.000 C 
BRANCH   7  10
ATOM     10  C   UNL     1       6.971   0.839  22.587  0.00  0.00    +0.000 A 
ATOM     11  C   UNL     1       6.610   1.910  21.612  0.00  0.00    +0.000 A 
ATOM     12  C   UNL     1       6.236   1.739  20.206  0.00  0.00    +0.000 A 
ATOM     13  C   UNL     1       6.285   0.256  19.783  0.00  0.00    +0.000 A 
ATOM     14  C   UNL     1       6.311  -0.884  20.697  0.00  0.00    +0.000 A 
ATOM     15  C   UNL     1       6.992  -0.513  22.092  0.00  0.00    +0.000 A 
BRANCH  13  16
ATOM     16  O   UNL     1       7.014   0.078  18.506  0.00  0.00    +0.000 OA
ATOM     17  C   UNL     1       6.629   1.044  17.572  0.00  0.00    +0.000 C 
ENDBRANCH  13  16
ENDBRANCH   7  10
ENDBRANCH   1   2
BRANCH   1  20
ATOM     18  N   UNL     1       9.480  -2.475  23.163  0.00  0.00    +0.000 N 
ATOM     19  H   UNL     1       8.878  -2.444  22.303  0.00  0.00    +0.000 HD
ATOM     20  C   UNL     1      10.229  -1.418  23.019  0.00  0.00    +0.000 C 
ATOM     21  O   UNL     1      10.925  -1.461  21.940  0.00  0.00    +0.000 OA
BRANCH  18  24
ATOM     22  C   UNL     1       9.274  -5.137  25.295  0.00  0.00    +0.000 A 
ATOM     23  C   UNL     1       9.398  -3.664  25.054  0.00  0.00    +0.000 A 
ATOM     24  C   UNL     1       8.694  -2.840  24.060  0.00  0.00    +0.000 A 
ATOM     25  C   UNL     1       7.739  -3.765  23.374  0.00  0.00    +0.000 A 
ATOM     26  C   UNL     1       7.313  -5.086  23.456  0.00  0.00    +0.000 A 
ATOM     27  C   UNL     1       8.385  -5.818  24.328  0.00  0.00    +0.000 A 
BRANCH  26  28
ATOM     28  N   UNL     1       6.126  -5.052  24.185  0.00  0.00    +0.000 N 
ATOM     29  C   UNL     1       5.146  -5.689  23.396  0.00  0.00    +0.000 C 
ATOM     30  O   UNL     1       4.477  -4.964  22.682  0.00  0.00    +0.000 OA
ATOM     31  C   UNL     1       4.471  -6.788  24.219  0.00  0.00    +0.000 C 
ATOM     32  C   UNL     1       5.019  -6.611  25.637  0.00  0.00    +0.000 C 
ATOM     33  C   UNL     1       6.127  -5.545  25.553  0.00  0.00    +0.000 C 
ENDBRANCH  26  28
ENDBRANCH  18  24
ENDBRANCH   1  20
TORSDOF 6
ENDMDL
MODEL 9
REMARK VINA RESULT:      -7.9      2.386      6.890
REMARK  Name = 
REMARK  7 active torsions:
REMARK  status: ('A' for Active; 'I' for Inactive)
REMARK    1  A    between atoms: C_5  and  N_6
REMARK    2  A    between atoms: C_8  and  C_10
REMARK    3  A    between atoms: C_10  and  C_13
REMARK    4  A    between atoms: N_22  and  C_23
REMARK    5  A    between atoms: C_28  and  O_29
REMARK    6  A    between atoms: O_29  and  C_30
REMARK    7  A    between atoms: C_46  and  N_47
REMARK                            x       y       z     vdW  Elec       q    Type
REMARK                         _______ _______ _______ _____ _____    ______ ____
ROOT
ATOM      1  C   UNL     1       9.015  -2.419  25.190  0.00  0.00    +0.000 C 
ENDROOT
BRANCH   1   2
ATOM      2  C   UNL     1       8.257  -1.670  24.135  0.00  0.00    +0.000 C 
ATOM      3  O   UNL     1       7.247  -1.025  24.506  0.00  0.00    +0.000 OA
ATOM      4  N   UNL     1       8.480  -1.898  22.829  0.00  0.00    +0.000 N 
ATOM      5  C   UNL     1       7.287  -1.808  21.926  0.00  0.00    +0.000 C 
ATOM      6  C   UNL     1       7.112  -0.376  21.498  0.00  0.00    +0.000 C 
ATOM      7  N   UNL     1       8.305   0.417  21.969  0.00  0.00    +0.000 N 
ATOM      8  C   UNL     1       9.585  -0.173  21.508  0.00  0.00    +0.000 C 
ATOM      9  C   UNL     1       9.727  -1.541  22.167  0.00  0.00    +0.000 C 
BRANCH   7  10
ATOM     10  C   UNL     1       8.251   0.835  23.226  0.00  0.00    +0.000 A 
ATOM     11  C   UNL     1       6.946   1.558  23.249  0.00  0.00    +0.000 A 
ATOM     12  C   UNL     1       6.644   2.822  23.927  0.00  0.00    +0.000 A 
ATOM     13  C   UNL     1       7.869   3.359  24.696  0.00  0.00    +0.000 A 
ATOM     14  C   UNL     1       9.250   2.923  24.497  0.00  0.00    +0.000 A 
ATOM     15  C   UNL     1       9.331   1.416  23.981  0.00  0.00    +0.000 A 
BRANCH  13  16
ATOM     16  O   UNL     1       7.512   3.763  26.075  0.00  0.00    +0.000 OA
ATOM     17  C   UNL     1       7.087   2.662  26.824  0.00  0.00    +0.000 C 
ENDBRANCH  13  16
ENDBRANCH   7  10
ENDBRANCH   1   2
BRANCH   1  20
ATOM     18  N   UNL     1       7.858  -4.658  25.170  0.00  0.00    +0.000 N 
ATOM     19  H   UNL     1       7.800  -5.144  24.242  0.00  0.00    +0.000 HD
ATOM     20  C   UNL     1       8.899  -3.889  25.020  0.00  0.00    +0.000 C 
ATOM     21  O   UNL     1       9.963  -4.559  24.758  0.00  0.00    +0.000 OA
BRANCH  18  24
ATOM     22  C   UNL     1       5.136  -6.539  26.022  0.00  0.00    +0.000 A 
ATOM     23  C   UNL     1       6.136  -5.472  26.341  0.00  0.00    +0.000 A 
ATOM     24  C   UNL     1       6.666  -4.425  25.456  0.00  0.00    +0.000 A 
ATOM     25  C   UNL     1       5.929  -4.578  24.164  0.00  0.00    +0.000 A 
ATOM     26  C   UNL     1       4.902  -5.344  23.624  0.00  0.00    +0.000 A 
ATOM     27  C   UNL     1       4.724  -6.553  24.600  0.00  0.00    +0.000 A 
BRANCH  26  28
ATOM     28  N   UNL     1       3.757  -4.554  23.717  0.00  0.00    +0.000 N 
ATOM     29  C   UNL     1       2.656  -5.435  23.746  0.00  0.00    +0.000 C 
ATOM     30  O   UNL     1       2.138  -5.682  22.673  0.00  0.00    +0.000 OA
ATOM     31  C   UNL     1       1.785  -5.113  24.962  0.00  0.00    +0.000 C 
ATOM     32  C   UNL     1       2.379  -3.828  25.543  0.00  0.00    +0.000 C 
ATOM     33  C   UNL     1       3.679  -3.551  24.767  0.00  0.00    +0.000 C 
ENDBRANCH  26  28
ENDBRANCH  18  24
ENDBRANCH   1  20
TORSDOF 6
ENDMDL
