MODEL 1
REMARK VINA RESULT:      -8.6      0.000      0.000
REMARK  Name = 
REMARK  6 active torsions:
REMARK  status: ('A' for Active; 'I' for Inactive)
REMARK    1  A    between atoms: C_5  and  S_6
REMARK    2  A    between atoms: S_6  and  N_9
REMARK    3  A    between atoms: C_17  and  C_19
REMARK    4  A    between atoms: C_19  and  C_22
REMARK    5  A    between atoms: C_22  and  C_24
REMARK    6  A    between atoms: C_22  and  C_41
REMARK                            x       y       z     vdW  Elec       q    Type
REMARK                         _______ _______ _______ _____ _____    ______ ____
ROOT
ATOM      1  N   UNL     1       8.806   1.161  23.219  0.00  0.00    +0.000 NA
ATOM      2  C   UNL     1      10.073   0.871  22.733  0.00  0.00    +0.000 C 
ATOM      3  C   UNL     1      10.716  -0.288  23.532  0.00  0.00    +0.000 C 
ATOM      4  N   UNL     1       9.643  -0.975  24.229  0.00  0.00    +0.000 N 
ATOM      5  C   UNL     1       9.552  -2.320  24.342  0.00  0.00    +0.000 C 
ATOM      6  O   UNL     1      10.515  -2.996  23.955  0.00  0.00    +0.000 OA
ATOM      7  C   UNL     1       8.961  -0.152  25.245  0.00  0.00    +0.000 C 
ATOM      8  C   UNL     1       8.751   1.239  24.622  0.00  0.00    +0.000 C 
ENDROOT
BRANCH   1   9
ATOM      9  S   UNL     1       7.512   0.564  22.491  0.00  0.00    +0.000 S 
ATOM     10  O   UNL     1       6.956   1.708  21.683  0.00  0.00    +0.000 OA
ATOM     11  O   UNL     1       6.534   0.129  23.445  0.00  0.00    +0.000 OA
BRANCH   9  14
ATOM     12  C   UNL     1       7.463   0.127  18.852  0.00  0.00    +0.000 A 
ATOM     13  C   UNL     1       8.312  -0.048  20.093  0.00  0.00    +0.000 A 
ATOM     14  C   UNL     1       7.940  -0.717  21.361  0.00  0.00    +0.000 A 
ATOM     15  C   UNL     1       6.653  -1.408  21.067  0.00  0.00    +0.000 A 
ATOM     16  C   UNL     1       5.617  -1.355  20.092  0.00  0.00    +0.000 A 
ATOM     17  C   UNL     1       6.115  -0.435  18.984  0.00  0.00    +0.000 A 
ATOM     18 CL   UNL     1       4.924   0.846  18.822  0.00  0.00    +0.000 Cl
ENDBRANCH   9  14
ENDBRANCH   1   9
BRANCH   5  19
ATOM     19  C   UNL     1       8.191  -2.908  24.541  0.00  0.00    +0.000 C 
BRANCH  19  20
ATOM     20  C   UNL     1       8.070  -4.354  24.489  0.00  0.00    +0.000 C 
ATOM     21  C   UNL     1       8.191  -4.886  25.986  0.00  0.00    +0.000 C 
BRANCH  20  22
ATOM     22  C   UNL     1       7.007  -5.159  23.942  0.00  0.00    +0.000 A 
ATOM     23  C   UNL     1       7.454  -5.682  22.578  0.00  0.00    +0.000 A 
ATOM     24  C   UNL     1       6.402  -5.874  21.467  0.00  0.00    +0.000 A 
ATOM     25  C   UNL     1       5.049  -5.802  22.061  0.00  0.00    +0.000 A 
ATOM     26  C   UNL     1       4.627  -4.980  22.920  0.00  0.00    +0.000 A 
ATOM     27  C   UNL     1       3.480  -5.142  23.631  0.00  0.00    +0.000 A 
ATOM     28  C   UNL     1       2.621  -5.992  24.374  0.00  0.00    +0.000 A 
ATOM     29  C   UNL     1       3.842  -6.547  25.172  0.00  0.00    +0.000 A 
ATOM     30  C   UNL     1       5.119  -6.461  24.951  0.00  0.00    +0.000 A 
ATOM     31  C   UNL     1       5.646  -5.270  24.234  0.00  0.00    +0.000 A 
ENDBRANCH  20  22
ENDBRANCH  19  20
ENDBRANCH   5  19
TORSDOF 5
ENDMDL
MODEL 2
REMARK VINA RESULT:      -8.0      1.216      1.976
REMARK  Name = 
REMARK  6 active torsions:
REMARK  status: ('A' for Active; 'I' for Inactive)
REMARK    1  A    between atoms: C_5  and  S_6
REMARK    2  A    between atoms: S_6  and  N_9
REMARK    3  A    between atoms: C_17  and  C_19
REMARK    4  A    between atoms: C_19  and  C_22
REMARK    5  A    between atoms: C_22  and  C_24
REMARK    6  A    between atoms: C_22  and  C_41
REMARK                            x       y       z     vdW  Elec       q    Type
REMARK                         _______ _______ _______ _____ _____    ______ ____
ROOT
ATOM      1  N   UNL     1       8.786   1.022  23.416  0.00  0.00    +0.000 NA
ATOM      2  C   UNL     1      10.079   0.698  23.031  0.00  0.00    +0.000 C 
ATOM      3  C   UNL     1      10.586  -0.547  23.796  0.00  0.00    +0.000 C 
ATOM      4  N   UNL     1       9.419  -1.222  24.338  0.00  0.00    +0.000 N 
ATOM      5  C   UNL     1       9.253  -2.565  24.340  0.00  0.00    +0.000 C 
ATOM      6  O   UNL     1      10.217  -3.263  23.995  0.00  0.00    +0.000 OA
ATOM      7  C   UNL     1       8.681  -0.437  25.344  0.00  0.00    +0.000 C 
ATOM      8  C   UNL     1       8.599   1.004  24.810  0.00  0.00    +0.000 C 
ENDROOT
BRANCH   1   9
ATOM      9  S   UNL     1       7.542   0.549  22.529  0.00  0.00    +0.000 S 
ATOM     10  O   UNL     1       7.145   1.765  21.733  0.00  0.00    +0.000 OA
ATOM     11  O   UNL     1       6.444   0.134  23.352  0.00  0.00    +0.000 OA
BRANCH   9  14
ATOM     12  C   UNL     1       7.512   0.172  18.882  0.00  0.00    +0.000 A 
ATOM     13  C   UNL     1       8.363  -0.000  20.123  0.00  0.00    +0.000 A 
ATOM     14  C   UNL     1       8.007  -0.701  21.378  0.00  0.00    +0.000 A 
ATOM     15  C   UNL     1       6.741  -1.422  21.069  0.00  0.00    +0.000 A 
ATOM     16  C   UNL     1       5.706  -1.381  20.093  0.00  0.00    +0.000 A 
ATOM     17  C   UNL     1       6.180  -0.429  19.001  0.00  0.00    +0.000 A 
ATOM     18 CL   UNL     1       4.955   0.822  18.858  0.00  0.00    +0.000 Cl
ENDBRANCH   9  14
ENDBRANCH   1   9
BRANCH   5  19
ATOM     19  C   UNL     1       7.853  -3.090  24.367  0.00  0.00    +0.000 C 
BRANCH  19  20
ATOM     20  C   UNL     1       7.589  -4.257  25.191  0.00  0.00    +0.000 C 
ATOM     21  C   UNL     1       8.449  -4.093  26.521  0.00  0.00    +0.000 C 
BRANCH  20  22
ATOM     22  C   UNL     1       6.329  -4.762  25.676  0.00  0.00    +0.000 A 
ATOM     23  C   UNL     1       6.440  -4.954  27.187  0.00  0.00    +0.000 A 
ATOM     24  C   UNL     1       5.666  -6.110  27.854  0.00  0.00    +0.000 A 
ATOM     25  C   UNL     1       4.675  -6.647  26.896  0.00  0.00    +0.000 A 
ATOM     26  C   UNL     1       4.840  -6.888  25.669  0.00  0.00    +0.000 A 
ATOM     27  C   UNL     1       3.826  -7.103  24.790  0.00  0.00    +0.000 A 
ATOM     28  C   UNL     1       2.546  -6.738  24.300  0.00  0.00    +0.000 A 
ATOM     29  C   UNL     1       2.964  -5.234  24.295  0.00  0.00    +0.000 A 
ATOM     30  C   UNL     1       3.969  -4.625  24.847  0.00  0.00    +0.000 A 
ATOM     31  C   UNL     1       5.240  -5.369  25.050  0.00  0.00    +0.000 A 
ENDBRANCH  20  22
ENDBRANCH  19  20
ENDBRANCH   5  19
TORSDOF 5
ENDMDL
MODEL 3
REMARK VINA RESULT:      -7.6      3.118      7.114
REMARK  Name = 
REMARK  6 active torsions:
REMARK  status: ('A' for Active; 'I' for Inactive)
REMARK    1  A    between atoms: C_5  and  S_6
REMARK    2  A    between atoms: S_6  and  N_9
REMARK    3  A    between atoms: C_17  and  C_19
REMARK    4  A    between atoms: C_19  and  C_22
REMARK    5  A    between atoms: C_22  and  C_24
REMARK    6  A    between atoms: C_22  and  C_41
REMARK                            x       y       z     vdW  Elec       q    Type
REMARK                         _______ _______ _______ _____ _____    ______ ____
ROOT
ATOM      1  N   UNL     1       6.893  -4.002  25.048  0.00  0.00    +0.000 NA
ATOM      2  C   UNL     1       8.156  -4.016  25.622  0.00  0.00    +0.000 C 
ATOM      3  C   UNL     1       9.245  -3.721  24.563  0.00  0.00    +0.000 C 
ATOM      4  N   UNL     1       8.581  -3.106  23.426  0.00  0.00    +0.000 N 
ATOM      5  C   UNL     1       9.082  -2.059  22.732  0.00  0.00    +0.000 C 
ATOM      6  O   UNL     1      10.240  -1.700  22.989  0.00  0.00    +0.000 OA
ATOM      7  C   UNL     1       7.619  -3.988  22.740  0.00  0.00    +0.000 C 
ATOM      8  C   UNL     1       6.823  -4.714  23.838  0.00  0.00    +0.000 C 
ENDROOT
BRANCH   1   9
ATOM      9  S   UNL     1       5.979  -2.694  25.154  0.00  0.00    +0.000 S 
ATOM     10  O   UNL     1       5.079  -2.940  26.337  0.00  0.00    +0.000 OA
ATOM     11  O   UNL     1       5.183  -2.518  23.974  0.00  0.00    +0.000 OA
BRANCH   9  14
ATOM     12  C   UNL     1       5.954  -0.075  27.720  0.00  0.00    +0.000 A 
ATOM     13  C   UNL     1       6.842  -1.053  26.979  0.00  0.00    +0.000 A 
ATOM     14  C   UNL     1       6.938  -1.262  25.516  0.00  0.00    +0.000 A 
ATOM     15  C   UNL     1       6.176  -0.132  24.915  0.00  0.00    +0.000 A 
ATOM     16  C   UNL     1       5.206   0.829  25.319  0.00  0.00    +0.000 A 
ATOM     17  C   UNL     1       5.097   0.719  26.836  0.00  0.00    +0.000 A 
ATOM     18 CL   UNL     1       3.410   0.385  27.195  0.00  0.00    +0.000 Cl
ENDBRANCH   9  14
ENDBRANCH   1   9
BRANCH   5  19
ATOM     19  C   UNL     1       8.112  -1.176  22.014  0.00  0.00    +0.000 C 
BRANCH  19  20
ATOM     20  C   UNL     1       8.636   0.022  21.380  0.00  0.00    +0.000 C 
ATOM     21  C   UNL     1       7.811   0.235  20.034  0.00  0.00    +0.000 C 
BRANCH  20  22
ATOM     22  C   UNL     1       8.747   1.358  21.910  0.00  0.00    +0.000 A 
ATOM     23  C   UNL     1      10.226   1.735  21.955  0.00  0.00    +0.000 A 
ATOM     24  C   UNL     1      10.732   2.652  23.087  0.00  0.00    +0.000 A 
ATOM     25  C   UNL     1       9.571   3.268  23.767  0.00  0.00    +0.000 A 
ATOM     26  C   UNL     1       8.493   2.710  24.111  0.00  0.00    +0.000 A 
ATOM     27  C   UNL     1       7.366   3.382  24.465  0.00  0.00    +0.000 A 
ATOM     28  C   UNL     1       6.459   4.445  24.222  0.00  0.00    +0.000 A 
ATOM     29  C   UNL     1       6.427   4.086  22.704  0.00  0.00    +0.000 A 
ATOM     30  C   UNL     1       7.201   3.328  21.988  0.00  0.00    +0.000 A 
ATOM     31  C   UNL     1       7.875   2.172  22.635  0.00  0.00    +0.000 A 
ENDBRANCH  20  22
ENDBRANCH  19  20
ENDBRANCH   5  19
TORSDOF 5
ENDMDL
MODEL 4
REMARK VINA RESULT:      -7.5      2.579      4.196
REMARK  Name = 
REMARK  6 active torsions:
REMARK  status: ('A' for Active; 'I' for Inactive)
REMARK    1  A    between atoms: C_5  and  S_6
REMARK    2  A    between atoms: S_6  and  N_9
REMARK    3  A    between atoms: C_17  and  C_19
REMARK    4  A    between atoms: C_19  and  C_22
REMARK    5  A    between atoms: C_22  and  C_24
REMARK    6  A    between atoms: C_22  and  C_41
REMARK                            x       y       z     vdW  Elec       q    Type
REMARK                         _______ _______ _______ _____ _____    ______ ____
ROOT
ATOM      1  N   UNL     1       7.783   0.881  25.430  0.00  0.00    +0.000 NA
ATOM      2  C   UNL     1       7.635   1.384  26.714  0.00  0.00    +0.000 C 
ATOM      3  C   UNL     1       6.186   1.185  27.218  0.00  0.00    +0.000 C 
ATOM      4  N   UNL     1       5.575   0.170  26.378  0.00  0.00    +0.000 N 
ATOM      5  C   UNL     1       4.775  -0.818  26.843  0.00  0.00    +0.000 C 
ATOM      6  O   UNL     1       4.427  -0.763  28.031  0.00  0.00    +0.000 OA
ATOM      7  C   UNL     1       5.431   0.563  24.966  0.00  0.00    +0.000 C 
ATOM      8  C   UNL     1       6.743   1.256  24.561  0.00  0.00    +0.000 C 
ENDROOT
BRANCH   1   9
ATOM      9  S   UNL     1       8.404  -0.576  25.206  0.00  0.00    +0.000 S 
ATOM     10  O   UNL     1       7.531  -1.216  24.157  0.00  0.00    +0.000 OA
ATOM     11  O   UNL     1       8.355  -1.352  26.411  0.00  0.00    +0.000 OA
BRANCH   9  14
ATOM     12  C   UNL     1      10.099   1.356  22.592  0.00  0.00    +0.000 A 
ATOM     13  C   UNL     1      10.203   0.887  24.028  0.00  0.00    +0.000 A 
ATOM     14  C   UNL     1      10.035  -0.490  24.547  0.00  0.00    +0.000 A 
ATOM     15  C   UNL     1      10.002  -1.356  23.336  0.00  0.00    +0.000 A 
ATOM     16  C   UNL     1       9.791  -1.216  21.935  0.00  0.00    +0.000 A 
ATOM     17  C   UNL     1       9.773   0.282  21.650  0.00  0.00    +0.000 A 
ATOM     18 CL   UNL     1       8.235   0.626  20.873  0.00  0.00    +0.000 Cl
ENDBRANCH   9  14
ENDBRANCH   1   9
BRANCH   5  19
ATOM     19  C   UNL     1       4.694  -2.078  26.042  0.00  0.00    +0.000 C 
BRANCH  19  20
ATOM     20  C   UNL     1       5.409  -3.239  26.542  0.00  0.00    +0.000 C 
ATOM     21  C   UNL     1       4.351  -4.140  27.320  0.00  0.00    +0.000 C 
BRANCH  20  22
ATOM     22  C   UNL     1       6.191  -4.208  25.816  0.00  0.00    +0.000 A 
ATOM     23  C   UNL     1       7.339  -4.668  26.712  0.00  0.00    +0.000 A 
ATOM     24  C   UNL     1       8.691  -5.036  26.069  0.00  0.00    +0.000 A 
ATOM     25  C   UNL     1       8.512  -5.173  24.607  0.00  0.00    +0.000 A 
ATOM     26  C   UNL     1       7.858  -4.419  23.836  0.00  0.00    +0.000 A 
ATOM     27  C   UNL     1       7.495  -4.753  22.569  0.00  0.00    +0.000 A 
ATOM     28  C   UNL     1       6.982  -5.720  21.668  0.00  0.00    +0.000 A 
ATOM     29  C   UNL     1       5.839  -6.066  22.672  0.00  0.00    +0.000 A 
ATOM     30  C   UNL     1       5.691  -5.781  23.931  0.00  0.00    +0.000 A 
ATOM     31  C   UNL     1       6.293  -4.530  24.461  0.00  0.00    +0.000 A 
ENDBRANCH  20  22
ENDBRANCH  19  20
ENDBRANCH   5  19
TORSDOF 5
ENDMDL
MODEL 5
REMARK VINA RESULT:      -7.5      2.031      3.170
REMARK  Name = 
REMARK  6 active torsions:
REMARK  status: ('A' for Active; 'I' for Inactive)
REMARK    1  A    between atoms: C_5  and  S_6
REMARK    2  A    between atoms: S_6  and  N_9
REMARK    3  A    between atoms: C_17  and  C_19
REMARK    4  A    between atoms: C_19  and  C_22
REMARK    5  A    between atoms: C_22  and  C_24
REMARK    6  A    between atoms: C_22  and  C_41
REMARK                            x       y       z     vdW  Elec       q    Type
REMARK                         _______ _______ _______ _____ _____    ______ ____
ROOT
ATOM      1  N   UNL     1       8.402   1.005  24.653  0.00  0.00    +0.000 NA
ATOM      2  C   UNL     1       9.402   0.097  24.972  0.00  0.00    +0.000 C 
ATOM      3  C   UNL     1       8.955  -0.829  26.127  0.00  0.00    +0.000 C 
ATOM      4  N   UNL     1       7.507  -0.743  26.211  0.00  0.00    +0.000 N 
ATOM      5  C   UNL     1       6.695  -1.804  26.421  0.00  0.00    +0.000 C 
ATOM      6  O   UNL     1       7.227  -2.887  26.705  0.00  0.00    +0.000 OA
ATOM      7  C   UNL     1       7.004   0.592  26.584  0.00  0.00    +0.000 C 
ATOM      8  C   UNL     1       7.824   1.616  25.780  0.00  0.00    +0.000 C 
ENDROOT
BRANCH   1   9
ATOM      9  S   UNL     1       7.423   0.720  23.421  0.00  0.00    +0.000 S 
ATOM     10  O   UNL     1       6.070   1.204  23.876  0.00  0.00    +0.000 OA
ATOM     11  O   UNL     1       7.357  -0.681  23.123  0.00  0.00    +0.000 OA
BRANCH   9  14
ATOM     12  C   UNL     1       5.993   1.356  20.106  0.00  0.00    +0.000 A 
ATOM     13  C   UNL     1       6.604   2.020  21.322  0.00  0.00    +0.000 A 
ATOM     14  C   UNL     1       7.869   1.671  22.007  0.00  0.00    +0.000 A 
ATOM     15  C   UNL     1       8.545   0.704  21.097  0.00  0.00    +0.000 A 
ATOM     16  C   UNL     1       8.205  -0.141  20.004  0.00  0.00    +0.000 A 
ATOM     17  C   UNL     1       6.782   0.228  19.600  0.00  0.00    +0.000 A 
ATOM     18 CL   UNL     1       5.833  -1.247  19.700  0.00  0.00    +0.000 Cl
ENDBRANCH   9  14
ENDBRANCH   1   9
BRANCH   5  19
ATOM     19  C   UNL     1       5.288  -1.710  25.922  0.00  0.00    +0.000 C 
BRANCH  19  20
ATOM     20  C   UNL     1       4.562  -2.952  25.722  0.00  0.00    +0.000 C 
ATOM     21  C   UNL     1       3.058  -2.691  26.178  0.00  0.00    +0.000 C 
BRANCH  20  22
ATOM     22  C   UNL     1       4.408  -3.733  24.521  0.00  0.00    +0.000 A 
ATOM     23  C   UNL     1       2.974  -4.255  24.468  0.00  0.00    +0.000 A 
ATOM     24  C   UNL     1       2.701  -5.634  23.833  0.00  0.00    +0.000 A 
ATOM     25  C   UNL     1       3.901  -6.070  23.085  0.00  0.00    +0.000 A 
ATOM     26  C   UNL     1       5.107  -5.991  23.448  0.00  0.00    +0.000 A 
ATOM     27  C   UNL     1       6.167  -6.139  22.610  0.00  0.00    +0.000 A 
ATOM     28  C   UNL     1       6.775  -5.860  21.360  0.00  0.00    +0.000 A 
ATOM     29  C   UNL     1       6.396  -4.352  21.500  0.00  0.00    +0.000 A 
ATOM     30  C   UNL     1       5.570  -3.749  22.301  0.00  0.00    +0.000 A 
ATOM     31  C   UNL     1       5.319  -4.329  23.647  0.00  0.00    +0.000 A 
ENDBRANCH  20  22
ENDBRANCH  19  20
ENDBRANCH   5  19
TORSDOF 5
ENDMDL
MODEL 6
REMARK VINA RESULT:      -7.5      2.333      3.620
REMARK  Name = 
REMARK  6 active torsions:
REMARK  status: ('A' for Active; 'I' for Inactive)
REMARK    1  A    between atoms: C_5  and  S_6
REMARK    2  A    between atoms: S_6  and  N_9
REMARK    3  A    between atoms: C_17  and  C_19
REMARK    4  A    between atoms: C_19  and  C_22
REMARK    5  A    between atoms: C_22  and  C_24
REMARK    6  A    between atoms: C_22  and  C_41
REMARK                            x       y       z     vdW  Elec       q    Type
REMARK                         _______ _______ _______ _____ _____    ______ ____
ROOT
ATOM      1  N   UNL     1       8.642  -0.404  23.653  0.00  0.00    +0.000 NA
ATOM      2  C   UNL     1       9.761  -0.882  24.319  0.00  0.00    +0.000 C 
ATOM      3  C   UNL     1       9.486  -2.281  24.921  0.00  0.00    +0.000 C 
ATOM      4  N   UNL     1       8.321  -2.819  24.241  0.00  0.00    +0.000 N 
ATOM      5  C   UNL     1       8.205  -4.106  23.840  0.00  0.00    +0.000 C 
ATOM      6  O   UNL     1       9.081  -4.903  24.206  0.00  0.00    +0.000 OA
ATOM      7  C   UNL     1       7.081  -2.058  24.477  0.00  0.00    +0.000 C 
ATOM      8  C   UNL     1       7.449  -0.567  24.380  0.00  0.00    +0.000 C 
ENDROOT
BRANCH   1   9
ATOM      9  S   UNL     1       8.530  -0.550  22.064  0.00  0.00    +0.000 S 
ATOM     10  O   UNL     1       7.077  -0.847  21.800  0.00  0.00    +0.000 OA
ATOM     11  O   UNL     1       9.337  -1.633  21.584  0.00  0.00    +0.000 OA
BRANCH   9  14
ATOM     12  C   UNL     1      10.087   2.636  22.995  0.00  0.00    +0.000 A 
ATOM     13  C   UNL     1      10.080   1.536  21.954  0.00  0.00    +0.000 A 
ATOM     14  C   UNL     1       8.911   0.963  21.247  0.00  0.00    +0.000 A 
ATOM     15  C   UNL     1       7.778   1.871  21.580  0.00  0.00    +0.000 A 
ATOM     16  C   UNL     1       7.462   2.864  22.549  0.00  0.00    +0.000 A 
ATOM     17  C   UNL     1       8.749   3.143  23.316  0.00  0.00    +0.000 A 
ATOM     18 CL   UNL     1       8.398   2.848  25.012  0.00  0.00    +0.000 Cl
ENDBRANCH   9  14
ENDBRANCH   1   9
BRANCH   5  19
ATOM     19  C   UNL     1       7.288  -4.394  22.694  0.00  0.00    +0.000 C 
BRANCH  19  20
ATOM     20  C   UNL     1       6.015  -5.026  22.995  0.00  0.00    +0.000 C 
ATOM     21  C   UNL     1       5.774  -6.141  21.883  0.00  0.00    +0.000 C 
BRANCH  20  22
ATOM     22  C   UNL     1       5.584  -5.675  24.208  0.00  0.00    +0.000 A 
ATOM     23  C   UNL     1       4.741  -6.890  23.828  0.00  0.00    +0.000 A 
ATOM     24  C   UNL     1       3.570  -7.304  24.742  0.00  0.00    +0.000 A 
ATOM     25  C   UNL     1       3.687  -6.593  26.034  0.00  0.00    +0.000 A 
ATOM     26  C   UNL     1       3.975  -5.380  26.223  0.00  0.00    +0.000 A 
ATOM     27  C   UNL     1       4.347  -4.861  27.423  0.00  0.00    +0.000 A 
ATOM     28  C   UNL     1       5.110  -4.979  28.613  0.00  0.00    +0.000 A 
ATOM     29  C   UNL     1       6.366  -5.384  27.780  0.00  0.00    +0.000 A 
ATOM     30  C   UNL     1       6.487  -5.762  26.543  0.00  0.00    +0.000 A 
ATOM     31  C   UNL     1       5.513  -5.259  25.538  0.00  0.00    +0.000 A 
ENDBRANCH  20  22
ENDBRANCH  19  20
ENDBRANCH   5  19
TORSDOF 5
ENDMDL
MODEL 7
REMARK VINA RESULT:      -7.5      2.749      3.564
REMARK  Name = 
REMARK  6 active torsions:
REMARK  status: ('A' for Active; 'I' for Inactive)
REMARK    1  A    between atoms: C_5  and  S_6
REMARK    2  A    between atoms: S_6  and  N_9
REMARK    3  A    between atoms: C_17  and  C_19
REMARK    4  A    between atoms: C_19  and  C_22
REMARK    5  A    between atoms: C_22  and  C_24
REMARK    6  A    between atoms: C_22  and  C_41
REMARK                            x       y       z     vdW  Elec       q    Type
REMARK                         _______ _______ _______ _____ _____    ______ ____
ROOT
ATOM      1  N   UNL     1       9.073   1.852  23.797  0.00  0.00    +0.000 NA
ATOM      2  C   UNL     1       8.698   1.809  22.462  0.00  0.00    +0.000 C 
ATOM      3  C   UNL     1       9.202   0.510  21.791  0.00  0.00    +0.000 C 
ATOM      4  N   UNL     1       9.519  -0.427  22.855  0.00  0.00    +0.000 N 
ATOM      5  C   UNL     1       9.221  -1.747  22.817  0.00  0.00    +0.000 C 
ATOM      6  O   UNL     1       8.786  -2.207  21.752  0.00  0.00    +0.000 OA
ATOM      7  C   UNL     1      10.630   0.002  23.724  0.00  0.00    +0.000 C 
ATOM      8  C   UNL     1      10.417   1.499  24.010  0.00  0.00    +0.000 C 
ENDROOT
BRANCH   1   9
ATOM      9  S   UNL     1       8.037   1.418  24.936  0.00  0.00    +0.000 S 
ATOM     10  O   UNL     1       7.795   2.668  25.742  0.00  0.00    +0.000 OA
ATOM     11  O   UNL     1       8.591   0.401  25.782  0.00  0.00    +0.000 OA
BRANCH   9  14
ATOM     12  C   UNL     1       4.534   1.468  26.016  0.00  0.00    +0.000 A 
ATOM     13  C   UNL     1       5.465   1.800  24.869  0.00  0.00    +0.000 A 
ATOM     14  C   UNL     1       6.490   0.929  24.250  0.00  0.00    +0.000 A 
ATOM     15  C   UNL     1       6.235  -0.426  24.816  0.00  0.00    +0.000 A 
ATOM     16  C   UNL     1       5.547  -1.003  25.919  0.00  0.00    +0.000 A 
ATOM     17  C   UNL     1       4.728   0.117  26.551  0.00  0.00    +0.000 A 
ATOM     18 CL   UNL     1       5.223   0.214  28.234  0.00  0.00    +0.000 Cl
ENDBRANCH   9  14
ENDBRANCH   1   9
BRANCH   5  19
ATOM     19  C   UNL     1       9.057  -2.457  24.123  0.00  0.00    +0.000 C 
BRANCH  19  20
ATOM     20  C   UNL     1       8.774  -3.882  24.081  0.00  0.00    +0.000 C 
ATOM     21  C   UNL     1       9.376  -4.515  25.412  0.00  0.00    +0.000 C 
BRANCH  20  22
ATOM     22  C   UNL     1       7.506  -4.554  23.944  0.00  0.00    +0.000 A 
ATOM     23  C   UNL     1       7.608  -5.536  22.778  0.00  0.00    +0.000 A 
ATOM     24  C   UNL     1       6.360  -5.804  21.914  0.00  0.00    +0.000 A 
ATOM     25  C   UNL     1       5.166  -5.264  22.602  0.00  0.00    +0.000 A 
ATOM     26  C   UNL     1       5.053  -4.156  23.194  0.00  0.00    +0.000 A 
ATOM     27  C   UNL     1       4.039  -3.846  24.045  0.00  0.00    +0.000 A 
ATOM     28  C   UNL     1       3.188  -4.230  25.112  0.00  0.00    +0.000 A 
ATOM     29  C   UNL     1       4.414  -4.786  25.903  0.00  0.00    +0.000 A 
ATOM     30  C   UNL     1       5.627  -5.053  25.523  0.00  0.00    +0.000 A 
ATOM     31  C   UNL     1       6.221  -4.270  24.408  0.00  0.00    +0.000 A 
ENDBRANCH  20  22
ENDBRANCH  19  20
ENDBRANCH   5  19
TORSDOF 5
ENDMDL
MODEL 8
REMARK VINA RESULT:      -7.4      2.885      7.100
REMARK  Name = 
REMARK  6 active torsions:
REMARK  status: ('A' for Active; 'I' for Inactive)
REMARK    1  A    between atoms: C_5  and  S_6
REMARK    2  A    between atoms: S_6  and  N_9
REMARK    3  A    between atoms: C_17  and  C_19
REMARK    4  A    between atoms: C_19  and  C_22
REMARK    5  A    between atoms: C_22  and  C_24
REMARK    6  A    between atoms: C_22  and  C_41
REMARK                            x       y       z     vdW  Elec       q    Type
REMARK                         _______ _______ _______ _____ _____    ______ ____
ROOT
ATOM      1  N   UNL     1       6.162  -3.943  24.707  0.00  0.00    +0.000 NA
ATOM      2  C   UNL     1       6.924  -4.723  23.850  0.00  0.00    +0.000 C 
ATOM      3  C   UNL     1       7.898  -3.846  23.027  0.00  0.00    +0.000 C 
ATOM      4  N   UNL     1       8.007  -2.570  23.712  0.00  0.00    +0.000 N 
ATOM      5  C   UNL     1       9.169  -1.894  23.873  0.00  0.00    +0.000 C 
ATOM      6  O   UNL     1      10.168  -2.317  23.275  0.00  0.00    +0.000 OA
ATOM      7  C   UNL     1       6.752  -1.799  23.754  0.00  0.00    +0.000 C 
ATOM      8  C   UNL     1       5.630  -2.796  24.091  0.00  0.00    +0.000 C 
ENDROOT
BRANCH   1   9
ATOM      9  S   UNL     1       6.582  -3.792  26.243  0.00  0.00    +0.000 S 
ATOM     10  O   UNL     1       6.333  -2.344  26.576  0.00  0.00    +0.000 OA
ATOM     11  O   UNL     1       7.971  -4.097  26.434  0.00  0.00    +0.000 OA
BRANCH   9  14
ATOM     12  C   UNL     1       4.571  -6.838  25.898  0.00  0.00    +0.000 A 
ATOM     13  C   UNL     1       5.596  -6.140  26.769  0.00  0.00    +0.000 A 
ATOM     14  C   UNL     1       5.549  -4.756  27.294  0.00  0.00    +0.000 A 
ATOM     15  C   UNL     1       4.166  -4.282  27.006  0.00  0.00    +0.000 A 
ATOM     16  C   UNL     1       3.074  -4.640  26.167  0.00  0.00    +0.000 A 
ATOM     17  C   UNL     1       3.428  -5.988  25.550  0.00  0.00    +0.000 A 
ATOM     18 CL   UNL     1       3.362  -5.776  23.807  0.00  0.00    +0.000 Cl
ENDBRANCH   9  14
ENDBRANCH   1   9
BRANCH   5  19
ATOM     19  C   UNL     1       9.269  -0.956  25.033  0.00  0.00    +0.000 C 
BRANCH  19  20
ATOM     20  C   UNL     1       9.555   0.439  24.747  0.00  0.00    +0.000 C 
ATOM     21  C   UNL     1      11.138   0.609  24.794  0.00  0.00    +0.000 C 
BRANCH  20  22
ATOM     22  C   UNL     1       9.175   1.230  23.604  0.00  0.00    +0.000 A 
ATOM     23  C   UNL     1       9.655   2.663  23.830  0.00  0.00    +0.000 A 
ATOM     24  C   UNL     1       8.817   3.830  23.272  0.00  0.00    +0.000 A 
ATOM     25  C   UNL     1       7.823   3.300  22.312  0.00  0.00    +0.000 A 
ATOM     26  C   UNL     1       7.103   2.273  22.438  0.00  0.00    +0.000 A 
ATOM     27  C   UNL     1       6.430   1.683  21.414  0.00  0.00    +0.000 A 
ATOM     28  C   UNL     1       6.415   1.236  20.069  0.00  0.00    +0.000 A 
ATOM     29  C   UNL     1       7.809   0.562  20.266  0.00  0.00    +0.000 A 
ATOM     30  C   UNL     1       8.698   0.694  21.204  0.00  0.00    +0.000 A 
ATOM     31  C   UNL     1       8.248   1.040  22.578  0.00  0.00    +0.000 A 
ENDBRANCH  20  22
ENDBRANCH  19  20
ENDBRANCH   5  19
TORSDOF 5
ENDMDL
MODEL 9
REMARK VINA RESULT:      -7.4      3.068      7.261
REMARK  Name = 
REMARK  6 active torsions:
REMARK  status: ('A' for Active; 'I' for Inactive)
REMARK    1  A    between atoms: C_5  and  S_6
REMARK    2  A    between atoms: S_6  and  N_9
REMARK    3  A    between atoms: C_17  and  C_19
REMARK    4  A    between atoms: C_19  and  C_22
REMARK    5  A    between atoms: C_22  and  C_24
REMARK    6  A    between atoms: C_22  and  C_41
REMARK                            x       y       z     vdW  Elec       q    Type
REMARK                         _______ _______ _______ _____ _____    ______ ____
ROOT
ATOM      1  N   UNL     1       7.113  -3.672  25.152  0.00  0.00    +0.000 NA
ATOM      2  C   UNL     1       8.400  -3.631  25.670  0.00  0.00    +0.000 C 
ATOM      3  C   UNL     1       9.443  -3.477  24.538  0.00  0.00    +0.000 C 
ATOM      4  N   UNL     1       8.735  -2.996  23.364  0.00  0.00    +0.000 N 
ATOM      5  C   UNL     1       9.211  -2.045  22.528  0.00  0.00    +0.000 C 
ATOM      6  O   UNL     1      10.381  -1.670  22.692  0.00  0.00    +0.000 OA
ATOM      7  C   UNL     1       7.740  -3.944  22.831  0.00  0.00    +0.000 C 
ATOM      8  C   UNL     1       6.987  -4.525  24.041  0.00  0.00    +0.000 C 
ENDROOT
BRANCH   1   9
ATOM      9  S   UNL     1       6.211  -2.351  25.137  0.00  0.00    +0.000 S 
ATOM     10  O   UNL     1       5.512  -2.369  23.803  0.00  0.00    +0.000 OA
ATOM     11  O   UNL     1       7.017  -1.170  25.242  0.00  0.00    +0.000 OA
BRANCH   9  14
ATOM     12  C   UNL     1       5.052  -4.796  27.611  0.00  0.00    +0.000 A 
ATOM     13  C   UNL     1       5.449  -3.348  27.416  0.00  0.00    +0.000 A 
ATOM     14  C   UNL     1       4.965  -2.406  26.381  0.00  0.00    +0.000 A 
ATOM     15  C   UNL     1       3.815  -3.100  25.737  0.00  0.00    +0.000 A 
ATOM     16  C   UNL     1       3.294  -4.420  25.632  0.00  0.00    +0.000 A 
ATOM     17  C   UNL     1       4.085  -5.274  26.617  0.00  0.00    +0.000 A 
ATOM     18 CL   UNL     1       4.794  -6.586  25.688  0.00  0.00    +0.000 Cl
ENDBRANCH   9  14
ENDBRANCH   1   9
BRANCH   5  19
ATOM     19  C   UNL     1       8.216  -1.245  21.750  0.00  0.00    +0.000 C 
BRANCH  19  20
ATOM     20  C   UNL     1       8.649   0.038  21.224  0.00  0.00    +0.000 C 
ATOM     21  C   UNL     1       7.804   0.308  19.901  0.00  0.00    +0.000 C 
BRANCH  20  22
ATOM     22  C   UNL     1       8.667   1.327  21.869  0.00  0.00    +0.000 A 
ATOM     23  C   UNL     1      10.122   1.760  22.035  0.00  0.00    +0.000 A 
ATOM     24  C   UNL     1      10.518   2.597  23.268  0.00  0.00    +0.000 A 
ATOM     25  C   UNL     1       9.294   3.103  23.926  0.00  0.00    +0.000 A 
ATOM     26  C   UNL     1       8.226   2.473  24.156  0.00  0.00    +0.000 A 
ATOM     27  C   UNL     1       7.049   3.063  24.496  0.00  0.00    +0.000 A 
ATOM     28  C   UNL     1       6.108   4.104  24.289  0.00  0.00    +0.000 A 
ATOM     29  C   UNL     1       6.179   3.876  22.747  0.00  0.00    +0.000 A 
ATOM     30  C   UNL     1       7.028   3.215  22.018  0.00  0.00    +0.000 A 
ATOM     31  C   UNL     1       7.718   2.037  22.606  0.00  0.00    +0.000 A 
ENDBRANCH  20  22
ENDBRANCH  19  20
ENDBRANCH   5  19
TORSDOF 5
ENDMDL
