MODEL 1
REMARK VINA RESULT:      -8.8      0.000      0.000
REMARK  Name = 
REMARK  8 active torsions:
REMARK  status: ('A' for Active; 'I' for Inactive)
REMARK    1  A    between atoms: C_11  and  N_13
REMARK    2  A    between atoms: N_13  and  C_39
REMARK    3  A    between atoms: C_14  and  C_16
REMARK    4  A    between atoms: C_16  and  S_19
REMARK    5  A    between atoms: S_19  and  C_22
REMARK    6  A    between atoms: C_22  and  C_25
REMARK    7  A    between atoms: C_34  and  C_35
REMARK    8  A    between atoms: C_44  and  C_45
REMARK                            x       y       z     vdW  Elec       q    Type
REMARK                         _______ _______ _______ _____ _____    ______ ____
ROOT
ATOM      1  N   UNL     1       8.136  -0.023  21.681  0.00  0.00    +0.000 N 
ATOM      2  C   UNL     1       7.755  -1.312  21.799  0.00  0.00    +0.000 C 
ATOM      3  O   UNL     1       8.787  -2.141  21.565  0.00  0.00    +0.000 OA
ENDROOT
BRANCH   1  10
ATOM      4  C   UNL     1       6.426   1.342  20.718  0.00  0.00    +0.000 C 
ATOM      5  C   UNL     1       5.495   1.392  19.652  0.00  0.00    +0.000 C 
ATOM      6  S   UNL     1       6.372   0.435  18.331  0.00  0.00    +0.000 S 
ATOM      7  O   UNL     1       5.625  -0.679  17.977  0.00  0.00    +0.000 OA
ATOM      8  O   UNL     1       6.826   1.373  17.380  0.00  0.00    +0.000 OA
ATOM      9  C   UNL     1       7.840  -0.142  19.251  0.00  0.00    +0.000 C 
ATOM     10  C   UNL     1       7.846   0.712  20.526  0.00  0.00    +0.000 C 
ENDBRANCH   1  10
BRANCH   1  11
ATOM     11  C   UNL     1       9.404   0.014  22.269  0.00  0.00    +0.000 A 
ATOM     12  C   UNL     1       9.906   1.353  21.909  0.00  0.00    +0.000 A 
ATOM     13  C   UNL     1      10.142   2.468  22.838  0.00  0.00    +0.000 A 
ATOM     14  C   UNL     1       9.790   2.094  24.299  0.00  0.00    +0.000 A 
ATOM     15  C   UNL     1       8.607   3.076  24.783  0.00  0.00    +0.000 C 
ATOM     16  C   UNL     1       9.805   0.702  24.784  0.00  0.00    +0.000 A 
ATOM     17  C   UNL     1       9.654  -0.368  23.655  0.00  0.00    +0.000 A 
ENDBRANCH   1  11
BRANCH   2  18
ATOM     18  C   UNL     1       6.509  -1.966  21.384  0.00  0.00    +0.000 C 
BRANCH  18  19
ATOM     19  S   UNL     1       5.942  -3.496  21.912  0.00  0.00    +0.000 S 
ATOM     20  O   UNL     1       4.771  -3.465  22.696  0.00  0.00    +0.000 OA
ATOM     21  O   UNL     1       5.913  -4.399  20.751  0.00  0.00    +0.000 OA
BRANCH  19  22
ATOM     22  C   UNL     1       7.241  -4.208  22.954  0.00  0.00    +0.000 C 
BRANCH  22  23
ATOM     23  C   UNL     1       6.834  -3.797  24.376  0.00  0.00    +0.000 A 
ATOM     24  C   UNL     1       6.776  -5.103  25.131  0.00  0.00    +0.000 A 
ATOM     25  C   UNL     1       7.648  -5.449  26.279  0.00  0.00    +0.000 A 
ATOM     26  C   UNL     1       8.595  -4.331  26.655  0.00  0.00    +0.000 A 
ATOM     27  F   UNL     1       9.862  -4.884  26.249  0.00  0.00    +0.000 F 
ATOM     28  C   UNL     1       8.442  -2.927  26.233  0.00  0.00    +0.000 A 
ATOM     29  C   UNL     1       7.357  -2.670  25.153  0.00  0.00    +0.000 A 
ATOM     30  C   UNL     1       6.354  -1.553  25.513  0.00  0.00    +0.000 C 
ENDBRANCH  22  23
ENDBRANCH  19  22
ENDBRANCH  18  19
ENDBRANCH   2  18
TORSDOF 6
ENDMDL
MODEL 2
REMARK VINA RESULT:      -8.4      1.136      1.752
REMARK  Name = 
REMARK  8 active torsions:
REMARK  status: ('A' for Active; 'I' for Inactive)
REMARK    1  A    between atoms: C_11  and  N_13
REMARK    2  A    between atoms: N_13  and  C_39
REMARK    3  A    between atoms: C_14  and  C_16
REMARK    4  A    between atoms: C_16  and  S_19
REMARK    5  A    between atoms: S_19  and  C_22
REMARK    6  A    between atoms: C_22  and  C_25
REMARK    7  A    between atoms: C_34  and  C_35
REMARK    8  A    between atoms: C_44  and  C_45
REMARK                            x       y       z     vdW  Elec       q    Type
REMARK                         _______ _______ _______ _____ _____    ______ ____
ROOT
ATOM      1  N   UNL     1       8.299   0.076  21.738  0.00  0.00    +0.000 N 
ATOM      2  C   UNL     1       7.983  -1.222  21.926  0.00  0.00    +0.000 C 
ATOM      3  O   UNL     1       9.050  -2.012  21.710  0.00  0.00    +0.000 OA
ENDROOT
BRANCH   1  10
ATOM      4  C   UNL     1       6.520   1.338  20.759  0.00  0.00    +0.000 C 
ATOM      5  C   UNL     1       5.555   1.303  19.722  0.00  0.00    +0.000 C 
ATOM      6  S   UNL     1       6.419   0.301  18.427  0.00  0.00    +0.000 S 
ATOM      7  O   UNL     1       5.695  -0.851  18.158  0.00  0.00    +0.000 OA
ATOM      8  O   UNL     1       6.815   1.198  17.413  0.00  0.00    +0.000 OA
ATOM      9  C   UNL     1       7.931  -0.183  19.328  0.00  0.00    +0.000 C 
ATOM     10  C   UNL     1       7.951   0.739  20.554  0.00  0.00    +0.000 C 
ENDBRANCH   1  10
BRANCH   1  11
ATOM     11  C   UNL     1       9.574   0.203  22.297  0.00  0.00    +0.000 A 
ATOM     12  C   UNL     1       9.976   1.570  21.917  0.00  0.00    +0.000 A 
ATOM     13  C   UNL     1      10.157   2.705  22.835  0.00  0.00    +0.000 A 
ATOM     14  C   UNL     1       9.864   2.319  24.305  0.00  0.00    +0.000 A 
ATOM     15  C   UNL     1       8.628   3.222  24.811  0.00  0.00    +0.000 C 
ATOM     16  C   UNL     1       9.985   0.934  24.798  0.00  0.00    +0.000 A 
ATOM     17  C   UNL     1       9.880  -0.152  23.678  0.00  0.00    +0.000 A 
ENDBRANCH   1  11
BRANCH   2  18
ATOM     18  C   UNL     1       6.764  -1.956  21.569  0.00  0.00    +0.000 C 
BRANCH  18  19
ATOM     19  S   UNL     1       6.210  -3.411  22.285  0.00  0.00    +0.000 S 
ATOM     20  O   UNL     1       4.812  -3.598  22.265  0.00  0.00    +0.000 OA
ATOM     21  O   UNL     1       7.012  -4.521  21.747  0.00  0.00    +0.000 OA
BRANCH  19  22
ATOM     22  C   UNL     1       6.697  -3.359  24.028  0.00  0.00    +0.000 C 
BRANCH  22  23
ATOM     23  C   UNL     1       6.607  -4.825  24.476  0.00  0.00    +0.000 A 
ATOM     24  C   UNL     1       7.843  -5.026  25.320  0.00  0.00    +0.000 A 
ATOM     25  C   UNL     1       7.828  -5.358  26.765  0.00  0.00    +0.000 A 
ATOM     26  C   UNL     1       6.430  -5.519  27.316  0.00  0.00    +0.000 A 
ATOM     27  F   UNL     1       6.321  -4.354  28.158  0.00  0.00    +0.000 F 
ATOM     28  C   UNL     1       5.224  -5.723  26.493  0.00  0.00    +0.000 A 
ATOM     29  C   UNL     1       5.418  -5.527  24.966  0.00  0.00    +0.000 A 
ATOM     30  C   UNL     1       4.902  -6.700  24.104  0.00  0.00    +0.000 C 
ENDBRANCH  22  23
ENDBRANCH  19  22
ENDBRANCH  18  19
ENDBRANCH   2  18
TORSDOF 6
ENDMDL
MODEL 3
REMARK VINA RESULT:      -8.0      3.559      7.156
REMARK  Name = 
REMARK  8 active torsions:
REMARK  status: ('A' for Active; 'I' for Inactive)
REMARK    1  A    between atoms: C_11  and  N_13
REMARK    2  A    between atoms: N_13  and  C_39
REMARK    3  A    between atoms: C_14  and  C_16
REMARK    4  A    between atoms: C_16  and  S_19
REMARK    5  A    between atoms: S_19  and  C_22
REMARK    6  A    between atoms: C_22  and  C_25
REMARK    7  A    between atoms: C_34  and  C_35
REMARK    8  A    between atoms: C_44  and  C_45
REMARK                            x       y       z     vdW  Elec       q    Type
REMARK                         _______ _______ _______ _____ _____    ______ ____
ROOT
ATOM      1  N   UNL     1       7.633  -3.628  24.321  0.00  0.00    +0.000 N 
ATOM      2  C   UNL     1       8.945  -3.385  24.128  0.00  0.00    +0.000 C 
ATOM      3  O   UNL     1       9.699  -4.339  24.704  0.00  0.00    +0.000 OA
ENDROOT
BRANCH   1  10
ATOM      4  C   UNL     1       5.936  -1.961  24.560  0.00  0.00    +0.000 C 
ATOM      5  C   UNL     1       5.711  -0.647  25.041  0.00  0.00    +0.000 C 
ATOM      6  S   UNL     1       6.921  -0.537  26.437  0.00  0.00    +0.000 S 
ATOM      7  O   UNL     1       7.831   0.482  26.197  0.00  0.00    +0.000 OA
ATOM      8  O   UNL     1       6.175  -0.616  27.632  0.00  0.00    +0.000 OA
ATOM      9  C   UNL     1       7.797  -2.128  26.252  0.00  0.00    +0.000 C 
ATOM     10  C   UNL     1       6.907  -2.939  25.300  0.00  0.00    +0.000 C 
ENDBRANCH   1  10
BRANCH   1  11
ATOM     11  C   UNL     1       7.513  -5.012  24.164  0.00  0.00    +0.000 A 
ATOM     12  C   UNL     1       6.581  -5.396  25.240  0.00  0.00    +0.000 A 
ATOM     13  C   UNL     1       5.211  -5.899  25.059  0.00  0.00    +0.000 A 
ATOM     14  C   UNL     1       4.813  -5.984  23.565  0.00  0.00    +0.000 A 
ATOM     15  C   UNL     1       3.558  -4.999  23.337  0.00  0.00    +0.000 C 
ATOM     16  C   UNL     1       5.810  -6.131  22.489  0.00  0.00    +0.000 A 
ATOM     17  C   UNL     1       7.245  -5.651  22.880  0.00  0.00    +0.000 A 
ENDBRANCH   1  11
BRANCH   2  18
ATOM     18  C   UNL     1       9.681  -2.116  24.147  0.00  0.00    +0.000 C 
BRANCH  18  19
ATOM     19  S   UNL     1       9.765  -0.973  22.873  0.00  0.00    +0.000 S 
ATOM     20  O   UNL     1      10.059   0.348  23.268  0.00  0.00    +0.000 OA
ATOM     21  O   UNL     1      10.619  -1.530  21.813  0.00  0.00    +0.000 OA
BRANCH  19  22
ATOM     22  C   UNL     1       8.128  -0.926  22.099  0.00  0.00    +0.000 C 
BRANCH  22  23
ATOM     23  C   UNL     1       8.118   0.412  21.346  0.00  0.00    +0.000 A 
ATOM     24  C   UNL     1       8.263   0.017  19.896  0.00  0.00    +0.000 A 
ATOM     25  C   UNL     1       7.243   0.270  18.851  0.00  0.00    +0.000 A 
ATOM     26  C   UNL     1       6.035   1.012  19.377  0.00  0.00    +0.000 A 
ATOM     27  F   UNL     1       5.025  -0.015  19.319  0.00  0.00    +0.000 F 
ATOM     28  C   UNL     1       5.998   1.756  20.648  0.00  0.00    +0.000 A 
ATOM     29  C   UNL     1       7.223   1.549  21.578  0.00  0.00    +0.000 A 
ATOM     30  C   UNL     1       7.880   2.859  22.065  0.00  0.00    +0.000 C 
ENDBRANCH  22  23
ENDBRANCH  19  22
ENDBRANCH  18  19
ENDBRANCH   2  18
TORSDOF 6
ENDMDL
MODEL 4
REMARK VINA RESULT:      -7.4      3.512      5.114
REMARK  Name = 
REMARK  8 active torsions:
REMARK  status: ('A' for Active; 'I' for Inactive)
REMARK    1  A    between atoms: C_11  and  N_13
REMARK    2  A    between atoms: N_13  and  C_39
REMARK    3  A    between atoms: C_14  and  C_16
REMARK    4  A    between atoms: C_16  and  S_19
REMARK    5  A    between atoms: S_19  and  C_22
REMARK    6  A    between atoms: C_22  and  C_25
REMARK    7  A    between atoms: C_34  and  C_35
REMARK    8  A    between atoms: C_44  and  C_45
REMARK                            x       y       z     vdW  Elec       q    Type
REMARK                         _______ _______ _______ _____ _____    ______ ____
ROOT
ATOM      1  N   UNL     1       8.485  -2.884  23.918  0.00  0.00    +0.000 N 
ATOM      2  C   UNL     1       8.893  -3.857  24.758  0.00  0.00    +0.000 C 
ATOM      3  O   UNL     1      10.165  -4.209  24.501  0.00  0.00    +0.000 OA
ENDROOT
BRANCH   1  10
ATOM      4  C   UNL     1       6.206  -2.811  23.199  0.00  0.00    +0.000 C 
ATOM      5  C   UNL     1       5.121  -3.638  22.818  0.00  0.00    +0.000 C 
ATOM      6  S   UNL     1       5.989  -5.084  22.055  0.00  0.00    +0.000 S 
ATOM      7  O   UNL     1       5.687  -6.242  22.756  0.00  0.00    +0.000 OA
ATOM      8  O   UNL     1       5.809  -4.978  20.659  0.00  0.00    +0.000 OA
ATOM      9  C   UNL     1       7.729  -4.654  22.401  0.00  0.00    +0.000 C 
ATOM     10  C   UNL     1       7.677  -3.177  22.812  0.00  0.00    +0.000 C 
ENDBRANCH   1  10
BRANCH   1  11
ATOM     11  C   UNL     1       9.592  -2.038  23.809  0.00  0.00    +0.000 A 
ATOM     12  C   UNL     1       9.670  -1.766  22.361  0.00  0.00    +0.000 A 
ATOM     13  C   UNL     1       9.420  -0.472  21.709  0.00  0.00    +0.000 A 
ATOM     14  C   UNL     1       9.039   0.630  22.727  0.00  0.00    +0.000 A 
ATOM     15  C   UNL     1       7.552   1.138  22.366  0.00  0.00    +0.000 C 
ATOM     16  C   UNL     1       9.450   0.574  24.143  0.00  0.00    +0.000 A 
ATOM     17  C   UNL     1       9.789  -0.864  24.651  0.00  0.00    +0.000 A 
ENDBRANCH   1  11
BRANCH   2  18
ATOM     18  C   UNL     1       8.167  -5.023  25.271  0.00  0.00    +0.000 C 
BRANCH  18  19
ATOM     19  S   UNL     1       7.108  -5.047  26.620  0.00  0.00    +0.000 S 
ATOM     20  O   UNL     1       7.570  -5.776  27.735  0.00  0.00    +0.000 OA
ATOM     21  O   UNL     1       6.680  -3.666  26.890  0.00  0.00    +0.000 OA
BRANCH  19  22
ATOM     22  C   UNL     1       5.580  -5.851  26.075  0.00  0.00    +0.000 C 
BRANCH  22  23
ATOM     23  C   UNL     1       4.492  -5.184  26.929  0.00  0.00    +0.000 A 
ATOM     24  C   UNL     1       3.386  -4.887  25.945  0.00  0.00    +0.000 A 
ATOM     25  C   UNL     1       2.027  -5.477  26.005  0.00  0.00    +0.000 A 
ATOM     26  C   UNL     1       1.838  -6.393  27.193  0.00  0.00    +0.000 A 
ATOM     27  F   UNL     1       1.756  -7.680  26.548  0.00  0.00    +0.000 F 
ATOM     28  C   UNL     1       2.714  -6.421  28.377  0.00  0.00    +0.000 A 
ATOM     29  C   UNL     1       4.028  -5.603  28.254  0.00  0.00    +0.000 A 
ATOM     30  C   UNL     1       4.276  -4.621  29.418  0.00  0.00    +0.000 C 
ENDBRANCH  22  23
ENDBRANCH  19  22
ENDBRANCH  18  19
ENDBRANCH   2  18
TORSDOF 6
ENDMDL
MODEL 5
REMARK VINA RESULT:      -7.3      3.184      4.801
REMARK  Name = 
REMARK  8 active torsions:
REMARK  status: ('A' for Active; 'I' for Inactive)
REMARK    1  A    between atoms: C_11  and  N_13
REMARK    2  A    between atoms: N_13  and  C_39
REMARK    3  A    between atoms: C_14  and  C_16
REMARK    4  A    between atoms: C_16  and  S_19
REMARK    5  A    between atoms: S_19  and  C_22
REMARK    6  A    between atoms: C_22  and  C_25
REMARK    7  A    between atoms: C_34  and  C_35
REMARK    8  A    between atoms: C_44  and  C_45
REMARK                            x       y       z     vdW  Elec       q    Type
REMARK                         _______ _______ _______ _____ _____    ______ ____
ROOT
ATOM      1  N   UNL     1       8.520  -2.984  23.979  0.00  0.00    +0.000 N 
ATOM      2  C   UNL     1       8.915  -3.989  24.786  0.00  0.00    +0.000 C 
ATOM      3  O   UNL     1      10.210  -4.289  24.580  0.00  0.00    +0.000 OA
ENDROOT
BRANCH   1  10
ATOM      4  C   UNL     1       6.318  -2.752  23.078  0.00  0.00    +0.000 C 
ATOM      5  C   UNL     1       5.205  -3.501  22.624  0.00  0.00    +0.000 C 
ATOM      6  S   UNL     1       6.015  -5.026  21.957  0.00  0.00    +0.000 S 
ATOM      7  O   UNL     1       5.569  -6.142  22.650  0.00  0.00    +0.000 OA
ATOM      8  O   UNL     1       5.955  -4.938  20.549  0.00  0.00    +0.000 OA
ATOM      9  C   UNL     1       7.750  -4.724  22.434  0.00  0.00    +0.000 C 
ATOM     10  C   UNL     1       7.782  -3.238  22.817  0.00  0.00    +0.000 C 
ENDBRANCH   1  10
BRANCH   1  11
ATOM     11  C   UNL     1       9.604  -2.101  23.976  0.00  0.00    +0.000 A 
ATOM     12  C   UNL     1       9.825  -1.839  22.542  0.00  0.00    +0.000 A 
ATOM     13  C   UNL     1       9.601  -0.561  21.851  0.00  0.00    +0.000 A 
ATOM     14  C   UNL     1       9.079   0.537  22.809  0.00  0.00    +0.000 A 
ATOM     15  C   UNL     1       7.622   0.989  22.286  0.00  0.00    +0.000 C 
ATOM     16  C   UNL     1       9.339   0.508  24.260  0.00  0.00    +0.000 A 
ATOM     17  C   UNL     1       9.671  -0.913  24.820  0.00  0.00    +0.000 A 
ENDBRANCH   1  11
BRANCH   2  18
ATOM     18  C   UNL     1       8.201  -5.204  25.195  0.00  0.00    +0.000 C 
BRANCH  18  19
ATOM     19  S   UNL     1       6.933  -5.296  26.345  0.00  0.00    +0.000 S 
ATOM     20  O   UNL     1       5.771  -5.965  25.907  0.00  0.00    +0.000 OA
ATOM     21  O   UNL     1       7.501  -5.766  27.617  0.00  0.00    +0.000 OA
BRANCH  19  22
ATOM     22  C   UNL     1       6.437  -3.595  26.719  0.00  0.00    +0.000 C 
BRANCH  22  23
ATOM     23  C   UNL     1       4.918  -3.694  26.920  0.00  0.00    +0.000 A 
ATOM     24  C   UNL     1       4.750  -3.745  28.420  0.00  0.00    +0.000 A 
ATOM     25  C   UNL     1       4.043  -2.718  29.221  0.00  0.00    +0.000 A 
ATOM     26  C   UNL     1       3.458  -1.612  28.373  0.00  0.00    +0.000 A 
ATOM     27  F   UNL     1       4.303  -0.501  28.733  0.00  0.00    +0.000 F 
ATOM     28  C   UNL     1       3.244  -1.697  26.917  0.00  0.00    +0.000 A 
ATOM     29  C   UNL     1       3.883  -2.928  26.221  0.00  0.00    +0.000 A 
ATOM     30  C   UNL     1       2.909  -3.731  25.332  0.00  0.00    +0.000 C 
ENDBRANCH  22  23
ENDBRANCH  19  22
ENDBRANCH  18  19
ENDBRANCH   2  18
TORSDOF 6
ENDMDL
MODEL 6
REMARK VINA RESULT:      -7.3      2.988      7.161
REMARK  Name = 
REMARK  8 active torsions:
REMARK  status: ('A' for Active; 'I' for Inactive)
REMARK    1  A    between atoms: C_11  and  N_13
REMARK    2  A    between atoms: N_13  and  C_39
REMARK    3  A    between atoms: C_14  and  C_16
REMARK    4  A    between atoms: C_16  and  S_19
REMARK    5  A    between atoms: S_19  and  C_22
REMARK    6  A    between atoms: C_22  and  C_25
REMARK    7  A    between atoms: C_34  and  C_35
REMARK    8  A    between atoms: C_44  and  C_45
REMARK                            x       y       z     vdW  Elec       q    Type
REMARK                         _______ _______ _______ _____ _____    ______ ____
ROOT
ATOM      1  N   UNL     1       5.689  -4.871  23.670  0.00  0.00    +0.000 N 
ATOM      2  C   UNL     1       5.972  -4.510  22.402  0.00  0.00    +0.000 C 
ATOM      3  O   UNL     1       5.875  -5.564  21.571  0.00  0.00    +0.000 OA
ENDROOT
BRANCH   1  10
ATOM      4  C   UNL     1       6.756  -3.848  25.549  0.00  0.00    +0.000 C 
ATOM      5  C   UNL     1       7.989  -3.300  25.981  0.00  0.00    +0.000 C 
ATOM      6  S   UNL     1       9.212  -4.295  25.012  0.00  0.00    +0.000 S 
ATOM      7  O   UNL     1       9.956  -3.462  24.188  0.00  0.00    +0.000 OA
ATOM      8  O   UNL     1       9.814  -5.196  25.916  0.00  0.00    +0.000 OA
ATOM      9  C   UNL     1       8.090  -5.274  23.956  0.00  0.00    +0.000 C 
ATOM     10  C   UNL     1       6.710  -5.092  24.603  0.00  0.00    +0.000 C 
ENDBRANCH   1  10
BRANCH   1  11
ATOM     11  C   UNL     1       4.613  -5.754  23.544  0.00  0.00    +0.000 A 
ATOM     12  C   UNL     1       4.854  -6.738  24.615  0.00  0.00    +0.000 A 
ATOM     13  C   UNL     1       4.036  -6.920  25.824  0.00  0.00    +0.000 A 
ATOM     14  C   UNL     1       2.847  -5.931  25.878  0.00  0.00    +0.000 A 
ATOM     15  C   UNL     1       3.035  -5.012  27.190  0.00  0.00    +0.000 C 
ATOM     16  C   UNL     1       2.262  -5.330  24.665  0.00  0.00    +0.000 A 
ATOM     17  C   UNL     1       3.226  -5.314  23.434  0.00  0.00    +0.000 A 
ENDBRANCH   1  11
BRANCH   2  18
ATOM     18  C   UNL     1       6.992  -3.589  21.890  0.00  0.00    +0.000 C 
BRANCH  18  19
ATOM     19  S   UNL     1       6.931  -1.876  21.944  0.00  0.00    +0.000 S 
ATOM     20  O   UNL     1       6.558  -1.249  20.737  0.00  0.00    +0.000 OA
ATOM     21  O   UNL     1       6.162  -1.483  23.134  0.00  0.00    +0.000 OA
BRANCH  19  22
ATOM     22  C   UNL     1       8.604  -1.301  22.327  0.00  0.00    +0.000 C 
BRANCH  22  23
ATOM     23  C   UNL     1       8.390   0.129  22.843  0.00  0.00    +0.000 A 
ATOM     24  C   UNL     1       8.591   0.014  24.335  0.00  0.00    +0.000 A 
ATOM     25  C   UNL     1       9.667   0.696  25.092  0.00  0.00    +0.000 A 
ATOM     26  C   UNL     1      10.539   1.567  24.217  0.00  0.00    +0.000 A 
ATOM     27  F   UNL     1      11.777   0.827  24.223  0.00  0.00    +0.000 F 
ATOM     28  C   UNL     1      10.174   2.027  22.866  0.00  0.00    +0.000 A 
ATOM     29  C   UNL     1       8.910   1.366  22.255  0.00  0.00    +0.000 A 
ATOM     30  C   UNL     1       7.866   2.369  21.717  0.00  0.00    +0.000 C 
ENDBRANCH  22  23
ENDBRANCH  19  22
ENDBRANCH  18  19
ENDBRANCH   2  18
TORSDOF 6
ENDMDL
MODEL 7
REMARK VINA RESULT:      -7.2      3.616      7.992
REMARK  Name = 
REMARK  8 active torsions:
REMARK  status: ('A' for Active; 'I' for Inactive)
REMARK    1  A    between atoms: C_11  and  N_13
REMARK    2  A    between atoms: N_13  and  C_39
REMARK    3  A    between atoms: C_14  and  C_16
REMARK    4  A    between atoms: C_16  and  S_19
REMARK    5  A    between atoms: S_19  and  C_22
REMARK    6  A    between atoms: C_22  and  C_25
REMARK    7  A    between atoms: C_34  and  C_35
REMARK    8  A    between atoms: C_44  and  C_45
REMARK                            x       y       z     vdW  Elec       q    Type
REMARK                         _______ _______ _______ _____ _____    ______ ____
ROOT
ATOM      1  N   UNL     1       5.417  -4.948  23.697  0.00  0.00    +0.000 N 
ATOM      2  C   UNL     1       6.120  -4.786  22.557  0.00  0.00    +0.000 C 
ATOM      3  O   UNL     1       6.204  -5.944  21.877  0.00  0.00    +0.000 OA
ENDROOT
BRANCH   1  10
ATOM      4  C   UNL     1       5.639  -3.850  25.809  0.00  0.00    +0.000 C 
ATOM      5  C   UNL     1       6.574  -3.178  26.634  0.00  0.00    +0.000 C 
ATOM      6  S   UNL     1       8.161  -4.015  26.176  0.00  0.00    +0.000 S 
ATOM      7  O   UNL     1       9.050  -3.090  25.648  0.00  0.00    +0.000 OA
ATOM      8  O   UNL     1       8.502  -4.861  27.253  0.00  0.00    +0.000 OA
ATOM      9  C   UNL     1       7.594  -5.091  24.814  0.00  0.00    +0.000 C 
ATOM     10  C   UNL     1       6.064  -5.074  24.932  0.00  0.00    +0.000 C 
ENDBRANCH   1  10
BRANCH   1  11
ATOM     11  C   UNL     1       4.366  -5.795  23.334  0.00  0.00    +0.000 A 
ATOM     12  C   UNL     1       4.501  -6.924  24.273  0.00  0.00    +0.000 A 
ATOM     13  C   UNL     1       3.564  -7.271  25.352  0.00  0.00    +0.000 A 
ATOM     14  C   UNL     1       2.368  -6.290  25.422  0.00  0.00    +0.000 A 
ATOM     15  C   UNL     1       2.411  -5.569  26.864  0.00  0.00    +0.000 C 
ATOM     16  C   UNL     1       1.909  -5.518  24.252  0.00  0.00    +0.000 A 
ATOM     17  C   UNL     1       2.996  -5.334  23.144  0.00  0.00    +0.000 A 
ENDBRANCH   1  11
BRANCH   2  18
ATOM     18  C   UNL     1       7.325  -3.991  22.299  0.00  0.00    +0.000 C 
BRANCH  18  19
ATOM     19  S   UNL     1       7.418  -2.280  22.244  0.00  0.00    +0.000 S 
ATOM     20  O   UNL     1       7.060  -1.619  23.438  0.00  0.00    +0.000 OA
ATOM     21  O   UNL     1       8.723  -1.910  21.674  0.00  0.00    +0.000 OA
BRANCH  19  22
ATOM     22  C   UNL     1       6.246  -1.729  20.979  0.00  0.00    +0.000 C 
BRANCH  22  23
ATOM     23  C   UNL     1       6.888  -0.452  20.417  0.00  0.00    +0.000 A 
ATOM     24  C   UNL     1       6.573  -0.503  18.941  0.00  0.00    +0.000 A 
ATOM     25  C   UNL     1       5.738   0.492  18.227  0.00  0.00    +0.000 A 
ATOM     26  C   UNL     1       5.255   1.607  19.126  0.00  0.00    +0.000 A 
ATOM     27  F   UNL     1       3.845   1.317  19.205  0.00  0.00    +0.000 F 
ATOM     28  C   UNL     1       5.830   1.929  20.444  0.00  0.00    +0.000 A 
ATOM     29  C   UNL     1       6.841   0.891  21.001  0.00  0.00    +0.000 A 
ATOM     30  C   UNL     1       8.186   1.495  21.458  0.00  0.00    +0.000 C 
ENDBRANCH  22  23
ENDBRANCH  19  22
ENDBRANCH  18  19
ENDBRANCH   2  18
TORSDOF 6
ENDMDL
MODEL 8
REMARK VINA RESULT:      -6.9      3.484      5.461
REMARK  Name = 
REMARK  8 active torsions:
REMARK  status: ('A' for Active; 'I' for Inactive)
REMARK    1  A    between atoms: C_11  and  N_13
REMARK    2  A    between atoms: N_13  and  C_39
REMARK    3  A    between atoms: C_14  and  C_16
REMARK    4  A    between atoms: C_16  and  S_19
REMARK    5  A    between atoms: S_19  and  C_22
REMARK    6  A    between atoms: C_22  and  C_25
REMARK    7  A    between atoms: C_34  and  C_35
REMARK    8  A    between atoms: C_44  and  C_45
REMARK                            x       y       z     vdW  Elec       q    Type
REMARK                         _______ _______ _______ _____ _____    ______ ____
ROOT
ATOM      1  N   UNL     1       8.143  -2.224  24.346  0.00  0.00    +0.000 N 
ATOM      2  C   UNL     1       7.758  -2.499  25.609  0.00  0.00    +0.000 C 
ATOM      3  O   UNL     1       8.769  -3.041  26.312  0.00  0.00    +0.000 OA
ENDROOT
BRANCH   1  10
ATOM      4  C   UNL     1       6.380  -2.627  22.783  0.00  0.00    +0.000 C 
ATOM      5  C   UNL     1       5.401  -3.582  22.414  0.00  0.00    +0.000 C 
ATOM      6  S   UNL     1       6.224  -5.175  22.877  0.00  0.00    +0.000 S 
ATOM      7  O   UNL     1       5.470  -5.837  23.835  0.00  0.00    +0.000 OA
ATOM      8  O   UNL     1       6.626  -5.792  21.674  0.00  0.00    +0.000 OA
ATOM      9  C   UNL     1       7.736  -4.550  23.686  0.00  0.00    +0.000 C 
ATOM     10  C   UNL     1       7.794  -3.070  23.285  0.00  0.00    +0.000 C 
ENDBRANCH   1  10
BRANCH   1  11
ATOM     11  C   UNL     1       9.441  -1.726  24.484  0.00  0.00    +0.000 A 
ATOM     12  C   UNL     1      10.044  -1.977  23.162  0.00  0.00    +0.000 A 
ATOM     13  C   UNL     1      10.439  -0.953  22.182  0.00  0.00    +0.000 A 
ATOM     14  C   UNL     1      10.142   0.480  22.685  0.00  0.00    +0.000 A 
ATOM     15  C   UNL     1       9.087   1.148  21.665  0.00  0.00    +0.000 C 
ATOM     16  C   UNL     1      10.056   0.813  24.119  0.00  0.00    +0.000 A 
ATOM     17  C   UNL     1       9.738  -0.410  25.039  0.00  0.00    +0.000 A 
ENDBRANCH   1  11
BRANCH   2  18
ATOM     18  C   UNL     1       6.486  -3.030  26.111  0.00  0.00    +0.000 C 
BRANCH  18  19
ATOM     19  S   UNL     1       5.129  -2.110  26.613  0.00  0.00    +0.000 S 
ATOM     20  O   UNL     1       4.303  -1.639  25.572  0.00  0.00    +0.000 OA
ATOM     21  O   UNL     1       4.448  -2.847  27.688  0.00  0.00    +0.000 OA
BRANCH  19  22
ATOM     22  C   UNL     1       5.772  -0.646  27.463  0.00  0.00    +0.000 C 
BRANCH  22  23
ATOM     23  C   UNL     1       5.545   0.490  26.455  0.00  0.00    +0.000 A 
ATOM     24  C   UNL     1       4.713   1.494  27.216  0.00  0.00    +0.000 A 
ATOM     25  C   UNL     1       5.152   2.872  27.543  0.00  0.00    +0.000 A 
ATOM     26  C   UNL     1       6.523   3.197  26.997  0.00  0.00    +0.000 A 
ATOM     27  F   UNL     1       7.302   3.265  28.209  0.00  0.00    +0.000 F 
ATOM     28  C   UNL     1       7.207   2.430  25.941  0.00  0.00    +0.000 A 
ATOM     29  C   UNL     1       6.538   1.083  25.555  0.00  0.00    +0.000 A 
ATOM     30  C   UNL     1       6.295   0.905  24.041  0.00  0.00    +0.000 C 
ENDBRANCH  22  23
ENDBRANCH  19  22
ENDBRANCH  18  19
ENDBRANCH   2  18
TORSDOF 6
ENDMDL
MODEL 9
REMARK VINA RESULT:      -6.8      3.894      5.586
REMARK  Name = 
REMARK  8 active torsions:
REMARK  status: ('A' for Active; 'I' for Inactive)
REMARK    1  A    between atoms: C_11  and  N_13
REMARK    2  A    between atoms: N_13  and  C_39
REMARK    3  A    between atoms: C_14  and  C_16
REMARK    4  A    between atoms: C_16  and  S_19
REMARK    5  A    between atoms: S_19  and  C_22
REMARK    6  A    between atoms: C_22  and  C_25
REMARK    7  A    between atoms: C_34  and  C_35
REMARK    8  A    between atoms: C_44  and  C_45
REMARK                            x       y       z     vdW  Elec       q    Type
REMARK                         _______ _______ _______ _____ _____    ______ ____
ROOT
ATOM      1  N   UNL     1       7.810  -0.897  24.410  0.00  0.00    +0.000 N 
ATOM      2  C   UNL     1       7.180  -0.737  25.591  0.00  0.00    +0.000 C 
ATOM      3  O   UNL     1       7.833   0.147  26.367  0.00  0.00    +0.000 OA
ENDROOT
BRANCH   1  10
ATOM      4  C   UNL     1       7.803  -3.004  23.280  0.00  0.00    +0.000 C 
ATOM      5  C   UNL     1       7.849  -4.401  23.508  0.00  0.00    +0.000 C 
ATOM      6  S   UNL     1       8.859  -4.506  25.056  0.00  0.00    +0.000 S 
ATOM      7  O   UNL     1       8.115  -5.093  26.069  0.00  0.00    +0.000 OA
ATOM      8  O   UNL     1      10.133  -4.983  24.681  0.00  0.00    +0.000 OA
ATOM      9  C   UNL     1       9.051  -2.735  25.454  0.00  0.00    +0.000 C 
ATOM     10  C   UNL     1       8.623  -2.011  24.170  0.00  0.00    +0.000 C 
ENDBRANCH   1  10
BRANCH   1  11
ATOM     11  C   UNL     1       8.221   0.394  24.063  0.00  0.00    +0.000 A 
ATOM     12  C   UNL     1       9.477   0.164  23.326  0.00  0.00    +0.000 A 
ATOM     13  C   UNL     1       9.695   0.397  21.891  0.00  0.00    +0.000 A 
ATOM     14  C   UNL     1       8.421   0.923  21.186  0.00  0.00    +0.000 A 
ATOM     15  C   UNL     1       8.000  -0.158  20.066  0.00  0.00    +0.000 C 
ATOM     16  C   UNL     1       7.361   1.650  21.909  0.00  0.00    +0.000 A 
ATOM     17  C   UNL     1       7.336   1.377  23.447  0.00  0.00    +0.000 A 
ENDBRANCH   1  11
BRANCH   2  18
ATOM     18  C   UNL     1       6.518  -1.728  26.447  0.00  0.00    +0.000 C 
BRANCH  18  19
ATOM     19  S   UNL     1       4.852  -2.132  26.427  0.00  0.00    +0.000 S 
ATOM     20  O   UNL     1       4.394  -2.852  27.551  0.00  0.00    +0.000 OA
ATOM     21  O   UNL     1       4.090  -0.921  26.088  0.00  0.00    +0.000 OA
BRANCH  19  22
ATOM     22  C   UNL     1       4.586  -3.200  24.989  0.00  0.00    +0.000 C 
BRANCH  22  23
ATOM     23  C   UNL     1       4.011  -4.489  25.593  0.00  0.00    +0.000 A 
ATOM     24  C   UNL     1       2.576  -4.505  25.122  0.00  0.00    +0.000 A 
ATOM     25  C   UNL     1       1.995  -5.542  24.236  0.00  0.00    +0.000 A 
ATOM     26  C   UNL     1       2.985  -6.626  23.872  0.00  0.00    +0.000 A 
ATOM     27  F   UNL     1       3.202  -6.354  22.473  0.00  0.00    +0.000 F 
ATOM     28  C   UNL     1       4.246  -6.883  24.590  0.00  0.00    +0.000 A 
ATOM     29  C   UNL     1       4.650  -5.807  25.634  0.00  0.00    +0.000 A 
ATOM     30  C   UNL     1       4.985  -6.372  27.031  0.00  0.00    +0.000 C 
ENDBRANCH  22  23
ENDBRANCH  19  22
ENDBRANCH  18  19
ENDBRANCH   2  18
TORSDOF 6
ENDMDL
