MODEL 1
REMARK VINA RESULT:      -8.6      0.000      0.000
REMARK  Name = 
REMARK  5 active torsions:
REMARK  status: ('A' for Active; 'I' for Inactive)
REMARK    1  A    between atoms: C_9  and  C_10
REMARK    2  A    between atoms: N_15  and  C_16
REMARK    3  A    between atoms: C_16  and  C_19
REMARK    4  A    between atoms: N_28  and  C_29
REMARK    5  A    between atoms: C_29  and  C_32
REMARK                            x       y       z     vdW  Elec       q    Type
REMARK                         _______ _______ _______ _____ _____    ______ ____
ROOT
ATOM      1  C   UNL     1       8.319  -3.616  26.638  0.00  0.00    +0.000 C 
ATOM      2  O   UNL     1       9.172  -4.484  26.854  0.00  0.00    +0.000 OA
ATOM      3  N   UNL     1       8.654  -2.471  26.074  0.00  0.00    +0.000 N 
ATOM      4  C   UNL     1       8.759  -1.211  26.836  0.00  0.00    +0.000 C 
ATOM      5  C   UNL     1       7.549  -0.385  26.267  0.00  0.00    +0.000 C 
ATOM      6  N   UNL     1       7.866  -0.006  24.965  0.00  0.00    +0.000 NA
ATOM      7  C   UNL     1       8.098  -1.055  24.097  0.00  0.00    +0.000 C 
ATOM      8  C   UNL     1       8.832  -2.264  24.648  0.00  0.00    +0.000 C 
ENDROOT
BRANCH   1   9
ATOM      9  C   UNL     1       6.931  -3.832  27.251  0.00  0.00    +0.000 C 
BRANCH   9  12
ATOM     10  C   UNL     1       4.863  -6.410  26.046  0.00  0.00    +0.000 C 
ATOM     11  C   UNL     1       6.302  -5.858  26.170  0.00  0.00    +0.000 C 
ATOM     12  N   UNL     1       6.519  -5.125  27.313  0.00  0.00    +0.000 NA
ATOM     13  C   UNL     1       6.094  -5.744  28.468  0.00  0.00    +0.000 C 
ATOM     14  C   UNL     1       4.579  -5.992  28.483  0.00  0.00    +0.000 C 
ATOM     15  C   UNL     1       4.013  -5.673  27.115  0.00  0.00    +0.000 C 
BRANCH  10  21
ATOM     16  C   UNL     1       6.928  -5.267  21.643  0.00  0.00    +0.000 C 
ATOM     17  C   UNL     1       6.663  -3.938  22.301  0.00  0.00    +0.000 C 
ATOM     18  C   UNL     1       5.420  -3.427  22.897  0.00  0.00    +0.000 C 
ATOM     19  C   UNL     1       4.408  -4.546  22.835  0.00  0.00    +0.000 C 
ATOM     20  S   UNL     1       4.215  -4.542  24.397  0.00  0.00    +0.000 S 
ATOM     21  C   UNL     1       4.279  -6.121  24.745  0.00  0.00    +0.000 C 
ATOM     22  N   UNL     1       4.460  -6.583  23.569  0.00  0.00    +0.000 NA
ATOM     23  C   UNL     1       4.659  -5.865  22.538  0.00  0.00    +0.000 C 
ATOM     24  C   UNL     1       5.948  -6.280  22.033  0.00  0.00    +0.000 C 
ENDBRANCH  10  21
ENDBRANCH   9  12
ENDBRANCH   1   9
BRANCH   6  25
ATOM     25  C   UNL     1       6.972   0.979  24.409  0.00  0.00    +0.000 C 
BRANCH  25  26
ATOM     26  C   UNL     1       7.755   2.150  23.822  0.00  0.00    +0.000 A 
ATOM     27  C   UNL     1       8.969   2.350  24.414  0.00  0.00    +0.000 A 
ATOM     28  C   UNL     1      10.468   1.788  24.037  0.00  0.00    +0.000 A 
ATOM     29  C   UNL     1      10.161   1.479  22.587  0.00  0.00    +0.000 A 
ATOM     30  C   UNL     1       9.417   1.775  21.647  0.00  0.00    +0.000 A 
ATOM     31  C   UNL     1       8.688   0.631  21.231  0.00  0.00    +0.000 A 
ATOM     32  C   UNL     1       7.498   0.156  20.608  0.00  0.00    +0.000 A 
ATOM     33  C   UNL     1       6.751   1.459  20.877  0.00  0.00    +0.000 A 
ATOM     34  C   UNL     1       7.219   2.626  21.480  0.00  0.00    +0.000 A 
ATOM     35  C   UNL     1       8.148   2.513  22.441  0.00  0.00    +0.000 A 
ENDBRANCH  25  26
ENDBRANCH   6  25
TORSDOF 5
ENDMDL
MODEL 2
REMARK VINA RESULT:      -8.3      2.577      4.549
REMARK  Name = 
REMARK  5 active torsions:
REMARK  status: ('A' for Active; 'I' for Inactive)
REMARK    1  A    between atoms: C_9  and  C_10
REMARK    2  A    between atoms: N_15  and  C_16
REMARK    3  A    between atoms: C_16  and  C_19
REMARK    4  A    between atoms: N_28  and  C_29
REMARK    5  A    between atoms: C_29  and  C_32
REMARK                            x       y       z     vdW  Elec       q    Type
REMARK                         _______ _______ _______ _____ _____    ______ ____
ROOT
ATOM      1  C   UNL     1       6.313  -5.396  26.111  0.00  0.00    +0.000 C 
ATOM      2  O   UNL     1       5.708  -6.469  26.220  0.00  0.00    +0.000 OA
ATOM      3  N   UNL     1       7.299  -5.267  25.242  0.00  0.00    +0.000 N 
ATOM      4  C   UNL     1       8.718  -5.244  25.649  0.00  0.00    +0.000 C 
ATOM      5  C   UNL     1       9.121  -3.758  25.337  0.00  0.00    +0.000 C 
ATOM      6  N   UNL     1       9.176  -3.613  23.952  0.00  0.00    +0.000 NA
ATOM      7  C   UNL     1       7.989  -3.869  23.296  0.00  0.00    +0.000 C 
ATOM      8  C   UNL     1       7.133  -5.005  23.824  0.00  0.00    +0.000 C 
ENDROOT
BRANCH   1   9
ATOM      9  C   UNL     1       6.028  -4.322  27.165  0.00  0.00    +0.000 C 
BRANCH   9  12
ATOM     10  C   UNL     1       3.213  -2.331  27.865  0.00  0.00    +0.000 C 
ATOM     11  C   UNL     1       3.853  -3.382  26.929  0.00  0.00    +0.000 C 
ATOM     12  N   UNL     1       4.732  -4.228  27.562  0.00  0.00    +0.000 NA
ATOM     13  C   UNL     1       4.239  -4.789  28.720  0.00  0.00    +0.000 C 
ATOM     14  C   UNL     1       3.913  -3.741  29.793  0.00  0.00    +0.000 C 
ATOM     15  C   UNL     1       4.029  -2.359  29.185  0.00  0.00    +0.000 C 
BRANCH  10  21
ATOM     16  C   UNL     1       7.109   0.711  27.145  0.00  0.00    +0.000 C 
ATOM     17  C   UNL     1       6.591   1.068  28.514  0.00  0.00    +0.000 C 
ATOM     18  C   UNL     1       5.222   1.404  28.931  0.00  0.00    +0.000 C 
ATOM     19  C   UNL     1       4.336   1.233  27.719  0.00  0.00    +0.000 C 
ATOM     20  S   UNL     1       3.439   0.167  28.448  0.00  0.00    +0.000 S 
ATOM     21  C   UNL     1       3.307  -0.986  27.319  0.00  0.00    +0.000 C 
ATOM     22  N   UNL     1       4.007  -0.449  26.396  0.00  0.00    +0.000 NA
ATOM     23  C   UNL     1       4.675   0.624  26.534  0.00  0.00    +0.000 C 
ATOM     24  C   UNL     1       6.044   0.255  26.253  0.00  0.00    +0.000 C 
ENDBRANCH  10  21
ENDBRANCH   9  12
ENDBRANCH   1   9
BRANCH   6  25
ATOM     25  C   UNL     1       9.791  -2.384  23.517  0.00  0.00    +0.000 C 
BRANCH  25  26
ATOM     26  C   UNL     1       9.078  -1.178  24.123  0.00  0.00    +0.000 A 
ATOM     27  C   UNL     1       9.883  -0.400  24.903  0.00  0.00    +0.000 A 
ATOM     28  C   UNL     1      10.789   0.926  24.546  0.00  0.00    +0.000 A 
ATOM     29  C   UNL     1      10.024   1.309  23.297  0.00  0.00    +0.000 A 
ATOM     30  C   UNL     1       8.930   1.205  22.734  0.00  0.00    +0.000 A 
ATOM     31  C   UNL     1       9.088   0.542  21.490  0.00  0.00    +0.000 A 
ATOM     32  C   UNL     1       8.459  -0.262  20.497  0.00  0.00    +0.000 A 
ATOM     33  C   UNL     1       7.378  -0.737  21.463  0.00  0.00    +0.000 A 
ATOM     34  C   UNL     1       7.180  -0.380  22.797  0.00  0.00    +0.000 A 
ATOM     35  C   UNL     1       8.257  -0.092  23.541  0.00  0.00    +0.000 A 
ENDBRANCH  25  26
ENDBRANCH   6  25
TORSDOF 5
ENDMDL
MODEL 3
REMARK VINA RESULT:      -8.3      3.088      7.164
REMARK  Name = 
REMARK  5 active torsions:
REMARK  status: ('A' for Active; 'I' for Inactive)
REMARK    1  A    between atoms: C_9  and  C_10
REMARK    2  A    between atoms: N_15  and  C_16
REMARK    3  A    between atoms: C_16  and  C_19
REMARK    4  A    between atoms: N_28  and  C_29
REMARK    5  A    between atoms: C_29  and  C_32
REMARK                            x       y       z     vdW  Elec       q    Type
REMARK                         _______ _______ _______ _____ _____    ______ ____
ROOT
ATOM      1  C   UNL     1       4.768   1.910  26.599  0.00  0.00    +0.000 C 
ATOM      2  O   UNL     1       4.013   2.797  27.012  0.00  0.00    +0.000 OA
ATOM      3  N   UNL     1       4.778   0.718  27.167  0.00  0.00    +0.000 N 
ATOM      4  C   UNL     1       5.863   0.277  28.066  0.00  0.00    +0.000 C 
ATOM      5  C   UNL     1       6.554  -0.847  27.213  0.00  0.00    +0.000 C 
ATOM      6  N   UNL     1       5.695  -1.943  27.175  0.00  0.00    +0.000 NA
ATOM      7  C   UNL     1       4.461  -1.692  26.609  0.00  0.00    +0.000 C 
ATOM      8  C   UNL     1       3.826  -0.344  26.896  0.00  0.00    +0.000 C 
ENDROOT
BRANCH   1   9
ATOM      9  C   UNL     1       5.830   2.317  25.573  0.00  0.00    +0.000 C 
BRANCH   9  12
ATOM     10  C   UNL     1       6.713   2.331  22.167  0.00  0.00    +0.000 C 
ATOM     11  C   UNL     1       6.290   1.484  23.390  0.00  0.00    +0.000 C 
ATOM     12  N   UNL     1       5.473   2.151  24.272  0.00  0.00    +0.000 NA
ATOM     13  C   UNL     1       4.404   2.786  23.679  0.00  0.00    +0.000 C 
ATOM     14  C   UNL     1       4.837   3.880  22.694  0.00  0.00    +0.000 C 
ATOM     15  C   UNL     1       6.336   3.801  22.495  0.00  0.00    +0.000 C 
BRANCH  10  21
ATOM     16  C   UNL     1      10.134  -1.168  23.167  0.00  0.00    +0.000 C 
ATOM     17  C   UNL     1      10.132  -0.275  24.380  0.00  0.00    +0.000 C 
ATOM     18  C   UNL     1      10.258   1.187  24.458  0.00  0.00    +0.000 C 
ATOM     19  C   UNL     1      10.296   1.704  23.039  0.00  0.00    +0.000 C 
ATOM     20  S   UNL     1       9.025   2.603  23.267  0.00  0.00    +0.000 S 
ATOM     21  C   UNL     1       8.150   2.285  21.943  0.00  0.00    +0.000 C 
ATOM     22  N   UNL     1       8.933   1.454  21.374  0.00  0.00    +0.000 NA
ATOM     23  C   UNL     1       9.997   0.995  21.900  0.00  0.00    +0.000 C 
ATOM     24  C   UNL     1       9.809  -0.437  21.943  0.00  0.00    +0.000 C 
ENDBRANCH  10  21
ENDBRANCH   9  12
ENDBRANCH   1   9
BRANCH   6  25
ATOM     25  C   UNL     1       6.302  -3.144  26.657  0.00  0.00    +0.000 C 
BRANCH  25  26
ATOM     26  C   UNL     1       7.346  -2.808  25.596  0.00  0.00    +0.000 A 
ATOM     27  C   UNL     1       8.586  -3.310  25.868  0.00  0.00    +0.000 A 
ATOM     28  C   UNL     1       9.305  -4.725  25.434  0.00  0.00    +0.000 A 
ATOM     29  C   UNL     1       8.415  -4.994  24.239  0.00  0.00    +0.000 A 
ATOM     30  C   UNL     1       7.690  -4.450  23.401  0.00  0.00    +0.000 A 
ATOM     31  C   UNL     1       6.367  -4.950  23.511  0.00  0.00    +0.000 A 
ATOM     32  C   UNL     1       4.985  -4.680  23.295  0.00  0.00    +0.000 A 
ATOM     33  C   UNL     1       5.211  -3.171  23.257  0.00  0.00    +0.000 A 
ATOM     34  C   UNL     1       6.410  -2.465  23.359  0.00  0.00    +0.000 A 
ATOM     35  C   UNL     1       7.383  -2.978  24.126  0.00  0.00    +0.000 A 
ENDBRANCH  25  26
ENDBRANCH   6  25
TORSDOF 5
ENDMDL
MODEL 4
REMARK VINA RESULT:      -8.3      2.623      5.192
REMARK  Name = 
REMARK  5 active torsions:
REMARK  status: ('A' for Active; 'I' for Inactive)
REMARK    1  A    between atoms: C_9  and  C_10
REMARK    2  A    between atoms: N_15  and  C_16
REMARK    3  A    between atoms: C_16  and  C_19
REMARK    4  A    between atoms: N_28  and  C_29
REMARK    5  A    between atoms: C_29  and  C_32
REMARK                            x       y       z     vdW  Elec       q    Type
REMARK                         _______ _______ _______ _____ _____    ______ ____
ROOT
ATOM      1  C   UNL     1       6.450  -5.208  26.218  0.00  0.00    +0.000 C 
ATOM      2  O   UNL     1       5.977  -6.324  26.461  0.00  0.00    +0.000 OA
ATOM      3  N   UNL     1       7.530  -5.086  25.469  0.00  0.00    +0.000 N 
ATOM      4  C   UNL     1       8.858  -4.775  26.036  0.00  0.00    +0.000 C 
ATOM      5  C   UNL     1       9.113  -3.324  25.489  0.00  0.00    +0.000 C 
ATOM      6  N   UNL     1       9.355  -3.420  24.120  0.00  0.00    +0.000 NA
ATOM      7  C   UNL     1       8.321  -3.966  23.386  0.00  0.00    +0.000 C 
ATOM      8  C   UNL     1       7.547  -5.108  24.018  0.00  0.00    +0.000 C 
ENDROOT
BRANCH   1   9
ATOM      9  C   UNL     1       5.877  -4.020  26.997  0.00  0.00    +0.000 C 
BRANCH   9  12
ATOM     10  C   UNL     1       4.626  -0.760  26.565  0.00  0.00    +0.000 C 
ATOM     11  C   UNL     1       5.614  -1.843  26.070  0.00  0.00    +0.000 C 
ATOM     12  N   UNL     1       5.167  -3.129  26.256  0.00  0.00    +0.000 NA
ATOM     13  C   UNL     1       3.882  -3.349  25.810  0.00  0.00    +0.000 C 
ATOM     14  C   UNL     1       2.843  -2.498  26.553  0.00  0.00    +0.000 C 
ATOM     15  C   UNL     1       3.563  -1.492  27.428  0.00  0.00    +0.000 C 
BRANCH  10  21
ATOM     16  C   UNL     1       5.447   4.130  25.971  0.00  0.00    +0.000 C 
ATOM     17  C   UNL     1       6.683   3.464  25.424  0.00  0.00    +0.000 C 
ATOM     18  C   UNL     1       7.547   2.452  26.048  0.00  0.00    +0.000 C 
ATOM     19  C   UNL     1       6.914   2.086  27.371  0.00  0.00    +0.000 C 
ATOM     20  S   UNL     1       6.793   0.571  26.963  0.00  0.00    +0.000 S 
ATOM     21  C   UNL     1       5.278   0.225  27.414  0.00  0.00    +0.000 C 
ATOM     22  N   UNL     1       4.935   1.365  27.874  0.00  0.00    +0.000 NA
ATOM     23  C   UNL     1       5.648   2.415  27.793  0.00  0.00    +0.000 C 
ATOM     24  C   UNL     1       4.842   3.363  27.059  0.00  0.00    +0.000 C 
ENDBRANCH  10  21
ENDBRANCH   9  12
ENDBRANCH   1   9
BRANCH   6  25
ATOM     25  C   UNL     1       9.867  -2.208  23.531  0.00  0.00    +0.000 C 
BRANCH  25  26
ATOM     26  C   UNL     1       9.154  -0.985  24.102  0.00  0.00    +0.000 A 
ATOM     27  C   UNL     1       9.976  -0.144  24.794  0.00  0.00    +0.000 A 
ATOM     28  C   UNL     1      10.830   1.179  24.316  0.00  0.00    +0.000 A 
ATOM     29  C   UNL     1       9.995   1.469  23.087  0.00  0.00    +0.000 A 
ATOM     30  C   UNL     1       8.878   1.308  22.587  0.00  0.00    +0.000 A 
ATOM     31  C   UNL     1       8.992   0.576  21.377  0.00  0.00    +0.000 A 
ATOM     32  C   UNL     1       8.336  -0.299  20.464  0.00  0.00    +0.000 A 
ATOM     33  C   UNL     1       7.315  -0.741  21.509  0.00  0.00    +0.000 A 
ATOM     34  C   UNL     1       7.173  -0.310  22.829  0.00  0.00    +0.000 A 
ATOM     35  C   UNL     1       8.279   0.046  23.500  0.00  0.00    +0.000 A 
ENDBRANCH  25  26
ENDBRANCH   6  25
TORSDOF 5
ENDMDL
MODEL 5
REMARK VINA RESULT:      -8.2      1.928      3.765
REMARK  Name = 
REMARK  5 active torsions:
REMARK  status: ('A' for Active; 'I' for Inactive)
REMARK    1  A    between atoms: C_9  and  C_10
REMARK    2  A    between atoms: N_15  and  C_16
REMARK    3  A    between atoms: C_16  and  C_19
REMARK    4  A    between atoms: N_28  and  C_29
REMARK    5  A    between atoms: C_29  and  C_32
REMARK                            x       y       z     vdW  Elec       q    Type
REMARK                         _______ _______ _______ _____ _____    ______ ____
ROOT
ATOM      1  C   UNL     1       8.325  -3.012  23.258  0.00  0.00    +0.000 C 
ATOM      2  O   UNL     1       7.871  -4.131  22.995  0.00  0.00    +0.000 OA
ATOM      3  N   UNL     1       8.182  -2.012  22.408  0.00  0.00    +0.000 N 
ATOM      4  C   UNL     1       9.293  -1.516  21.572  0.00  0.00    +0.000 C 
ATOM      5  C   UNL     1       9.552  -0.094  22.188  0.00  0.00    +0.000 C 
ATOM      6  N   UNL     1       8.484   0.726  21.832  0.00  0.00    +0.000 NA
ATOM      7  C   UNL     1       7.250   0.298  22.281  0.00  0.00    +0.000 C 
ATOM      8  C   UNL     1       6.988  -1.197  22.272  0.00  0.00    +0.000 C 
ENDROOT
BRANCH   1   9
ATOM      9  C   UNL     1       9.240  -2.898  24.482  0.00  0.00    +0.000 C 
BRANCH   9  12
ATOM     10  C   UNL     1       6.678  -3.492  26.819  0.00  0.00    +0.000 C 
ATOM     11  C   UNL     1       8.196  -3.532  26.527  0.00  0.00    +0.000 C 
ATOM     12  N   UNL     1       8.617  -2.566  25.643  0.00  0.00    +0.000 NA
ATOM     13  C   UNL     1       8.175  -1.297  25.944  0.00  0.00    +0.000 C 
ATOM     14  C   UNL     1       6.645  -1.177  25.904  0.00  0.00    +0.000 C 
ATOM     15  C   UNL     1       6.046  -2.560  25.751  0.00  0.00    +0.000 C 
BRANCH  10  21
ATOM     16  C   UNL     1       3.987  -5.536  23.141  0.00  0.00    +0.000 C 
ATOM     17  C   UNL     1       2.969  -4.913  24.062  0.00  0.00    +0.000 C 
ATOM     18  C   UNL     1       2.813  -5.069  25.515  0.00  0.00    +0.000 C 
ATOM     19  C   UNL     1       3.962  -5.926  25.994  0.00  0.00    +0.000 C 
ATOM     20  S   UNL     1       4.470  -4.807  26.975  0.00  0.00    +0.000 S 
ATOM     21  C   UNL     1       6.061  -4.802  26.679  0.00  0.00    +0.000 C 
ATOM     22  N   UNL     1       6.107  -5.714  25.788  0.00  0.00    +0.000 NA
ATOM     23  C   UNL     1       5.083  -6.270  25.277  0.00  0.00    +0.000 C 
ATOM     24  C   UNL     1       5.173  -5.998  23.860  0.00  0.00    +0.000 C 
ENDBRANCH  10  21
ENDBRANCH   9  12
ENDBRANCH   1   9
BRANCH   6  25
ATOM     25  C   UNL     1       8.708   2.126  22.096  0.00  0.00    +0.000 C 
BRANCH  25  26
ATOM     26  C   UNL     1       9.341   2.323  23.470  0.00  0.00    +0.000 A 
ATOM     27  C   UNL     1      10.521   3.008  23.438  0.00  0.00    +0.000 A 
ATOM     28  C   UNL     1      10.851   4.613  23.592  0.00  0.00    +0.000 A 
ATOM     29  C   UNL     1       9.568   4.969  24.313  0.00  0.00    +0.000 A 
ATOM     30  C   UNL     1       8.669   4.507  25.022  0.00  0.00    +0.000 A 
ATOM     31  C   UNL     1       7.419   4.645  24.366  0.00  0.00    +0.000 A 
ATOM     32  C   UNL     1       6.097   4.130  24.232  0.00  0.00    +0.000 A 
ATOM     33  C   UNL     1       6.488   2.775  24.817  0.00  0.00    +0.000 A 
ATOM     34  C   UNL     1       7.725   2.361  25.310  0.00  0.00    +0.000 A 
ATOM     35  C   UNL     1       8.832   2.868  24.749  0.00  0.00    +0.000 A 
ENDBRANCH  25  26
ENDBRANCH   6  25
TORSDOF 5
ENDMDL
MODEL 6
REMARK VINA RESULT:      -8.2      1.514      3.478
REMARK  Name = 
REMARK  5 active torsions:
REMARK  status: ('A' for Active; 'I' for Inactive)
REMARK    1  A    between atoms: C_9  and  C_10
REMARK    2  A    between atoms: N_15  and  C_16
REMARK    3  A    between atoms: C_16  and  C_19
REMARK    4  A    between atoms: N_28  and  C_29
REMARK    5  A    between atoms: C_29  and  C_32
REMARK                            x       y       z     vdW  Elec       q    Type
REMARK                         _______ _______ _______ _____ _____    ______ ____
ROOT
ATOM      1  C   UNL     1       9.055  -4.650  25.029  0.00  0.00    +0.000 C 
ATOM      2  O   UNL     1      10.046  -5.386  25.088  0.00  0.00    +0.000 OA
ATOM      3  N   UNL     1       9.196  -3.341  24.934  0.00  0.00    +0.000 N 
ATOM      4  C   UNL     1       8.955  -2.432  26.074  0.00  0.00    +0.000 C 
ATOM      5  C   UNL     1       7.662  -1.668  25.613  0.00  0.00    +0.000 C 
ATOM      6  N   UNL     1       8.021  -0.807  24.578  0.00  0.00    +0.000 NA
ATOM      7  C   UNL     1       8.555  -1.429  23.467  0.00  0.00    +0.000 C 
ATOM      8  C   UNL     1       9.469  -2.617  23.706  0.00  0.00    +0.000 C 
ENDROOT
BRANCH   1   9
ATOM      9  C   UNL     1       7.690  -5.292  25.296  0.00  0.00    +0.000 C 
BRANCH   9  12
ATOM     10  C   UNL     1       4.265  -5.250  24.492  0.00  0.00    +0.000 C 
ATOM     11  C   UNL     1       5.489  -4.439  24.978  0.00  0.00    +0.000 C 
ATOM     12  N   UNL     1       6.687  -4.887  24.473  0.00  0.00    +0.000 NA
ATOM     13  C   UNL     1       6.689  -5.071  23.108  0.00  0.00    +0.000 C 
ATOM     14  C   UNL     1       5.687  -6.141  22.653  0.00  0.00    +0.000 C 
ATOM     15  C   UNL     1       4.822  -6.539  23.831  0.00  0.00    +0.000 C 
BRANCH  10  21
ATOM     16  C   UNL     1       4.456  -4.297  29.392  0.00  0.00    +0.000 C 
ATOM     17  C   UNL     1       5.217  -5.586  29.220  0.00  0.00    +0.000 C 
ATOM     18  C   UNL     1       4.811  -6.822  28.536  0.00  0.00    +0.000 C 
ATOM     19  C   UNL     1       3.465  -6.555  27.905  0.00  0.00    +0.000 C 
ATOM     20  S   UNL     1       4.006  -6.884  26.465  0.00  0.00    +0.000 S 
ATOM     21  C   UNL     1       3.408  -5.657  25.595  0.00  0.00    +0.000 C 
ATOM     22  N   UNL     1       2.795  -5.029  26.521  0.00  0.00    +0.000 NA
ATOM     23  C   UNL     1       2.857  -5.331  27.756  0.00  0.00    +0.000 C 
ATOM     24  C   UNL     1       3.385  -4.154  28.406  0.00  0.00    +0.000 C 
ENDBRANCH  10  21
ENDBRANCH   9  12
ENDBRANCH   1   9
BRANCH   6  25
ATOM     25  C   UNL     1       7.000   0.151  24.233  0.00  0.00    +0.000 C 
BRANCH  25  26
ATOM     26  C   UNL     1       7.600   1.544  24.063  0.00  0.00    +0.000 A 
ATOM     27  C   UNL     1       8.770   1.724  24.743  0.00  0.00    +0.000 A 
ATOM     28  C   UNL     1      10.336   1.521  24.283  0.00  0.00    +0.000 A 
ATOM     29  C   UNL     1      10.079   1.629  22.795  0.00  0.00    +0.000 A 
ATOM     30  C   UNL     1       9.299   2.088  21.955  0.00  0.00    +0.000 A 
ATOM     31  C   UNL     1       8.749   1.034  21.181  0.00  0.00    +0.000 A 
ATOM     32  C   UNL     1       7.644   0.608  20.390  0.00  0.00    +0.000 A 
ATOM     33  C   UNL     1       6.711   1.647  21.004  0.00  0.00    +0.000 A 
ATOM     34  C   UNL     1       7.000   2.629  21.951  0.00  0.00    +0.000 A 
ATOM     35  C   UNL     1       7.934   2.361  22.876  0.00  0.00    +0.000 A 
ENDBRANCH  25  26
ENDBRANCH   6  25
TORSDOF 5
ENDMDL
MODEL 7
REMARK VINA RESULT:      -8.1      1.556      3.894
REMARK  Name = 
REMARK  5 active torsions:
REMARK  status: ('A' for Active; 'I' for Inactive)
REMARK    1  A    between atoms: C_9  and  C_10
REMARK    2  A    between atoms: N_15  and  C_16
REMARK    3  A    between atoms: C_16  and  C_19
REMARK    4  A    between atoms: N_28  and  C_29
REMARK    5  A    between atoms: C_29  and  C_32
REMARK                            x       y       z     vdW  Elec       q    Type
REMARK                         _______ _______ _______ _____ _____    ______ ____
ROOT
ATOM      1  C   UNL     1       9.186  -4.394  24.806  0.00  0.00    +0.000 C 
ATOM      2  O   UNL     1      10.162  -5.100  25.083  0.00  0.00    +0.000 OA
ATOM      3  N   UNL     1       9.273  -3.078  24.855  0.00  0.00    +0.000 N 
ATOM      4  C   UNL     1       8.678  -2.283  25.949  0.00  0.00    +0.000 C 
ATOM      5  C   UNL     1       7.520  -1.524  25.205  0.00  0.00    +0.000 C 
ATOM      6  N   UNL     1       8.101  -0.563  24.381  0.00  0.00    +0.000 NA
ATOM      7  C   UNL     1       8.955  -1.065  23.418  0.00  0.00    +0.000 C 
ATOM      8  C   UNL     1       9.832  -2.239  23.811  0.00  0.00    +0.000 C 
ENDROOT
BRANCH   1   9
ATOM      9  C   UNL     1       7.838  -5.102  24.632  0.00  0.00    +0.000 C 
BRANCH   9  12
ATOM     10  C   UNL     1       4.766  -5.103  22.918  0.00  0.00    +0.000 C 
ATOM     11  C   UNL     1       5.754  -4.305  23.800  0.00  0.00    +0.000 C 
ATOM     12  N   UNL     1       7.072  -4.646  23.607  0.00  0.00    +0.000 NA
ATOM     13  C   UNL     1       7.457  -4.675  22.285  0.00  0.00    +0.000 C 
ATOM     14  C   UNL     1       6.692  -5.725  21.467  0.00  0.00    +0.000 C 
ATOM     15  C   UNL     1       5.569  -6.287  22.314  0.00  0.00    +0.000 C 
BRANCH  10  21
ATOM     16  C   UNL     1       3.385  -4.470  27.676  0.00  0.00    +0.000 C 
ATOM     17  C   UNL     1       4.303  -5.665  27.697  0.00  0.00    +0.000 C 
ATOM     18  C   UNL     1       4.260  -6.885  26.879  0.00  0.00    +0.000 C 
ATOM     19  C   UNL     1       3.140  -6.706  25.879  0.00  0.00    +0.000 C 
ATOM     20  S   UNL     1       4.118  -6.884  24.659  0.00  0.00    +0.000 S 
ATOM     21  C   UNL     1       3.672  -5.664  23.694  0.00  0.00    +0.000 C 
ATOM     22  N   UNL     1       2.745  -5.162  24.413  0.00  0.00    +0.000 NA
ATOM     23  C   UNL     1       2.471  -5.540  25.597  0.00  0.00    +0.000 C 
ATOM     24  C   UNL     1       2.646  -4.364  26.418  0.00  0.00    +0.000 C 
ENDBRANCH  10  21
ENDBRANCH   9  12
ENDBRANCH   1   9
BRANCH   6  25
ATOM     25  C   UNL     1       7.162   0.388  23.840  0.00  0.00    +0.000 C 
BRANCH  25  26
ATOM     26  C   UNL     1       7.719   1.042  22.578  0.00  0.00    +0.000 A 
ATOM     27  C   UNL     1       6.789   1.218  21.595  0.00  0.00    +0.000 A 
ATOM     28  C   UNL     1       5.811   2.493  21.240  0.00  0.00    +0.000 A 
ATOM     29  C   UNL     1       6.646   3.535  21.952  0.00  0.00    +0.000 A 
ATOM     30  C   UNL     1       7.789   3.793  22.341  0.00  0.00    +0.000 A 
ATOM     31  C   UNL     1       7.793   3.959  23.751  0.00  0.00    +0.000 A 
ATOM     32  C   UNL     1       8.569   3.881  24.943  0.00  0.00    +0.000 A 
ATOM     33  C   UNL     1       9.599   2.958  24.298  0.00  0.00    +0.000 A 
ATOM     34  C   UNL     1       9.652   2.490  22.985  0.00  0.00    +0.000 A 
ATOM     35  C   UNL     1       8.495   2.280  22.341  0.00  0.00    +0.000 A 
ENDBRANCH  25  26
ENDBRANCH   6  25
TORSDOF 5
ENDMDL
MODEL 8
REMARK VINA RESULT:      -8.0      2.384      8.563
REMARK  Name = 
REMARK  5 active torsions:
REMARK  status: ('A' for Active; 'I' for Inactive)
REMARK    1  A    between atoms: C_9  and  C_10
REMARK    2  A    between atoms: N_15  and  C_16
REMARK    3  A    between atoms: C_16  and  C_19
REMARK    4  A    between atoms: N_28  and  C_29
REMARK    5  A    between atoms: C_29  and  C_32
REMARK                            x       y       z     vdW  Elec       q    Type
REMARK                         _______ _______ _______ _____ _____    ______ ____
ROOT
ATOM      1  C   UNL     1       8.287  -2.300  22.217  0.00  0.00    +0.000 C 
ATOM      2  O   UNL     1       9.397  -2.103  21.707  0.00  0.00    +0.000 OA
ATOM      3  N   UNL     1       8.121  -3.254  23.113  0.00  0.00    +0.000 N 
ATOM      4  C   UNL     1       7.446  -4.530  22.798  0.00  0.00    +0.000 C 
ATOM      5  C   UNL     1       6.123  -4.413  23.637  0.00  0.00    +0.000 C 
ATOM      6  N   UNL     1       6.458  -4.544  24.983  0.00  0.00    +0.000 NA
ATOM      7  C   UNL     1       7.336  -3.589  25.456  0.00  0.00    +0.000 C 
ATOM      8  C   UNL     1       8.446  -3.142  24.523  0.00  0.00    +0.000 C 
ENDROOT
BRANCH   1   9
ATOM      9  C   UNL     1       7.095  -1.557  21.605  0.00  0.00    +0.000 C 
BRANCH   9  12
ATOM     10  C   UNL     1       7.863   1.847  21.158  0.00  0.00    +0.000 C 
ATOM     11  C   UNL     1       8.378   0.389  21.118  0.00  0.00    +0.000 C 
ATOM     12  N   UNL     1       7.415  -0.530  20.774  0.00  0.00    +0.000 NA
ATOM     13  C   UNL     1       6.696  -0.199  19.648  0.00  0.00    +0.000 C 
ATOM     14  C   UNL     1       5.903   1.105  19.814  0.00  0.00    +0.000 C 
ATOM     15  C   UNL     1       6.313   1.770  21.111  0.00  0.00    +0.000 C 
BRANCH  10  21
ATOM     16  C   UNL     1      11.021   0.604  24.822  0.00  0.00    +0.000 C 
ATOM     17  C   UNL     1       9.687   0.060  25.263  0.00  0.00    +0.000 C 
ATOM     18  C   UNL     1       8.389   0.744  25.356  0.00  0.00    +0.000 C 
ATOM     19  C   UNL     1       8.587   2.141  24.815  0.00  0.00    +0.000 C 
ATOM     20  S   UNL     1       7.493   1.931  23.704  0.00  0.00    +0.000 S 
ATOM     21  C   UNL     1       8.233   2.522  22.391  0.00  0.00    +0.000 C 
ATOM     22  N   UNL     1       9.344   2.862  22.918  0.00  0.00    +0.000 NA
ATOM     23  C   UNL     1       9.678   2.605  24.119  0.00  0.00    +0.000 C 
ATOM     24  C   UNL     1      10.884   1.816  24.016  0.00  0.00    +0.000 C 
ENDBRANCH  10  21
ENDBRANCH   9  12
ENDBRANCH   1   9
BRANCH   6  25
ATOM     25  C   UNL     1       5.323  -4.725  25.853  0.00  0.00    +0.000 C 
BRANCH  25  26
ATOM     26  C   UNL     1       5.032  -6.209  26.061  0.00  0.00    +0.000 A 
ATOM     27  C   UNL     1       5.054  -6.594  27.371  0.00  0.00    +0.000 A 
ATOM     28  C   UNL     1       3.855  -6.698  28.493  0.00  0.00    +0.000 A 
ATOM     29  C   UNL     1       2.716  -6.782  27.500  0.00  0.00    +0.000 A 
ATOM     30  C   UNL     1       2.433  -7.101  26.341  0.00  0.00    +0.000 A 
ATOM     31  C   UNL     1       1.924  -5.976  25.641  0.00  0.00    +0.000 A 
ATOM     32  C   UNL     1       1.748  -5.364  24.367  0.00  0.00    +0.000 A 
ATOM     33  C   UNL     1       2.857  -6.199  23.732  0.00  0.00    +0.000 A 
ATOM     34  C   UNL     1       3.636  -7.201  24.310  0.00  0.00    +0.000 A 
ATOM     35  C   UNL     1       3.935  -7.096  25.614  0.00  0.00    +0.000 A 
ENDBRANCH  25  26
ENDBRANCH   6  25
TORSDOF 5
ENDMDL
MODEL 9
REMARK VINA RESULT:      -8.0      2.224      3.306
REMARK  Name = 
REMARK  5 active torsions:
REMARK  status: ('A' for Active; 'I' for Inactive)
REMARK    1  A    between atoms: C_9  and  C_10
REMARK    2  A    between atoms: N_15  and  C_16
REMARK    3  A    between atoms: C_16  and  C_19
REMARK    4  A    between atoms: N_28  and  C_29
REMARK    5  A    between atoms: C_29  and  C_32
REMARK                            x       y       z     vdW  Elec       q    Type
REMARK                         _______ _______ _______ _____ _____    ______ ____
ROOT
ATOM      1  C   UNL     1       3.933  -1.003  27.521  0.00  0.00    +0.000 C 
ATOM      2  O   UNL     1       3.119  -0.906  28.447  0.00  0.00    +0.000 OA
ATOM      3  N   UNL     1       4.803  -0.038  27.288  0.00  0.00    +0.000 N 
ATOM      4  C   UNL     1       4.662   0.903  26.159  0.00  0.00    +0.000 C 
ATOM      5  C   UNL     1       5.865   0.488  25.238  0.00  0.00    +0.000 C 
ATOM      6  N   UNL     1       7.041   0.900  25.862  0.00  0.00    +0.000 NA
ATOM      7  C   UNL     1       7.260   0.347  27.108  0.00  0.00    +0.000 C 
ATOM      8  C   UNL     1       6.051   0.151  28.004  0.00  0.00    +0.000 C 
ENDROOT
BRANCH   1   9
ATOM      9  C   UNL     1       3.738  -2.161  26.537  0.00  0.00    +0.000 C 
BRANCH   9  12
ATOM     10  C   UNL     1       4.543  -5.578  26.765  0.00  0.00    +0.000 C 
ATOM     11  C   UNL     1       4.576  -4.193  27.453  0.00  0.00    +0.000 C 
ATOM     12  N   UNL     1       3.526  -3.377  27.107  0.00  0.00    +0.000 NA
ATOM     13  C   UNL     1       2.290  -3.978  27.201  0.00  0.00    +0.000 C 
ATOM     14  C   UNL     1       2.141  -5.175  26.252  0.00  0.00    +0.000 C 
ATOM     15  C   UNL     1       3.487  -5.485  25.631  0.00  0.00    +0.000 C 
BRANCH  10  21
ATOM     16  C   UNL     1       8.656  -2.870  25.931  0.00  0.00    +0.000 C 
ATOM     17  C   UNL     1       7.839  -2.727  24.672  0.00  0.00    +0.000 C 
ATOM     18  C   UNL     1       7.236  -3.772  23.832  0.00  0.00    +0.000 C 
ATOM     19  C   UNL     1       7.493  -5.093  24.519  0.00  0.00    +0.000 C 
ATOM     20  S   UNL     1       5.955  -5.410  24.619  0.00  0.00    +0.000 S 
ATOM     21  C   UNL     1       5.818  -5.913  26.151  0.00  0.00    +0.000 C 
ATOM     22  N   UNL     1       7.036  -5.797  26.515  0.00  0.00    +0.000 NA
ATOM     23  C   UNL     1       7.952  -5.276  25.801  0.00  0.00    +0.000 C 
ATOM     24  C   UNL     1       8.450  -4.164  26.579  0.00  0.00    +0.000 C 
ENDBRANCH  10  21
ENDBRANCH   9  12
ENDBRANCH   1   9
BRANCH   6  25
ATOM     25  C   UNL     1       8.207   0.829  25.017  0.00  0.00    +0.000 C 
BRANCH  25  26
ATOM     26  C   UNL     1       8.140   1.880  23.912  0.00  0.00    +0.000 A 
ATOM     27  C   UNL     1       9.051   2.886  24.055  0.00  0.00    +0.000 A 
ATOM     28  C   UNL     1      10.576   3.063  23.464  0.00  0.00    +0.000 A 
ATOM     29  C   UNL     1      10.416   2.085  22.319  0.00  0.00    +0.000 A 
ATOM     30  C   UNL     1       9.583   1.554  21.579  0.00  0.00    +0.000 A 
ATOM     31  C   UNL     1       9.619   0.145  21.746  0.00  0.00    +0.000 A 
ATOM     32  C   UNL     1       8.883  -1.070  21.651  0.00  0.00    +0.000 A 
ATOM     33  C   UNL     1       7.541  -0.347  21.711  0.00  0.00    +0.000 A 
ATOM     34  C   UNL     1       7.290   1.023  21.780  0.00  0.00    +0.000 A 
ATOM     35  C   UNL     1       8.170   1.796  22.434  0.00  0.00    +0.000 A 
ENDBRANCH  25  26
ENDBRANCH   6  25
TORSDOF 5
ENDMDL
